MODEL 1
REMARK VINA RESULT:     -10.0      0.000      0.000
REMARK  Name = 
REMARK  6 active torsions:
REMARK  status: ('A' for Active; 'I' for Inactive)
REMARK    1  A    between atoms: C_2  and  C_5
REMARK    2  A    between atoms: N_3  and  O_4
REMARK    3  A    between atoms: C_8  and  C_9
REMARK    4  A    between atoms: C_9  and  N_10
REMARK    5  A    between atoms: N_20  and  C_21
REMARK    6  A    between atoms: C_21  and  C_22
REMARK                            x       y       z     vdW  Elec       q    Type
REMARK                         _______ _______ _______ _____ _____    ______ ____
ROOT
ATOM      1  N   UNL     1       3.080   6.733  17.738  0.00  0.00    +0.000 N 
ATOM      2  C   UNL     1       4.474   6.503  17.754  0.00  0.00    +0.000 A 
ATOM      3  C   UNL     1       4.672   5.374  18.523  0.00  0.00    +0.000 A 
ATOM      4  C   UNL     1       3.435   5.044  19.116  0.00  0.00    +0.000 A 
ATOM      5  C   UNL     1       3.118   3.950  19.917  0.00  0.00    +0.000 A 
ATOM      6  C   UNL     1       2.275   3.015  19.341  0.00  0.00    +0.000 A 
ATOM      7  C   UNL     1       1.647   3.282  18.120  0.00  0.00    +0.000 A 
ATOM      8  C   UNL     1       1.716   4.551  17.511  0.00  0.00    +0.000 A 
ATOM      9  C   UNL     1       2.556   5.497  18.122  0.00  0.00    +0.000 A 
ATOM     10  C   UNL     1       5.896   4.509  18.441  0.00  0.00    +0.000 C 
ATOM     11  N   UNL     1       6.510   4.613  17.084  0.00  0.00    +0.000 NA
ATOM     12  C   UNL     1       6.756   6.045  16.764  0.00  0.00    +0.000 C 
ATOM     13  C   UNL     1       5.617   7.123  17.016  0.00  0.00    +0.000 C 
ENDROOT
BRANCH   1  14
ATOM     14  C   UNL     1       2.486   8.086  17.953  0.00  0.00    +0.000 C 
BRANCH  14  18
ATOM     15  C   UNL     1       0.278   9.715  21.436  0.00  0.00    +0.000 A 
ATOM     16  C   UNL     1       0.977   8.509  21.571  0.00  0.00    +0.000 A 
ATOM     17  C   UNL     1       1.691   7.937  20.478  0.00  0.00    +0.000 A 
ATOM     18  C   UNL     1       1.748   8.558  19.222  0.00  0.00    +0.000 A 
ATOM     19  C   UNL     1       0.995   9.753  19.106  0.00  0.00    +0.000 A 
ATOM     20  C   UNL     1       0.285  10.328  20.178  0.00  0.00    +0.000 A 
BRANCH  15  22
ATOM     21  O   UNL     1      -0.193  10.122  23.724  0.00  0.00    +0.000 OA
ATOM     22  C   UNL     1      -0.438  10.414  22.562  0.00  0.00    +0.000 C 
ATOM     23  N   UNL     1      -1.317  11.416  22.246  0.00  0.00    +0.000 N 
ATOM     24  H   UNL     1      -1.333  11.887  21.353  0.00  0.00    +0.000 HD
BRANCH  23  25
ATOM     25  O   UNL     1      -1.849  12.141  23.340  0.00  0.00    +0.000 OA
ATOM     26  H   UNL     1      -1.492  13.043  23.202  0.00  0.00    +0.000 HD
ENDBRANCH  23  25
ENDBRANCH  15  22
ENDBRANCH  14  18
ENDBRANCH   1  14
BRANCH  11  27
ATOM     27  C   UNL     1       5.694   3.896  16.072  0.00  0.00    +0.000 C 
BRANCH  27  28
ATOM     28  C   UNL     1       6.124   3.988  14.608  0.00  0.00    +0.000 A 
ATOM     29  C   UNL     1       5.465   3.352  13.548  0.00  0.00    +0.000 A 
ATOM     30  C   UNL     1       5.948   3.465  12.234  0.00  0.00    +0.000 A 
ATOM     31  C   UNL     1       7.072   4.243  11.955  0.00  0.00    +0.000 A 
ATOM     32  C   UNL     1       7.680   4.957  12.980  0.00  0.00    +0.000 A 
ATOM     33  C   UNL     1       7.200   4.841  14.289  0.00  0.00    +0.000 A 
ENDBRANCH  27  28
ENDBRANCH  11  27
TORSDOF 6
ENDMDL
MODEL 2
REMARK VINA RESULT:     -10.0      1.936      2.262
REMARK  Name = 
REMARK  6 active torsions:
REMARK  status: ('A' for Active; 'I' for Inactive)
REMARK    1  A    between atoms: C_2  and  C_5
REMARK    2  A    between atoms: N_3  and  O_4
REMARK    3  A    between atoms: C_8  and  C_9
REMARK    4  A    between atoms: C_9  and  N_10
REMARK    5  A    between atoms: N_20  and  C_21
REMARK    6  A    between atoms: C_21  and  C_22
REMARK                            x       y       z     vdW  Elec       q    Type
REMARK                         _______ _______ _______ _____ _____    ______ ____
ROOT
ATOM      1  N   UNL     1       3.162   5.533  19.076  0.00  0.00    +0.000 N 
ATOM      2  C   UNL     1       4.492   5.757  18.657  0.00  0.00    +0.000 A 
ATOM      3  C   UNL     1       5.100   4.518  18.615  0.00  0.00    +0.000 A 
ATOM      4  C   UNL     1       4.203   3.589  19.183  0.00  0.00    +0.000 A 
ATOM      5  C   UNL     1       4.338   2.207  19.300  0.00  0.00    +0.000 A 
ATOM      6  C   UNL     1       3.486   1.458  18.507  0.00  0.00    +0.000 A 
ATOM      7  C   UNL     1       2.443   2.072  17.807  0.00  0.00    +0.000 A 
ATOM      8  C   UNL     1       2.121   3.431  17.997  0.00  0.00    +0.000 A 
ATOM      9  C   UNL     1       2.980   4.172  18.823  0.00  0.00    +0.000 A 
ATOM     10  C   UNL     1       6.326   4.214  17.804  0.00  0.00    +0.000 C 
ATOM     11  N   UNL     1       6.410   5.134  16.632  0.00  0.00    +0.000 NA
ATOM     12  C   UNL     1       6.330   6.542  17.105  0.00  0.00    +0.000 C 
ATOM     13  C   UNL     1       5.211   6.967  18.150  0.00  0.00    +0.000 C 
ENDROOT
BRANCH   1  14
ATOM     14  C   UNL     1       2.499   6.366  20.123  0.00  0.00    +0.000 C 
BRANCH  14  18
ATOM     15  C   UNL     1       0.780  10.345  19.187  0.00  0.00    +0.000 A 
ATOM     16  C   UNL     1       0.655   9.832  20.485  0.00  0.00    +0.000 A 
ATOM     17  C   UNL     1       1.178   8.553  20.833  0.00  0.00    +0.000 A 
ATOM     18  C   UNL     1       1.859   7.753  19.905  0.00  0.00    +0.000 A 
ATOM     19  C   UNL     1       1.930   8.280  18.591  0.00  0.00    +0.000 A 
ATOM     20  C   UNL     1       1.417   9.542  18.235  0.00  0.00    +0.000 A 
BRANCH  15  22
ATOM     21  O   UNL     1       0.916  12.712  19.141  0.00  0.00    +0.000 OA
ATOM     22  C   UNL     1       0.316  11.714  18.766  0.00  0.00    +0.000 C 
ATOM     23  N   UNL     1      -0.751  11.800  17.910  0.00  0.00    +0.000 N 
ATOM     24  H   UNL     1      -1.085  11.029  17.350  0.00  0.00    +0.000 HD
BRANCH  23  25
ATOM     25  O   UNL     1      -1.054  13.096  17.425  0.00  0.00    +0.000 OA
ATOM     26  H   UNL     1      -0.670  13.683  18.109  0.00  0.00    +0.000 HD
ENDBRANCH  23  25
ENDBRANCH  15  22
ENDBRANCH  14  18
ENDBRANCH   1  14
BRANCH  11  27
ATOM     27  C   UNL     1       5.402   4.781  15.601  0.00  0.00    +0.000 C 
BRANCH  27  28
ATOM     28  C   UNL     1       5.903   4.403  14.207  0.00  0.00    +0.000 A 
ATOM     29  C   UNL     1       5.206   3.580  13.313  0.00  0.00    +0.000 A 
ATOM     30  C   UNL     1       5.756   3.258  12.061  0.00  0.00    +0.000 A 
ATOM     31  C   UNL     1       6.989   3.782  11.671  0.00  0.00    +0.000 A 
ATOM     32  C   UNL     1       7.647   4.675  12.507  0.00  0.00    +0.000 A 
ATOM     33  C   UNL     1       7.100   4.993  13.754  0.00  0.00    +0.000 A 
ENDBRANCH  27  28
ENDBRANCH  11  27
TORSDOF 6
ENDMDL
MODEL 3
REMARK VINA RESULT:      -9.9      1.763      2.161
REMARK  Name = 
REMARK  6 active torsions:
REMARK  status: ('A' for Active; 'I' for Inactive)
REMARK    1  A    between atoms: C_2  and  C_5
REMARK    2  A    between atoms: N_3  and  O_4
REMARK    3  A    between atoms: C_8  and  C_9
REMARK    4  A    between atoms: C_9  and  N_10
REMARK    5  A    between atoms: N_20  and  C_21
REMARK    6  A    between atoms: C_21  and  C_22
REMARK                            x       y       z     vdW  Elec       q    Type
REMARK                         _______ _______ _______ _____ _____    ______ ____
ROOT
ATOM      1  N   UNL     1       3.144   5.672  18.918  0.00  0.00    +0.000 N 
ATOM      2  C   UNL     1       4.483   5.854  18.508  0.00  0.00    +0.000 A 
ATOM      3  C   UNL     1       5.080   4.610  18.565  0.00  0.00    +0.000 A 
ATOM      4  C   UNL     1       4.164   3.732  19.182  0.00  0.00    +0.000 A 
ATOM      5  C   UNL     1       4.284   2.361  19.399  0.00  0.00    +0.000 A 
ATOM      6  C   UNL     1       3.439   1.564  18.646  0.00  0.00    +0.000 A 
ATOM      7  C   UNL     1       2.414   2.135  17.884  0.00  0.00    +0.000 A 
ATOM      8  C   UNL     1       2.102   3.507  17.971  0.00  0.00    +0.000 A 
ATOM      9  C   UNL     1       2.953   4.298  18.758  0.00  0.00    +0.000 A 
ATOM     10  C   UNL     1       6.317   4.239  17.801  0.00  0.00    +0.000 C 
ATOM     11  N   UNL     1       6.431   5.072  16.568  0.00  0.00    +0.000 NA
ATOM     12  C   UNL     1       6.356   6.511  16.938  0.00  0.00    +0.000 C 
ATOM     13  C   UNL     1       5.223   7.019  17.930  0.00  0.00    +0.000 C 
ENDROOT
BRANCH   1  14
ATOM     14  C   UNL     1       2.470   6.583  19.890  0.00  0.00    +0.000 C 
BRANCH  14  18
ATOM     15  C   UNL     1       0.441  10.469  19.226  0.00  0.00    +0.000 A 
ATOM     16  C   UNL     1       1.146   9.875  18.171  0.00  0.00    +0.000 A 
ATOM     17  C   UNL     1       1.826   8.634  18.338  0.00  0.00    +0.000 A 
ATOM     18  C   UNL     1       1.809   7.935  19.554  0.00  0.00    +0.000 A 
ATOM     19  C   UNL     1       1.125   8.583  20.612  0.00  0.00    +0.000 A 
ATOM     20  C   UNL     1       0.450   9.810  20.461  0.00  0.00    +0.000 A 
BRANCH  15  22
ATOM     21  O   UNL     1      -1.140  12.064  19.989  0.00  0.00    +0.000 OA
ATOM     22  C   UNL     1      -0.358  11.741  19.106  0.00  0.00    +0.000 C 
ATOM     23  N   UNL     1      -0.137  12.541  18.016  0.00  0.00    +0.000 N 
ATOM     24  H   UNL     1       0.682  12.478  17.429  0.00  0.00    +0.000 HD
BRANCH  23  25
ATOM     25  O   UNL     1      -0.800  13.794  18.024  0.00  0.00    +0.000 OA
ATOM     26  H   UNL     1      -1.671  13.580  18.417  0.00  0.00    +0.000 HD
ENDBRANCH  23  25
ENDBRANCH  15  22
ENDBRANCH  14  18
ENDBRANCH   1  14
BRANCH  11  27
ATOM     27  C   UNL     1       5.438   4.655  15.547  0.00  0.00    +0.000 C 
BRANCH  27  28
ATOM     28  C   UNL     1       5.947   4.321  14.144  0.00  0.00    +0.000 A 
ATOM     29  C   UNL     1       5.289   3.472  13.245  0.00  0.00    +0.000 A 
ATOM     30  C   UNL     1       5.845   3.195  11.985  0.00  0.00    +0.000 A 
ATOM     31  C   UNL     1       7.045   3.789  11.593  0.00  0.00    +0.000 A 
ATOM     32  C   UNL     1       7.661   4.707  12.435  0.00  0.00    +0.000 A 
ATOM     33  C   UNL     1       7.107   4.980  13.690  0.00  0.00    +0.000 A 
ENDBRANCH  27  28
ENDBRANCH  11  27
TORSDOF 6
ENDMDL
MODEL 4
REMARK VINA RESULT:      -9.3      2.061      2.550
REMARK  Name = 
REMARK  6 active torsions:
REMARK  status: ('A' for Active; 'I' for Inactive)
REMARK    1  A    between atoms: C_2  and  C_5
REMARK    2  A    between atoms: N_3  and  O_4
REMARK    3  A    between atoms: C_8  and  C_9
REMARK    4  A    between atoms: C_9  and  N_10
REMARK    5  A    between atoms: N_20  and  C_21
REMARK    6  A    between atoms: C_21  and  C_22
REMARK                            x       y       z     vdW  Elec       q    Type
REMARK                         _______ _______ _______ _____ _____    ______ ____
ROOT
ATOM      1  N   UNL     1       2.929   5.527  19.002  0.00  0.00    +0.000 N 
ATOM      2  C   UNL     1       4.273   5.809  18.673  0.00  0.00    +0.000 A 
ATOM      3  C   UNL     1       4.942   4.602  18.707  0.00  0.00    +0.000 A 
ATOM      4  C   UNL     1       4.053   3.642  19.235  0.00  0.00    +0.000 A 
ATOM      5  C   UNL     1       4.248   2.272  19.398  0.00  0.00    +0.000 A 
ATOM      6  C   UNL     1       3.494   1.462  18.567  0.00  0.00    +0.000 A 
ATOM      7  C   UNL     1       2.475   2.005  17.777  0.00  0.00    +0.000 A 
ATOM      8  C   UNL     1       2.073   3.350  17.907  0.00  0.00    +0.000 A 
ATOM      9  C   UNL     1       2.833   4.153  18.773  0.00  0.00    +0.000 A 
ATOM     10  C   UNL     1       6.238   4.342  17.995  0.00  0.00    +0.000 C 
ATOM     11  N   UNL     1       6.362   5.238  16.808  0.00  0.00    +0.000 NA
ATOM     12  C   UNL     1       6.177   6.651  17.236  0.00  0.00    +0.000 C 
ATOM     13  C   UNL     1       4.966   7.042  18.187  0.00  0.00    +0.000 C 
ENDROOT
BRANCH   1  14
ATOM     14  C   UNL     1       2.150   6.349  19.976  0.00  0.00    +0.000 C 
BRANCH  14  18
ATOM     15  C   UNL     1       1.139  10.588  19.158  0.00  0.00    +0.000 A 
ATOM     16  C   UNL     1       0.848  10.044  20.416  0.00  0.00    +0.000 A 
ATOM     17  C   UNL     1       1.141   8.684  20.724  0.00  0.00    +0.000 A 
ATOM     18  C   UNL     1       1.751   7.828  19.796  0.00  0.00    +0.000 A 
ATOM     19  C   UNL     1       1.993   8.395  18.520  0.00  0.00    +0.000 A 
ATOM     20  C   UNL     1       1.707   9.737  18.203  0.00  0.00    +0.000 A 
BRANCH  15  22
ATOM     21  O   UNL     1      -0.085  12.619  19.148  0.00  0.00    +0.000 OA
ATOM     22  C   UNL     1       0.924  12.031  18.785  0.00  0.00    +0.000 C 
ATOM     23  N   UNL     1       1.912  12.671  18.083  0.00  0.00    +0.000 N 
ATOM     24  H   UNL     1       2.863  12.336  18.019  0.00  0.00    +0.000 HD
BRANCH  23  25
ATOM     25  O   UNL     1       1.731  14.063  17.888  0.00  0.00    +0.000 OA
ATOM     26  H   UNL     1       2.609  14.357  17.567  0.00  0.00    +0.000 HD
ENDBRANCH  23  25
ENDBRANCH  15  22
ENDBRANCH  14  18
ENDBRANCH   1  14
BRANCH  11  27
ATOM     27  C   UNL     1       5.449   4.810  15.717  0.00  0.00    +0.000 C 
BRANCH  27  28
ATOM     28  C   UNL     1       6.053   4.549  14.338  0.00  0.00    +0.000 A 
ATOM     29  C   UNL     1       7.229   5.144  13.863  0.00  0.00    +0.000 A 
ATOM     30  C   UNL     1       7.697   4.870  12.567  0.00  0.00    +0.000 A 
ATOM     31  C   UNL     1       7.019   3.972  11.742  0.00  0.00    +0.000 A 
ATOM     32  C   UNL     1       5.905   3.301  12.233  0.00  0.00    +0.000 A 
ATOM     33  C   UNL     1       5.439   3.577  13.523  0.00  0.00    +0.000 A 
ENDBRANCH  27  28
ENDBRANCH  11  27
TORSDOF 6
ENDMDL
MODEL 5
REMARK VINA RESULT:      -9.2      0.459      1.297
REMARK  Name = 
REMARK  6 active torsions:
REMARK  status: ('A' for Active; 'I' for Inactive)
REMARK    1  A    between atoms: C_2  and  C_5
REMARK    2  A    between atoms: N_3  and  O_4
REMARK    3  A    between atoms: C_8  and  C_9
REMARK    4  A    between atoms: C_9  and  N_10
REMARK    5  A    between atoms: N_20  and  C_21
REMARK    6  A    between atoms: C_21  and  C_22
REMARK                            x       y       z     vdW  Elec       q    Type
REMARK                         _______ _______ _______ _____ _____    ______ ____
ROOT
ATOM      1  N   UNL     1       2.930   6.852  17.656  0.00  0.00    +0.000 N 
ATOM      2  C   UNL     1       4.321   6.703  17.854  0.00  0.00    +0.000 A 
ATOM      3  C   UNL     1       4.474   5.693  18.783  0.00  0.00    +0.000 A 
ATOM      4  C   UNL     1       3.191   5.375  19.276  0.00  0.00    +0.000 A 
ATOM      5  C   UNL     1       2.828   4.376  20.176  0.00  0.00    +0.000 A 
ATOM      6  C   UNL     1       2.094   3.331  19.641  0.00  0.00    +0.000 A 
ATOM      7  C   UNL     1       1.600   3.405  18.334  0.00  0.00    +0.000 A 
ATOM      8  C   UNL     1       1.689   4.589  17.574  0.00  0.00    +0.000 A 
ATOM      9  C   UNL     1       2.415   5.648  18.141  0.00  0.00    +0.000 A 
ATOM     10  C   UNL     1       5.733   4.892  18.949  0.00  0.00    +0.000 C 
ATOM     11  N   UNL     1       6.494   4.856  17.666  0.00  0.00    +0.000 NA
ATOM     12  C   UNL     1       6.718   6.247  17.187  0.00  0.00    +0.000 C 
ATOM     13  C   UNL     1       5.516   7.285  17.169  0.00  0.00    +0.000 C 
ENDROOT
BRANCH   1  14
ATOM     14  C   UNL     1       2.262   8.188  17.625  0.00  0.00    +0.000 C 
BRANCH  14  18
ATOM     15  C   UNL     1       0.338   9.911  21.229  0.00  0.00    +0.000 A 
ATOM     16  C   UNL     1       0.252  10.598  20.011  0.00  0.00    +0.000 A 
ATOM     17  C   UNL     1       0.864  10.093  18.827  0.00  0.00    +0.000 A 
ATOM     18  C   UNL     1       1.565   8.878  18.815  0.00  0.00    +0.000 A 
ATOM     19  C   UNL     1       1.672   8.231  20.070  0.00  0.00    +0.000 A 
ATOM     20  C   UNL     1       1.072   8.720  21.247  0.00  0.00    +0.000 A 
BRANCH  15  22
ATOM     21  O   UNL     1       0.072   9.959  23.584  0.00  0.00    +0.000 OA
ATOM     22  C   UNL     1      -0.341  10.347  22.501  0.00  0.00    +0.000 C 
ATOM     23  N   UNL     1      -1.386  11.228  22.406  0.00  0.00    +0.000 N 
ATOM     24  H   UNL     1      -1.570  11.795  21.591  0.00  0.00    +0.000 HD
BRANCH  23  25
ATOM     25  O   UNL     1      -1.892  11.722  23.633  0.00  0.00    +0.000 OA
ATOM     26  H   UNL     1      -2.027  12.675  23.448  0.00  0.00    +0.000 HD
ENDBRANCH  23  25
ENDBRANCH  15  22
ENDBRANCH  14  18
ENDBRANCH   1  14
BRANCH  11  27
ATOM     27  C   UNL     1       5.829   3.973  16.674  0.00  0.00    +0.000 C 
BRANCH  27  28
ATOM     28  C   UNL     1       6.215   4.127  15.203  0.00  0.00    +0.000 A 
ATOM     29  C   UNL     1       7.344   4.819  14.750  0.00  0.00    +0.000 A 
ATOM     30  C   UNL     1       7.607   4.938  13.375  0.00  0.00    +0.000 A 
ATOM     31  C   UNL     1       6.767   4.338  12.437  0.00  0.00    +0.000 A 
ATOM     32  C   UNL     1       5.695   3.568  12.874  0.00  0.00    +0.000 A 
ATOM     33  C   UNL     1       5.434   3.452  14.243  0.00  0.00    +0.000 A 
ENDBRANCH  27  28
ENDBRANCH  11  27
TORSDOF 6
ENDMDL
MODEL 6
REMARK VINA RESULT:      -8.9      0.821      1.245
REMARK  Name = 
REMARK  6 active torsions:
REMARK  status: ('A' for Active; 'I' for Inactive)
REMARK    1  A    between atoms: C_2  and  C_5
REMARK    2  A    between atoms: N_3  and  O_4
REMARK    3  A    between atoms: C_8  and  C_9
REMARK    4  A    between atoms: C_9  and  N_10
REMARK    5  A    between atoms: N_20  and  C_21
REMARK    6  A    between atoms: C_21  and  C_22
REMARK                            x       y       z     vdW  Elec       q    Type
REMARK                         _______ _______ _______ _____ _____    ______ ____
ROOT
ATOM      1  N   UNL     1       2.791   6.751  17.669  0.00  0.00    +0.000 N 
ATOM      2  C   UNL     1       4.187   6.690  17.875  0.00  0.00    +0.000 A 
ATOM      3  C   UNL     1       4.396   5.723  18.837  0.00  0.00    +0.000 A 
ATOM      4  C   UNL     1       3.131   5.345  19.337  0.00  0.00    +0.000 A 
ATOM      5  C   UNL     1       2.824   4.356  20.269  0.00  0.00    +0.000 A 
ATOM      6  C   UNL     1       2.156   3.253  19.766  0.00  0.00    +0.000 A 
ATOM      7  C   UNL     1       1.665   3.255  18.457  0.00  0.00    +0.000 A 
ATOM      8  C   UNL     1       1.686   4.416  17.658  0.00  0.00    +0.000 A 
ATOM      9  C   UNL     1       2.345   5.535  18.192  0.00  0.00    +0.000 A 
ATOM     10  C   UNL     1       5.699   5.004  19.033  0.00  0.00    +0.000 C 
ATOM     11  N   UNL     1       6.466   4.971  17.753  0.00  0.00    +0.000 NA
ATOM     12  C   UNL     1       6.610   6.356  17.230  0.00  0.00    +0.000 C 
ATOM     13  C   UNL     1       5.349   7.320  17.174  0.00  0.00    +0.000 C 
ENDROOT
BRANCH   1  14
ATOM     14  C   UNL     1       2.045   8.043  17.592  0.00  0.00    +0.000 C 
BRANCH  14  18
ATOM     15  C   UNL     1       0.468  10.623  20.834  0.00  0.00    +0.000 A 
ATOM     16  C   UNL     1       0.924   9.335  21.143  0.00  0.00    +0.000 A 
ATOM     17  C   UNL     1       1.428   8.462  20.135  0.00  0.00    +0.000 A 
ATOM     18  C   UNL     1       1.511   8.851  18.791  0.00  0.00    +0.000 A 
ATOM     19  C   UNL     1       1.001  10.142  18.504  0.00  0.00    +0.000 A 
ATOM     20  C   UNL     1       0.501  11.014  19.491  0.00  0.00    +0.000 A 
BRANCH  15  22
ATOM     21  O   UNL     1       0.403  12.774  21.829  0.00  0.00    +0.000 OA
ATOM     22  C   UNL     1      -0.011  11.623  21.853  0.00  0.00    +0.000 C 
ATOM     23  N   UNL     1      -0.957  11.221  22.758  0.00  0.00    +0.000 N 
ATOM     24  H   UNL     1      -1.535  10.401  22.640  0.00  0.00    +0.000 HD
BRANCH  23  25
ATOM     25  O   UNL     1      -1.484  12.235  23.596  0.00  0.00    +0.000 OA
ATOM     26  H   UNL     1      -1.357  13.048  23.064  0.00  0.00    +0.000 HD
ENDBRANCH  23  25
ENDBRANCH  15  22
ENDBRANCH  14  18
ENDBRANCH   1  14
BRANCH  11  27
ATOM     27  C   UNL     1       5.860   4.018  16.790  0.00  0.00    +0.000 C 
BRANCH  27  28
ATOM     28  C   UNL     1       6.217   4.166  15.311  0.00  0.00    +0.000 A 
ATOM     29  C   UNL     1       7.354   4.830  14.835  0.00  0.00    +0.000 A 
ATOM     30  C   UNL     1       7.590   4.947  13.455  0.00  0.00    +0.000 A 
ATOM     31  C   UNL     1       6.713   4.373  12.534  0.00  0.00    +0.000 A 
ATOM     32  C   UNL     1       5.632   3.630  12.992  0.00  0.00    +0.000 A 
ATOM     33  C   UNL     1       5.397   3.516  14.367  0.00  0.00    +0.000 A 
ENDBRANCH  27  28
ENDBRANCH  11  27
TORSDOF 6
ENDMDL
MODEL 7
REMARK VINA RESULT:      -8.8      2.048      2.525
REMARK  Name = 
REMARK  6 active torsions:
REMARK  status: ('A' for Active; 'I' for Inactive)
REMARK    1  A    between atoms: C_2  and  C_5
REMARK    2  A    between atoms: N_3  and  O_4
REMARK    3  A    between atoms: C_8  and  C_9
REMARK    4  A    between atoms: C_9  and  N_10
REMARK    5  A    between atoms: N_20  and  C_21
REMARK    6  A    between atoms: C_21  and  C_22
REMARK                            x       y       z     vdW  Elec       q    Type
REMARK                         _______ _______ _______ _____ _____    ______ ____
ROOT
ATOM      1  N   UNL     1       3.247   6.307  18.832  0.00  0.00    +0.000 N 
ATOM      2  C   UNL     1       4.616   6.095  18.558  0.00  0.00    +0.000 A 
ATOM      3  C   UNL     1       4.829   4.735  18.670  0.00  0.00    +0.000 A 
ATOM      4  C   UNL     1       3.648   4.165  19.191  0.00  0.00    +0.000 A 
ATOM      5  C   UNL     1       3.355   2.822  19.414  0.00  0.00    +0.000 A 
ATOM      6  C   UNL     1       2.395   2.276  18.579  0.00  0.00    +0.000 A 
ATOM      7  C   UNL     1       1.652   3.092  17.721  0.00  0.00    +0.000 A 
ATOM      8  C   UNL     1       1.732   4.498  17.781  0.00  0.00    +0.000 A 
ATOM      9  C   UNL     1       2.693   5.038  18.651  0.00  0.00    +0.000 A 
ATOM     10  C   UNL     1       5.979   4.012  18.032  0.00  0.00    +0.000 C 
ATOM     11  N   UNL     1       6.441   4.748  16.819  0.00  0.00    +0.000 NA
ATOM     12  C   UNL     1       6.740   6.159  17.184  0.00  0.00    +0.000 C 
ATOM     13  C   UNL     1       5.707   6.990  18.059  0.00  0.00    +0.000 C 
ENDROOT
BRANCH   1  14
ATOM     14  C   UNL     1       2.767   7.395  19.735  0.00  0.00    +0.000 C 
BRANCH  14  18
ATOM     15  C   UNL     1      -0.395  10.257  18.527  0.00  0.00    +0.000 A 
ATOM     16  C   UNL     1      -0.237   9.944  19.883  0.00  0.00    +0.000 A 
ATOM     17  C   UNL     1       0.756   9.020  20.321  0.00  0.00    +0.000 A 
ATOM     18  C   UNL     1       1.635   8.394  19.425  0.00  0.00    +0.000 A 
ATOM     19  C   UNL     1       1.420   8.699  18.058  0.00  0.00    +0.000 A 
ATOM     20  C   UNL     1       0.442   9.609  17.612  0.00  0.00    +0.000 A 
BRANCH  15  22
ATOM     21  O   UNL     1      -1.204  12.465  18.219  0.00  0.00    +0.000 OA
ATOM     22  C   UNL     1      -1.372  11.274  17.998  0.00  0.00    +0.000 C 
ATOM     23  N   UNL     1      -2.410  10.830  17.220  0.00  0.00    +0.000 N 
ATOM     24  H   UNL     1      -2.427   9.926  16.771  0.00  0.00    +0.000 HD
BRANCH  23  25
ATOM     25  O   UNL     1      -3.211  11.835  16.624  0.00  0.00    +0.000 OA
ATOM     26  H   UNL     1      -3.976  11.330  16.277  0.00  0.00    +0.000 HD
ENDBRANCH  23  25
ENDBRANCH  15  22
ENDBRANCH  14  18
ENDBRANCH   1  14
BRANCH  11  27
ATOM     27  C   UNL     1       5.474   4.601  15.703  0.00  0.00    +0.000 C 
BRANCH  27  28
ATOM     28  C   UNL     1       6.029   4.397  14.293  0.00  0.00    +0.000 A 
ATOM     29  C   UNL     1       7.207   4.984  13.814  0.00  0.00    +0.000 A 
ATOM     30  C   UNL     1       7.628   4.767  12.492  0.00  0.00    +0.000 A 
ATOM     31  C   UNL     1       6.901   3.933  11.643  0.00  0.00    +0.000 A 
ATOM     32  C   UNL     1       5.783   3.267  12.132  0.00  0.00    +0.000 A 
ATOM     33  C   UNL     1       5.363   3.487  13.448  0.00  0.00    +0.000 A 
ENDBRANCH  27  28
ENDBRANCH  11  27
TORSDOF 6
ENDMDL
MODEL 8
REMARK VINA RESULT:      -8.7      4.317      9.192
REMARK  Name = 
REMARK  6 active torsions:
REMARK  status: ('A' for Active; 'I' for Inactive)
REMARK    1  A    between atoms: C_2  and  C_5
REMARK    2  A    between atoms: N_3  and  O_4
REMARK    3  A    between atoms: C_8  and  C_9
REMARK    4  A    between atoms: C_9  and  N_10
REMARK    5  A    between atoms: N_20  and  C_21
REMARK    6  A    between atoms: C_21  and  C_22
REMARK                            x       y       z     vdW  Elec       q    Type
REMARK                         _______ _______ _______ _____ _____    ______ ____
ROOT
ATOM      1  N   UNL     1       4.406   5.319  18.843  0.00  0.00    +0.000 N 
ATOM      2  C   UNL     1       3.697   6.372  18.224  0.00  0.00    +0.000 A 
ATOM      3  C   UNL     1       2.377   5.970  18.166  0.00  0.00    +0.000 A 
ATOM      4  C   UNL     1       2.330   4.619  18.570  0.00  0.00    +0.000 A 
ATOM      5  C   UNL     1       1.216   3.801  18.741  0.00  0.00    +0.000 A 
ATOM      6  C   UNL     1       0.927   3.455  20.050  0.00  0.00    +0.000 A 
ATOM      7  C   UNL     1       1.824   3.757  21.079  0.00  0.00    +0.000 A 
ATOM      8  C   UNL     1       3.109   4.273  20.816  0.00  0.00    +0.000 A 
ATOM      9  C   UNL     1       3.396   4.595  19.480  0.00  0.00    +0.000 A 
ATOM     10  C   UNL     1       1.220   6.915  18.025  0.00  0.00    +0.000 C 
ATOM     11  N   UNL     1       1.576   8.252  18.585  0.00  0.00    +0.000 NA
ATOM     12  C   UNL     1       2.832   8.733  17.949  0.00  0.00    +0.000 C 
ATOM     13  C   UNL     1       4.081   7.761  17.820  0.00  0.00    +0.000 C 
ENDROOT
BRANCH   1  14
ATOM     14  C   UNL     1       5.707   4.807  18.316  0.00  0.00    +0.000 C 
BRANCH  14  18
ATOM     15  C   UNL     1       6.450   4.012  14.018  0.00  0.00    +0.000 A 
ATOM     16  C   UNL     1       7.393   4.741  14.753  0.00  0.00    +0.000 A 
ATOM     17  C   UNL     1       7.195   5.035  16.134  0.00  0.00    +0.000 A 
ATOM     18  C   UNL     1       6.060   4.595  16.830  0.00  0.00    +0.000 A 
ATOM     19  C   UNL     1       5.106   3.898  16.049  0.00  0.00    +0.000 A 
ATOM     20  C   UNL     1       5.290   3.602  14.684  0.00  0.00    +0.000 A 
BRANCH  15  22
ATOM     21  O   UNL     1       7.199   4.344  11.793  0.00  0.00    +0.000 OA
ATOM     22  C   UNL     1       6.624   3.604  12.579  0.00  0.00    +0.000 C 
ATOM     23  N   UNL     1       6.175   2.367  12.199  0.00  0.00    +0.000 N 
ATOM     24  H   UNL     1       5.971   1.620  12.848  0.00  0.00    +0.000 HD
BRANCH  23  25
ATOM     25  O   UNL     1       6.496   1.970  10.877  0.00  0.00    +0.000 OA
ATOM     26  H   UNL     1       6.246   1.023  10.864  0.00  0.00    +0.000 HD
ENDBRANCH  23  25
ENDBRANCH  15  22
ENDBRANCH  14  18
ENDBRANCH   1  14
BRANCH  11  27
ATOM     27  C   UNL     1       1.621   8.217  20.068  0.00  0.00    +0.000 C 
BRANCH  27  28
ATOM     28  C   UNL     1       0.769   9.227  20.837  0.00  0.00    +0.000 A 
ATOM     29  C   UNL     1       0.179  10.362  20.265  0.00  0.00    +0.000 A 
ATOM     30  C   UNL     1      -0.564  11.256  21.054  0.00  0.00    +0.000 A 
ATOM     31  C   UNL     1      -0.757  11.012  22.413  0.00  0.00    +0.000 A 
ATOM     32  C   UNL     1      -0.259   9.842  22.975  0.00  0.00    +0.000 A 
ATOM     33  C   UNL     1       0.482   8.954  22.189  0.00  0.00    +0.000 A 
ENDBRANCH  27  28
ENDBRANCH  11  27
TORSDOF 6
ENDMDL
MODEL 9
REMARK VINA RESULT:      -8.5      1.840      2.132
REMARK  Name = 
REMARK  6 active torsions:
REMARK  status: ('A' for Active; 'I' for Inactive)
REMARK    1  A    between atoms: C_2  and  C_5
REMARK    2  A    between atoms: N_3  and  O_4
REMARK    3  A    between atoms: C_8  and  C_9
REMARK    4  A    between atoms: C_9  and  N_10
REMARK    5  A    between atoms: N_20  and  C_21
REMARK    6  A    between atoms: C_21  and  C_22
REMARK                            x       y       z     vdW  Elec       q    Type
REMARK                         _______ _______ _______ _____ _____    ______ ____
ROOT
ATOM      1  N   UNL     1       3.222   6.328  18.928  0.00  0.00    +0.000 N 
ATOM      2  C   UNL     1       4.581   6.210  18.565  0.00  0.00    +0.000 A 
ATOM      3  C   UNL     1       4.885   4.864  18.629  0.00  0.00    +0.000 A 
ATOM      4  C   UNL     1       3.776   4.209  19.206  0.00  0.00    +0.000 A 
ATOM      5  C   UNL     1       3.582   2.845  19.412  0.00  0.00    +0.000 A 
ATOM      6  C   UNL     1       2.607   2.258  18.623  0.00  0.00    +0.000 A 
ATOM      7  C   UNL     1       1.762   3.045  17.834  0.00  0.00    +0.000 A 
ATOM      8  C   UNL     1       1.759   4.451  17.925  0.00  0.00    +0.000 A 
ATOM      9  C   UNL     1       2.737   5.031  18.748  0.00  0.00    +0.000 A 
ATOM     10  C   UNL     1       6.035   4.230  17.902  0.00  0.00    +0.000 C 
ATOM     11  N   UNL     1       6.373   5.021  16.683  0.00  0.00    +0.000 NA
ATOM     12  C   UNL     1       6.606   6.440  17.065  0.00  0.00    +0.000 C 
ATOM     13  C   UNL     1       5.581   7.183  18.024  0.00  0.00    +0.000 C 
ENDROOT
BRANCH   1  14
ATOM     14  C   UNL     1       2.733   7.364  19.887  0.00  0.00    +0.000 C 
BRANCH  14  18
ATOM     15  C   UNL     1      -0.465  10.250  18.839  0.00  0.00    +0.000 A 
ATOM     16  C   UNL     1      -0.313   9.851  20.173  0.00  0.00    +0.000 A 
ATOM     17  C   UNL     1       0.691   8.915  20.559  0.00  0.00    +0.000 A 
ATOM     18  C   UNL     1       1.587   8.363  19.632  0.00  0.00    +0.000 A 
ATOM     19  C   UNL     1       1.379   8.753  18.286  0.00  0.00    +0.000 A 
ATOM     20  C   UNL     1       0.390   9.676  17.892  0.00  0.00    +0.000 A 
BRANCH  15  22
ATOM     21  O   UNL     1      -1.299  11.840  17.291  0.00  0.00    +0.000 OA
ATOM     22  C   UNL     1      -1.454  11.284  18.369  0.00  0.00    +0.000 C 
ATOM     23  N   UNL     1      -2.550  11.534  19.153  0.00  0.00    +0.000 N 
ATOM     24  H   UNL     1      -2.874  10.912  19.879  0.00  0.00    +0.000 HD
BRANCH  23  25
ATOM     25  O   UNL     1      -3.524  12.401  18.598  0.00  0.00    +0.000 OA
ATOM     26  H   UNL     1      -3.665  13.059  19.310  0.00  0.00    +0.000 HD
ENDBRANCH  23  25
ENDBRANCH  15  22
ENDBRANCH  14  18
ENDBRANCH   1  14
BRANCH  11  27
ATOM     27  C   UNL     1       5.348   4.838  15.625  0.00  0.00    +0.000 C 
BRANCH  27  28
ATOM     28  C   UNL     1       5.820   4.411  14.235  0.00  0.00    +0.000 A 
ATOM     29  C   UNL     1       5.067   3.631  13.349  0.00  0.00    +0.000 A 
ATOM     30  C   UNL     1       5.591   3.258  12.100  0.00  0.00    +0.000 A 
ATOM     31  C   UNL     1       6.858   3.689  11.705  0.00  0.00    +0.000 A 
ATOM     32  C   UNL     1       7.579   4.541  12.532  0.00  0.00    +0.000 A 
ATOM     33  C   UNL     1       7.056   4.910  13.776  0.00  0.00    +0.000 A 
ENDBRANCH  27  28
ENDBRANCH  11  27
TORSDOF 6
ENDMDL
