MODEL 1
REMARK VINA RESULT:     -10.0      0.000      0.000
REMARK  Name = 
REMARK  7 active torsions:
REMARK  status: ('A' for Active; 'I' for Inactive)
REMARK    1  A    between atoms: C_2  and  C_3
REMARK    2  A    between atoms: N_5  and  C_6
REMARK    3  A    between atoms: C_9  and  N_10
REMARK    4  A    between atoms: N_14  and  C_15
REMARK    5  A    between atoms: C_20  and  C_21
REMARK    6  A    between atoms: C_30  and  O_31
REMARK    7  A    between atoms: O_31  and  C_32
REMARK                            x       y       z     vdW  Elec       q    Type
REMARK                         _______ _______ _______ _____ _____    ______ ____
ROOT
ATOM      1  N   UNL     1       5.147   6.152  18.042  0.00  0.00    +0.000 N 
ATOM      2  C   UNL     1       4.064   5.665  18.784  0.00  0.00    +0.000 A 
ATOM      3  N   UNL     1       3.325   6.582  19.430  0.00  0.00    +0.000 NA
ATOM      4  C   UNL     1       2.261   6.208  20.193  0.00  0.00    +0.000 A 
ATOM      5  N   UNL     1       1.505   7.198  20.845  0.00  0.00    +0.000 N 
ATOM      6  C   UNL     1       1.990   4.837  20.314  0.00  0.00    +0.000 A 
ATOM      7  C   UNL     1       1.067   3.999  21.005  0.00  0.00    +0.000 A 
ATOM      8  C   UNL     1       1.349   2.689  20.664  0.00  0.00    +0.000 A 
ATOM      9  N   UNL     1       2.395   2.707  19.777  0.00  0.00    +0.000 N 
ATOM     10  C   UNL     1       2.804   3.994  19.581  0.00  0.00    +0.000 A 
ATOM     11  N   UNL     1       3.832   4.343  18.807  0.00  0.00    +0.000 NA
ATOM     12  H   UNL     1       5.104   7.162  18.016  0.00  0.00    +0.000 HD
ATOM     13  H   UNL     1       0.708   6.834  21.349  0.00  0.00    +0.000 HD
ATOM     14  H   UNL     1       2.830   1.908  19.337  0.00  0.00    +0.000 HD
ENDROOT
BRANCH   1  18
ATOM     15  C   UNL     1       6.582   4.409  14.458  0.00  0.00    +0.000 A 
ATOM     16  C   UNL     1       5.561   5.354  14.441  0.00  0.00    +0.000 A 
ATOM     17  C   UNL     1       5.110   5.935  15.619  0.00  0.00    +0.000 A 
ATOM     18  C   UNL     1       5.650   5.576  16.856  0.00  0.00    +0.000 A 
ATOM     19  C   UNL     1       6.733   4.672  16.882  0.00  0.00    +0.000 A 
ATOM     20  C   UNL     1       7.165   4.066  15.686  0.00  0.00    +0.000 A 
BRANCH  15  23
ATOM     21  C   UNL     1       6.210   3.239  12.301  0.00  0.00    +0.000 C 
ATOM     22  O   UNL     1       4.991   3.336  12.241  0.00  0.00    +0.000 OA
ATOM     23  N   UNL     1       7.033   3.764  13.280  0.00  0.00    +0.000 N 
ATOM     24  H   UNL     1       8.034   3.724  13.140  0.00  0.00    +0.000 HD
BRANCH  21  26
ATOM     25  C   UNL     1       6.675   1.230  11.011  0.00  0.00    +0.000 C 
ATOM     26  C   UNL     1       6.952   2.524  11.229  0.00  0.00    +0.000 C 
ENDBRANCH  21  26
ENDBRANCH  15  23
BRANCH  19  27
ATOM     27  O   UNL     1       7.265   4.398  18.117  0.00  0.00    +0.000 OA
ATOM     28  C   UNL     1       7.887   5.482  18.798  0.00  0.00    +0.000 C 
ENDBRANCH  19  27
ENDBRANCH   1  18
BRANCH   5  29
ATOM     29  C   UNL     1       1.273   8.506  20.349  0.00  0.00    +0.000 A 
ATOM     30  C   UNL     1       1.524   8.794  18.993  0.00  0.00    +0.000 A 
ATOM     31  C   UNL     1       1.286  10.061  18.458  0.00  0.00    +0.000 A 
ATOM     32  C   UNL     1       0.764  11.064  19.262  0.00  0.00    +0.000 A 
ATOM     33  C   UNL     1       0.476  10.797  20.600  0.00  0.00    +0.000 A 
ATOM     34  C   UNL     1       0.730   9.528  21.154  0.00  0.00    +0.000 A 
BRANCH  34  35
ATOM     35  C   UNL     1       0.445   9.380  22.611  0.00  0.00    +0.000 C 
ATOM     36  N   UNL     1      -0.796   8.939  22.968  0.00  0.00    +0.000 N 
ATOM     37  O   UNL     1       1.301   9.596  23.461  0.00  0.00    +0.000 OA
ATOM     38  H   UNL     1      -1.456   8.619  22.267  0.00  0.00    +0.000 HD
ATOM     39  H   UNL     1      -0.948   8.691  23.936  0.00  0.00    +0.000 HD
ENDBRANCH  34  35
ENDBRANCH   5  29
TORSDOF 6
ENDMDL
MODEL 2
REMARK VINA RESULT:      -9.1      2.604      9.367
REMARK  Name = 
REMARK  7 active torsions:
REMARK  status: ('A' for Active; 'I' for Inactive)
REMARK    1  A    between atoms: C_2  and  C_3
REMARK    2  A    between atoms: N_5  and  C_6
REMARK    3  A    between atoms: C_9  and  N_10
REMARK    4  A    between atoms: N_14  and  C_15
REMARK    5  A    between atoms: C_20  and  C_21
REMARK    6  A    between atoms: C_30  and  O_31
REMARK    7  A    between atoms: O_31  and  C_32
REMARK                            x       y       z     vdW  Elec       q    Type
REMARK                         _______ _______ _______ _____ _____    ______ ____
ROOT
ATOM      1  N   UNL     1       1.734   7.925  19.348  0.00  0.00    +0.000 N 
ATOM      2  C   UNL     1       2.104   6.614  19.673  0.00  0.00    +0.000 A 
ATOM      3  N   UNL     1       3.257   6.174  19.145  0.00  0.00    +0.000 NA
ATOM      4  C   UNL     1       3.696   4.908  19.387  0.00  0.00    +0.000 A 
ATOM      5  N   UNL     1       4.914   4.487  18.826  0.00  0.00    +0.000 N 
ATOM      6  C   UNL     1       2.885   4.071  20.167  0.00  0.00    +0.000 A 
ATOM      7  C   UNL     1       2.893   2.722  20.627  0.00  0.00    +0.000 A 
ATOM      8  C   UNL     1       1.759   2.532  21.396  0.00  0.00    +0.000 A 
ATOM      9  N   UNL     1       1.079   3.721  21.434  0.00  0.00    +0.000 N 
ATOM     10  C   UNL     1       1.736   4.647  20.675  0.00  0.00    +0.000 A 
ATOM     11  N   UNL     1       1.305   5.892  20.473  0.00  0.00    +0.000 NA
ATOM     12  H   UNL     1       2.496   8.374  18.858  0.00  0.00    +0.000 HD
ATOM     13  H   UNL     1       5.184   3.551  19.096  0.00  0.00    +0.000 HD
ATOM     14  H   UNL     1       0.213   3.909  21.921  0.00  0.00    +0.000 HD
ENDROOT
BRANCH   1  18
ATOM     15  C   UNL     1      -0.473  10.488  21.900  0.00  0.00    +0.000 A 
ATOM     16  C   UNL     1       0.424   9.555  22.415  0.00  0.00    +0.000 A 
ATOM     17  C   UNL     1       1.157   8.733  21.569  0.00  0.00    +0.000 A 
ATOM     18  C   UNL     1       1.005   8.800  20.183  0.00  0.00    +0.000 A 
ATOM     19  C   UNL     1       0.154   9.788  19.645  0.00  0.00    +0.000 A 
ATOM     20  C   UNL     1      -0.609  10.599  20.509  0.00  0.00    +0.000 A 
BRANCH  15  23
ATOM     21  C   UNL     1      -1.105  12.673  22.890  0.00  0.00    +0.000 C 
ATOM     22  O   UNL     1      -0.334  13.393  22.269  0.00  0.00    +0.000 OA
ATOM     23  N   UNL     1      -1.269  11.309  22.735  0.00  0.00    +0.000 N 
ATOM     24  H   UNL     1      -2.034  10.858  23.219  0.00  0.00    +0.000 HD
BRANCH  21  26
ATOM     25  C   UNL     1      -3.296  12.875  23.925  0.00  0.00    +0.000 C 
ATOM     26  C   UNL     1      -2.013  13.263  23.911  0.00  0.00    +0.000 C 
ENDBRANCH  21  26
ENDBRANCH  15  23
BRANCH  19  27
ATOM     27  O   UNL     1       0.085   9.849  18.275  0.00  0.00    +0.000 OA
ATOM     28  C   UNL     1      -1.195  10.119  17.713  0.00  0.00    +0.000 C 
ENDBRANCH  19  27
ENDBRANCH   1  18
BRANCH   5  29
ATOM     29  C   UNL     1       6.037   5.322  18.593  0.00  0.00    +0.000 A 
ATOM     30  C   UNL     1       6.981   5.524  19.620  0.00  0.00    +0.000 A 
ATOM     31  C   UNL     1       8.113   6.317  19.427  0.00  0.00    +0.000 A 
ATOM     32  C   UNL     1       8.342   6.905  18.190  0.00  0.00    +0.000 A 
ATOM     33  C   UNL     1       7.441   6.695  17.147  0.00  0.00    +0.000 A 
ATOM     34  C   UNL     1       6.286   5.913  17.338  0.00  0.00    +0.000 A 
BRANCH  34  35
ATOM     35  C   UNL     1       5.361   5.814  16.172  0.00  0.00    +0.000 C 
ATOM     36  N   UNL     1       5.199   6.929  15.400  0.00  0.00    +0.000 N 
ATOM     37  O   UNL     1       4.802   4.764  15.878  0.00  0.00    +0.000 OA
ATOM     38  H   UNL     1       5.771   7.753  15.552  0.00  0.00    +0.000 HD
ATOM     39  H   UNL     1       4.699   6.831  14.527  0.00  0.00    +0.000 HD
ENDBRANCH  34  35
ENDBRANCH   5  29
TORSDOF 6
ENDMDL
MODEL 3
REMARK VINA RESULT:      -8.6      5.858      9.852
REMARK  Name = 
REMARK  7 active torsions:
REMARK  status: ('A' for Active; 'I' for Inactive)
REMARK    1  A    between atoms: C_2  and  C_3
REMARK    2  A    between atoms: N_5  and  C_6
REMARK    3  A    between atoms: C_9  and  N_10
REMARK    4  A    between atoms: N_14  and  C_15
REMARK    5  A    between atoms: C_20  and  C_21
REMARK    6  A    between atoms: C_30  and  O_31
REMARK    7  A    between atoms: O_31  and  C_32
REMARK                            x       y       z     vdW  Elec       q    Type
REMARK                         _______ _______ _______ _____ _____    ______ ____
ROOT
ATOM      1  N   UNL     1      -1.720  12.960  19.165  0.00  0.00    +0.000 N 
ATOM      2  C   UNL     1      -2.601  12.967  20.253  0.00  0.00    +0.000 A 
ATOM      3  N   UNL     1      -3.758  13.624  20.076  0.00  0.00    +0.000 NA
ATOM      4  C   UNL     1      -4.675  13.704  21.081  0.00  0.00    +0.000 A 
ATOM      5  N   UNL     1      -5.880  14.391  20.853  0.00  0.00    +0.000 N 
ATOM      6  C   UNL     1      -4.352  13.114  22.312  0.00  0.00    +0.000 A 
ATOM      7  C   UNL     1      -4.933  12.986  23.606  0.00  0.00    +0.000 A 
ATOM      8  C   UNL     1      -4.066  12.244  24.387  0.00  0.00    +0.000 A 
ATOM      9  N   UNL     1      -2.993  11.902  23.605  0.00  0.00    +0.000 N 
ATOM     10  C   UNL     1      -3.144  12.445  22.361  0.00  0.00    +0.000 A 
ATOM     11  N   UNL     1      -2.247  12.332  21.381  0.00  0.00    +0.000 NA
ATOM     12  H   UNL     1      -2.183  13.357  18.359  0.00  0.00    +0.000 HD
ATOM     13  H   UNL     1      -6.520  14.360  21.636  0.00  0.00    +0.000 HD
ATOM     14  H   UNL     1      -2.191  11.355  23.883  0.00  0.00    +0.000 HD
ENDROOT
BRANCH   1  18
ATOM     15  C   UNL     1       1.019   9.884  18.174  0.00  0.00    +0.000 A 
ATOM     16  C   UNL     1       1.443  11.051  18.802  0.00  0.00    +0.000 A 
ATOM     17  C   UNL     1       0.535  12.046  19.140  0.00  0.00    +0.000 A 
ATOM     18  C   UNL     1      -0.824  11.917  18.846  0.00  0.00    +0.000 A 
ATOM     19  C   UNL     1      -1.278  10.710  18.274  0.00  0.00    +0.000 A 
ATOM     20  C   UNL     1      -0.348   9.717  17.907  0.00  0.00    +0.000 A 
BRANCH  15  23
ATOM     21  C   UNL     1       2.402   7.867  18.597  0.00  0.00    +0.000 C 
ATOM     22  O   UNL     1       2.050   7.633  19.746  0.00  0.00    +0.000 OA
ATOM     23  N   UNL     1       1.924   8.870  17.774  0.00  0.00    +0.000 N 
ATOM     24  H   UNL     1       2.205   8.871  16.802  0.00  0.00    +0.000 HD
BRANCH  21  26
ATOM     25  C   UNL     1       3.619   5.769  18.423  0.00  0.00    +0.000 C 
ATOM     26  C   UNL     1       3.422   7.005  17.942  0.00  0.00    +0.000 C 
ENDBRANCH  21  26
ENDBRANCH  15  23
BRANCH  19  27
ATOM     27  O   UNL     1      -2.630  10.612  18.058  0.00  0.00    +0.000 OA
ATOM     28  C   UNL     1      -3.057  10.583  16.700  0.00  0.00    +0.000 C 
ENDBRANCH  19  27
ENDBRANCH   1  18
BRANCH   5  29
ATOM     29  C   UNL     1      -6.559  14.460  19.610  0.00  0.00    +0.000 A 
ATOM     30  C   UNL     1      -6.518  15.650  18.857  0.00  0.00    +0.000 A 
ATOM     31  C   UNL     1      -7.152  15.754  17.618  0.00  0.00    +0.000 A 
ATOM     32  C   UNL     1      -7.820  14.657  17.089  0.00  0.00    +0.000 A 
ATOM     33  C   UNL     1      -7.848  13.457  17.799  0.00  0.00    +0.000 A 
ATOM     34  C   UNL     1      -7.229  13.349  19.059  0.00  0.00    +0.000 A 
BRANCH  34  35
ATOM     35  C   UNL     1      -7.383  12.038  19.754  0.00  0.00    +0.000 C 
ATOM     36  N   UNL     1      -7.163  10.907  19.022  0.00  0.00    +0.000 N 
ATOM     37  O   UNL     1      -7.647  11.968  20.948  0.00  0.00    +0.000 OA
ATOM     38  H   UNL     1      -6.801  10.963  18.075  0.00  0.00    +0.000 HD
ATOM     39  H   UNL     1      -7.115  10.026  19.516  0.00  0.00    +0.000 HD
ENDBRANCH  34  35
ENDBRANCH   5  29
TORSDOF 6
ENDMDL
MODEL 4
REMARK VINA RESULT:      -8.6      3.976      7.526
REMARK  Name = 
REMARK  7 active torsions:
REMARK  status: ('A' for Active; 'I' for Inactive)
REMARK    1  A    between atoms: C_2  and  C_3
REMARK    2  A    between atoms: N_5  and  C_6
REMARK    3  A    between atoms: C_9  and  N_10
REMARK    4  A    between atoms: N_14  and  C_15
REMARK    5  A    between atoms: C_20  and  C_21
REMARK    6  A    between atoms: C_30  and  O_31
REMARK    7  A    between atoms: O_31  and  C_32
REMARK                            x       y       z     vdW  Elec       q    Type
REMARK                         _______ _______ _______ _____ _____    ______ ____
ROOT
ATOM      1  N   UNL     1       0.341   9.949  18.683  0.00  0.00    +0.000 N 
ATOM      2  C   UNL     1       0.656  11.311  18.758  0.00  0.00    +0.000 A 
ATOM      3  N   UNL     1      -0.305  12.118  19.234  0.00  0.00    +0.000 NA
ATOM      4  C   UNL     1      -0.103  13.462  19.330  0.00  0.00    +0.000 A 
ATOM      5  N   UNL     1      -1.130  14.273  19.845  0.00  0.00    +0.000 N 
ATOM      6  C   UNL     1       1.121  13.975  18.877  0.00  0.00    +0.000 A 
ATOM      7  C   UNL     1       1.745  15.248  18.733  0.00  0.00    +0.000 A 
ATOM      8  C   UNL     1       3.011  15.042  18.216  0.00  0.00    +0.000 A 
ATOM      9  N   UNL     1       3.182  13.691  18.063  0.00  0.00    +0.000 N 
ATOM     10  C   UNL     1       2.039  13.041  18.434  0.00  0.00    +0.000 A 
ATOM     11  N   UNL     1       1.870  11.721  18.359  0.00  0.00    +0.000 NA
ATOM     12  H   UNL     1      -0.546   9.787  19.141  0.00  0.00    +0.000 HD
ATOM     13  H   UNL     1      -0.876  15.248  19.924  0.00  0.00    +0.000 HD
ATOM     14  H   UNL     1       4.004  13.219  17.712  0.00  0.00    +0.000 HD
ENDROOT
BRANCH   1  18
ATOM     15  C   UNL     1       3.073   6.735  19.074  0.00  0.00    +0.000 A 
ATOM     16  C   UNL     1       2.980   7.462  17.890  0.00  0.00    +0.000 A 
ATOM     17  C   UNL     1       2.095   8.526  17.778  0.00  0.00    +0.000 A 
ATOM     18  C   UNL     1       1.259   8.888  18.836  0.00  0.00    +0.000 A 
ATOM     19  C   UNL     1       1.393   8.206  20.065  0.00  0.00    +0.000 A 
ATOM     20  C   UNL     1       2.272   7.109  20.162  0.00  0.00    +0.000 A 
BRANCH  15  23
ATOM     21  C   UNL     1       3.596   4.318  18.866  0.00  0.00    +0.000 C 
ATOM     22  O   UNL     1       2.570   3.949  18.309  0.00  0.00    +0.000 OA
ATOM     23  N   UNL     1       3.931   5.616  19.206  0.00  0.00    +0.000 N 
ATOM     24  H   UNL     1       4.867   5.799  19.543  0.00  0.00    +0.000 HD
BRANCH  21  26
ATOM     25  C   UNL     1       4.332   2.312  20.026  0.00  0.00    +0.000 C 
ATOM     26  C   UNL     1       4.651   3.328  19.211  0.00  0.00    +0.000 C 
ENDBRANCH  21  26
ENDBRANCH  15  23
BRANCH  19  27
ATOM     27  O   UNL     1       0.589   8.639  21.090  0.00  0.00    +0.000 OA
ATOM     28  C   UNL     1       1.247   9.172  22.234  0.00  0.00    +0.000 C 
ENDBRANCH  19  27
ENDBRANCH   1  18
BRANCH   5  29
ATOM     29  C   UNL     1      -2.058  13.880  20.842  0.00  0.00    +0.000 A 
ATOM     30  C   UNL     1      -3.285  13.299  20.463  0.00  0.00    +0.000 A 
ATOM     31  C   UNL     1      -4.218  12.876  21.412  0.00  0.00    +0.000 A 
ATOM     32  C   UNL     1      -3.932  12.998  22.765  0.00  0.00    +0.000 A 
ATOM     33  C   UNL     1      -2.711  13.540  23.167  0.00  0.00    +0.000 A 
ATOM     34  C   UNL     1      -1.772  13.988  22.218  0.00  0.00    +0.000 A 
BRANCH  34  35
ATOM     35  C   UNL     1      -0.532  14.610  22.766  0.00  0.00    +0.000 C 
ATOM     36  N   UNL     1      -0.682  15.658  23.629  0.00  0.00    +0.000 N 
ATOM     37  O   UNL     1       0.581  14.174  22.499  0.00  0.00    +0.000 OA
ATOM     38  H   UNL     1      -1.600  15.925  23.967  0.00  0.00    +0.000 HD
ATOM     39  H   UNL     1       0.139  15.985  24.121  0.00  0.00    +0.000 HD
ENDBRANCH  34  35
ENDBRANCH   5  29
TORSDOF 6
ENDMDL
MODEL 5
REMARK VINA RESULT:      -8.5      5.774      9.793
REMARK  Name = 
REMARK  7 active torsions:
REMARK  status: ('A' for Active; 'I' for Inactive)
REMARK    1  A    between atoms: C_2  and  C_3
REMARK    2  A    between atoms: N_5  and  C_6
REMARK    3  A    between atoms: C_9  and  N_10
REMARK    4  A    between atoms: N_14  and  C_15
REMARK    5  A    between atoms: C_20  and  C_21
REMARK    6  A    between atoms: C_30  and  O_31
REMARK    7  A    between atoms: O_31  and  C_32
REMARK                            x       y       z     vdW  Elec       q    Type
REMARK                         _______ _______ _______ _____ _____    ______ ____
ROOT
ATOM      1  N   UNL     1      -1.731  12.971  19.147  0.00  0.00    +0.000 N 
ATOM      2  C   UNL     1      -2.594  12.977  20.250  0.00  0.00    +0.000 A 
ATOM      3  N   UNL     1      -3.753  13.637  20.096  0.00  0.00    +0.000 NA
ATOM      4  C   UNL     1      -4.651  13.715  21.116  0.00  0.00    +0.000 A 
ATOM      5  N   UNL     1      -5.859  14.406  20.912  0.00  0.00    +0.000 N 
ATOM      6  C   UNL     1      -4.309  13.121  22.340  0.00  0.00    +0.000 A 
ATOM      7  C   UNL     1      -4.867  12.990  23.644  0.00  0.00    +0.000 A 
ATOM      8  C   UNL     1      -3.988  12.243  24.407  0.00  0.00    +0.000 A 
ATOM      9  N   UNL     1      -2.929  11.902  23.605  0.00  0.00    +0.000 N 
ATOM     10  C   UNL     1      -3.101  12.449  22.366  0.00  0.00    +0.000 A 
ATOM     11  N   UNL     1      -2.222  12.337  21.370  0.00  0.00    +0.000 NA
ATOM     12  H   UNL     1      -2.208  13.372  18.351  0.00  0.00    +0.000 HD
ATOM     13  H   UNL     1      -6.485  14.373  21.706  0.00  0.00    +0.000 HD
ATOM     14  H   UNL     1      -2.123  11.352  23.868  0.00  0.00    +0.000 HD
ENDROOT
BRANCH   1  18
ATOM     15  C   UNL     1       0.884   9.787  18.166  0.00  0.00    +0.000 A 
ATOM     16  C   UNL     1      -0.484   9.697  17.922  0.00  0.00    +0.000 A 
ATOM     17  C   UNL     1      -1.331  10.754  18.230  0.00  0.00    +0.000 A 
ATOM     18  C   UNL     1      -0.844  11.928  18.809  0.00  0.00    +0.000 A 
ATOM     19  C   UNL     1       0.549  12.060  18.995  0.00  0.00    +0.000 A 
ATOM     20  C   UNL     1       1.398  10.973  18.708  0.00  0.00    +0.000 A 
BRANCH  15  23
ATOM     21  C   UNL     1       2.224   7.816  18.858  0.00  0.00    +0.000 C 
ATOM     22  O   UNL     1       1.865   7.744  20.026  0.00  0.00    +0.000 OA
ATOM     23  N   UNL     1       1.768   8.711  17.907  0.00  0.00    +0.000 N 
ATOM     24  H   UNL     1       2.051   8.578  16.945  0.00  0.00    +0.000 HD
BRANCH  21  26
ATOM     25  C   UNL     1       3.754   5.952  19.167  0.00  0.00    +0.000 C 
ATOM     26  C   UNL     1       3.227   6.855  18.327  0.00  0.00    +0.000 C 
ENDBRANCH  21  26
ENDBRANCH  15  23
BRANCH  19  27
ATOM     27  O   UNL     1       0.981  13.256  19.513  0.00  0.00    +0.000 OA
ATOM     28  C   UNL     1       1.466  13.232  20.851  0.00  0.00    +0.000 C 
ENDBRANCH  19  27
ENDBRANCH   1  18
BRANCH   5  29
ATOM     29  C   UNL     1      -6.560  14.480  19.682  0.00  0.00    +0.000 A 
ATOM     30  C   UNL     1      -6.494  15.657  18.911  0.00  0.00    +0.000 A 
ATOM     31  C   UNL     1      -7.148  15.765  17.682  0.00  0.00    +0.000 A 
ATOM     32  C   UNL     1      -7.862  14.684  17.182  0.00  0.00    +0.000 A 
ATOM     33  C   UNL     1      -7.916  13.496  17.910  0.00  0.00    +0.000 A 
ATOM     34  C   UNL     1      -7.276  13.384  19.159  0.00  0.00    +0.000 A 
BRANCH  34  35
ATOM     35  C   UNL     1      -7.460  12.089  19.876  0.00  0.00    +0.000 C 
ATOM     36  N   UNL     1      -7.280  10.941  19.159  0.00  0.00    +0.000 N 
ATOM     37  O   UNL     1      -7.714  12.045  21.074  0.00  0.00    +0.000 OA
ATOM     38  H   UNL     1      -6.926  10.972  18.209  0.00  0.00    +0.000 HD
ATOM     39  H   UNL     1      -7.252  10.067  19.667  0.00  0.00    +0.000 HD
ENDBRANCH  34  35
ENDBRANCH   5  29
TORSDOF 6
ENDMDL
MODEL 6
REMARK VINA RESULT:      -8.3      4.078      8.033
REMARK  Name = 
REMARK  7 active torsions:
REMARK  status: ('A' for Active; 'I' for Inactive)
REMARK    1  A    between atoms: C_2  and  C_3
REMARK    2  A    between atoms: N_5  and  C_6
REMARK    3  A    between atoms: C_9  and  N_10
REMARK    4  A    between atoms: N_14  and  C_15
REMARK    5  A    between atoms: C_20  and  C_21
REMARK    6  A    between atoms: C_30  and  O_31
REMARK    7  A    between atoms: O_31  and  C_32
REMARK                            x       y       z     vdW  Elec       q    Type
REMARK                         _______ _______ _______ _____ _____    ______ ____
ROOT
ATOM      1  N   UNL     1      -0.191  10.659  18.780  0.00  0.00    +0.000 N 
ATOM      2  C   UNL     1       0.076  11.989  19.129  0.00  0.00    +0.000 A 
ATOM      3  N   UNL     1      -0.964  12.703  19.588  0.00  0.00    +0.000 NA
ATOM      4  C   UNL     1      -0.810  14.011  19.937  0.00  0.00    +0.000 A 
ATOM      5  N   UNL     1      -1.920  14.722  20.426  0.00  0.00    +0.000 N 
ATOM      6  C   UNL     1       0.453  14.593  19.762  0.00  0.00    +0.000 A 
ATOM      7  C   UNL     1       1.059  15.872  19.927  0.00  0.00    +0.000 A 
ATOM      8  C   UNL     1       2.391  15.757  19.574  0.00  0.00    +0.000 A 
ATOM      9  N   UNL     1       2.616  14.451  19.222  0.00  0.00    +0.000 N 
ATOM     10  C   UNL     1       1.448  13.749  19.307  0.00  0.00    +0.000 A 
ATOM     11  N   UNL     1       1.325  12.460  18.987  0.00  0.00    +0.000 NA
ATOM     12  H   UNL     1      -1.130  10.422  19.069  0.00  0.00    +0.000 HD
ATOM     13  H   UNL     1      -1.705  15.670  20.704  0.00  0.00    +0.000 HD
ATOM     14  H   UNL     1       3.492  14.047  18.921  0.00  0.00    +0.000 HD
ENDROOT
BRANCH   1  18
ATOM     15  C   UNL     1       2.516   7.410  19.030  0.00  0.00    +0.000 A 
ATOM     16  C   UNL     1       2.309   8.085  17.831  0.00  0.00    +0.000 A 
ATOM     17  C   UNL     1       1.434   9.162  17.763  0.00  0.00    +0.000 A 
ATOM     18  C   UNL     1       0.721   9.588  18.885  0.00  0.00    +0.000 A 
ATOM     19  C   UNL     1       0.974   8.958  20.123  0.00  0.00    +0.000 A 
ATOM     20  C   UNL     1       1.840   7.849  20.178  0.00  0.00    +0.000 A 
BRANCH  15  23
ATOM     21  C   UNL     1       2.941   4.965  19.065  0.00  0.00    +0.000 C 
ATOM     22  O   UNL     1       1.807   4.572  18.822  0.00  0.00    +0.000 OA
ATOM     23  N   UNL     1       3.365   6.280  19.124  0.00  0.00    +0.000 N 
ATOM     24  H   UNL     1       4.356   6.463  19.204  0.00  0.00    +0.000 HD
BRANCH  21  26
ATOM     25  C   UNL     1       5.284   4.323  18.950  0.00  0.00    +0.000 C 
ATOM     26  C   UNL     1       4.034   3.984  19.299  0.00  0.00    +0.000 C 
ENDBRANCH  21  26
ENDBRANCH  15  23
BRANCH  19  27
ATOM     27  O   UNL     1       0.290   9.453  21.205  0.00  0.00    +0.000 OA
ATOM     28  C   UNL     1      -0.417   8.506  21.999  0.00  0.00    +0.000 C 
ENDBRANCH  19  27
ENDBRANCH   1  18
BRANCH   5  29
ATOM     29  C   UNL     1      -2.973  14.165  21.195  0.00  0.00    +0.000 A 
ATOM     30  C   UNL     1      -4.306  14.305  20.760  0.00  0.00    +0.000 A 
ATOM     31  C   UNL     1      -5.370  13.753  21.473  0.00  0.00    +0.000 A 
ATOM     32  C   UNL     1      -5.124  13.021  22.627  0.00  0.00    +0.000 A 
ATOM     33  C   UNL     1      -3.811  12.840  23.063  0.00  0.00    +0.000 A 
ATOM     34  C   UNL     1      -2.732  13.410  22.361  0.00  0.00    +0.000 A 
BRANCH  34  35
ATOM     35  C   UNL     1      -1.381  13.206  22.958  0.00  0.00    +0.000 C 
ATOM     36  N   UNL     1      -0.791  11.988  22.782  0.00  0.00    +0.000 N 
ATOM     37  O   UNL     1      -0.792  14.106  23.544  0.00  0.00    +0.000 OA
ATOM     38  H   UNL     1      -1.209  11.291  22.174  0.00  0.00    +0.000 HD
ATOM     39  H   UNL     1       0.179  11.890  23.048  0.00  0.00    +0.000 HD
ENDBRANCH  34  35
ENDBRANCH   5  29
TORSDOF 6
ENDMDL
MODEL 7
REMARK VINA RESULT:      -8.3      4.980      8.622
REMARK  Name = 
REMARK  7 active torsions:
REMARK  status: ('A' for Active; 'I' for Inactive)
REMARK    1  A    between atoms: C_2  and  C_3
REMARK    2  A    between atoms: N_5  and  C_6
REMARK    3  A    between atoms: C_9  and  N_10
REMARK    4  A    between atoms: N_14  and  C_15
REMARK    5  A    between atoms: C_20  and  C_21
REMARK    6  A    between atoms: C_30  and  O_31
REMARK    7  A    between atoms: O_31  and  C_32
REMARK                            x       y       z     vdW  Elec       q    Type
REMARK                         _______ _______ _______ _____ _____    ______ ____
ROOT
ATOM      1  N   UNL     1       0.315  11.092  19.076  0.00  0.00    +0.000 N 
ATOM      2  C   UNL     1       0.973  12.320  18.938  0.00  0.00    +0.000 A 
ATOM      3  N   UNL     1       0.287  13.408  19.322  0.00  0.00    +0.000 NA
ATOM      4  C   UNL     1       0.833  14.651  19.211  0.00  0.00    +0.000 A 
ATOM      5  N   UNL     1       0.088  15.765  19.635  0.00  0.00    +0.000 N 
ATOM      6  C   UNL     1       2.112  14.758  18.645  0.00  0.00    +0.000 A 
ATOM      7  C   UNL     1       3.028  15.791  18.292  0.00  0.00    +0.000 A 
ATOM      8  C   UNL     1       4.159  15.191  17.768  0.00  0.00    +0.000 A 
ATOM      9  N   UNL     1       3.967  13.834  17.811  0.00  0.00    +0.000 N 
ATOM     10  C   UNL     1       2.726  13.565  18.313  0.00  0.00    +0.000 A 
ATOM     11  N   UNL     1       2.220  12.338  18.441  0.00  0.00    +0.000 NA
ATOM     12  H   UNL     1      -0.548  11.232  19.584  0.00  0.00    +0.000 HD
ATOM     13  H   UNL     1       0.588  16.641  19.560  0.00  0.00    +0.000 HD
ATOM     14  H   UNL     1       4.614  13.120  17.506  0.00  0.00    +0.000 HD
ENDROOT
BRANCH   1  18
ATOM     15  C   UNL     1       2.154   7.353  19.844  0.00  0.00    +0.000 A 
ATOM     16  C   UNL     1       2.166   7.914  18.570  0.00  0.00    +0.000 A 
ATOM     17  C   UNL     1       1.577   9.149  18.332  0.00  0.00    +0.000 A 
ATOM     18  C   UNL     1       0.940   9.857  19.353  0.00  0.00    +0.000 A 
ATOM     19  C   UNL     1       0.983   9.334  20.663  0.00  0.00    +0.000 A 
ATOM     20  C   UNL     1       1.556   8.067  20.892  0.00  0.00    +0.000 A 
BRANCH  15  23
ATOM     21  C   UNL     1       1.969   4.949  20.427  0.00  0.00    +0.000 C 
ATOM     22  O   UNL     1       0.749   4.846  20.424  0.00  0.00    +0.000 OA
ATOM     23  N   UNL     1       2.704   6.076  20.111  0.00  0.00    +0.000 N 
ATOM     24  H   UNL     1       3.708   5.987  20.026  0.00  0.00    +0.000 HD
BRANCH  21  26
ATOM     25  C   UNL     1       2.280   2.798  21.518  0.00  0.00    +0.000 C 
ATOM     26  C   UNL     1       2.812   3.771  20.764  0.00  0.00    +0.000 C 
ENDBRANCH  21  26
ENDBRANCH  15  23
BRANCH  19  27
ATOM     27  O   UNL     1       0.392  10.097  21.640  0.00  0.00    +0.000 OA
ATOM     28  C   UNL     1      -0.079   9.405  22.791  0.00  0.00    +0.000 C 
ENDBRANCH  19  27
ENDBRANCH   1  18
BRANCH   5  29
ATOM     29  C   UNL     1      -0.837  15.768  20.711  0.00  0.00    +0.000 A 
ATOM     30  C   UNL     1      -2.219  15.732  20.443  0.00  0.00    +0.000 A 
ATOM     31  C   UNL     1      -3.163  15.709  21.471  0.00  0.00    +0.000 A 
ATOM     32  C   UNL     1      -2.743  15.694  22.795  0.00  0.00    +0.000 A 
ATOM     33  C   UNL     1      -1.380  15.696  23.087  0.00  0.00    +0.000 A 
ATOM     34  C   UNL     1      -0.420  15.739  22.058  0.00  0.00    +0.000 A 
BRANCH  34  35
ATOM     35  C   UNL     1       1.005  15.806  22.492  0.00  0.00    +0.000 C 
ATOM     36  N   UNL     1       1.451  16.989  23.008  0.00  0.00    +0.000 N 
ATOM     37  O   UNL     1       1.743  14.830  22.439  0.00  0.00    +0.000 OA
ATOM     38  H   UNL     1       0.807  17.752  23.190  0.00  0.00    +0.000 HD
ATOM     39  H   UNL     1       2.363  17.000  23.443  0.00  0.00    +0.000 HD
ENDBRANCH  34  35
ENDBRANCH   5  29
TORSDOF 6
ENDMDL
MODEL 8
REMARK VINA RESULT:      -8.3      4.541      8.416
REMARK  Name = 
REMARK  7 active torsions:
REMARK  status: ('A' for Active; 'I' for Inactive)
REMARK    1  A    between atoms: C_2  and  C_3
REMARK    2  A    between atoms: N_5  and  C_6
REMARK    3  A    between atoms: C_9  and  N_10
REMARK    4  A    between atoms: N_14  and  C_15
REMARK    5  A    between atoms: C_20  and  C_21
REMARK    6  A    between atoms: C_30  and  O_31
REMARK    7  A    between atoms: O_31  and  C_32
REMARK                            x       y       z     vdW  Elec       q    Type
REMARK                         _______ _______ _______ _____ _____    ______ ____
ROOT
ATOM      1  N   UNL     1      -0.577  10.586  18.990  0.00  0.00    +0.000 N 
ATOM      2  C   UNL     1      -0.387  11.961  19.171  0.00  0.00    +0.000 A 
ATOM      3  N   UNL     1      -1.396  12.628  19.754  0.00  0.00    +0.000 NA
ATOM      4  C   UNL     1      -1.315  13.972  19.960  0.00  0.00    +0.000 A 
ATOM      5  N   UNL     1      -2.388  14.634  20.584  0.00  0.00    +0.000 N 
ATOM      6  C   UNL     1      -0.167  14.638  19.506  0.00  0.00    +0.000 A 
ATOM      7  C   UNL     1       0.327  15.973  19.449  0.00  0.00    +0.000 A 
ATOM      8  C   UNL     1       1.581  15.935  18.867  0.00  0.00    +0.000 A 
ATOM      9  N   UNL     1       1.870  14.624  18.589  0.00  0.00    +0.000 N 
ATOM     10  C   UNL     1       0.811  13.838  18.946  0.00  0.00    +0.000 A 
ATOM     11  N   UNL     1       0.763  12.518  18.763  0.00  0.00    +0.000 NA
ATOM     12  H   UNL     1      -1.423  10.301  19.467  0.00  0.00    +0.000 HD
ATOM     13  H   UNL     1      -2.222  15.620  20.738  0.00  0.00    +0.000 HD
ATOM     14  H   UNL     1       2.715  14.265  18.167  0.00  0.00    +0.000 HD
ENDROOT
BRANCH   1  18
ATOM     15  C   UNL     1       2.450   7.623  18.995  0.00  0.00    +0.000 A 
ATOM     16  C   UNL     1       2.123   8.317  17.833  0.00  0.00    +0.000 A 
ATOM     17  C   UNL     1       1.142   9.300  17.845  0.00  0.00    +0.000 A 
ATOM     18  C   UNL     1       0.442   9.610  19.013  0.00  0.00    +0.000 A 
ATOM     19  C   UNL     1       0.812   8.965  20.213  0.00  0.00    +0.000 A 
ATOM     20  C   UNL     1       1.787   7.948  20.186  0.00  0.00    +0.000 A 
BRANCH  15  23
ATOM     21  C   UNL     1       3.119   5.234  18.927  0.00  0.00    +0.000 C 
ATOM     22  O   UNL     1       2.019   4.735  18.731  0.00  0.00    +0.000 OA
ATOM     23  N   UNL     1       3.412   6.583  19.007  0.00  0.00    +0.000 N 
ATOM     24  H   UNL     1       4.383   6.864  19.040  0.00  0.00    +0.000 HD
BRANCH  21  26
ATOM     25  C   UNL     1       5.526   4.940  19.113  0.00  0.00    +0.000 C 
ATOM     26  C   UNL     1       4.316   4.363  19.071  0.00  0.00    +0.000 C 
ENDBRANCH  21  26
ENDBRANCH  15  23
BRANCH  19  27
ATOM     27  O   UNL     1       0.132   9.347  21.342  0.00  0.00    +0.000 OA
ATOM     28  C   UNL     1       0.855   9.302  22.567  0.00  0.00    +0.000 C 
ENDBRANCH  19  27
ENDBRANCH   1  18
BRANCH   5  29
ATOM     29  C   UNL     1      -3.227  14.071  21.578  0.00  0.00    +0.000 A 
ATOM     30  C   UNL     1      -2.829  14.105  22.929  0.00  0.00    +0.000 A 
ATOM     31  C   UNL     1      -3.635  13.585  23.943  0.00  0.00    +0.000 A 
ATOM     32  C   UNL     1      -4.874  13.042  23.630  0.00  0.00    +0.000 A 
ATOM     33  C   UNL     1      -5.307  13.024  22.305  0.00  0.00    +0.000 A 
ATOM     34  C   UNL     1      -4.493  13.529  21.273  0.00  0.00    +0.000 A 
BRANCH  34  35
ATOM     35  C   UNL     1      -5.031  13.396  19.889  0.00  0.00    +0.000 C 
ATOM     36  N   UNL     1      -4.499  12.419  19.097  0.00  0.00    +0.000 N 
ATOM     37  O   UNL     1      -5.950  14.097  19.483  0.00  0.00    +0.000 OA
ATOM     38  H   UNL     1      -3.844  11.743  19.476  0.00  0.00    +0.000 HD
ATOM     39  H   UNL     1      -4.957  12.221  18.218  0.00  0.00    +0.000 HD
ENDBRANCH  34  35
ENDBRANCH   5  29
TORSDOF 6
ENDMDL
MODEL 9
REMARK VINA RESULT:      -8.3      3.274      5.875
REMARK  Name = 
REMARK  7 active torsions:
REMARK  status: ('A' for Active; 'I' for Inactive)
REMARK    1  A    between atoms: C_2  and  C_3
REMARK    2  A    between atoms: N_5  and  C_6
REMARK    3  A    between atoms: C_9  and  N_10
REMARK    4  A    between atoms: N_14  and  C_15
REMARK    5  A    between atoms: C_20  and  C_21
REMARK    6  A    between atoms: C_30  and  O_31
REMARK    7  A    between atoms: O_31  and  C_32
REMARK                            x       y       z     vdW  Elec       q    Type
REMARK                         _______ _______ _______ _____ _____    ______ ____
ROOT
ATOM      1  N   UNL     1       1.387   9.021  19.605  0.00  0.00    +0.000 N 
ATOM      2  C   UNL     1       0.338   9.755  19.037  0.00  0.00    +0.000 A 
ATOM      3  N   UNL     1       0.098  10.962  19.575  0.00  0.00    +0.000 NA
ATOM      4  C   UNL     1      -0.912  11.745  19.106  0.00  0.00    +0.000 A 
ATOM      5  N   UNL     1      -1.125  13.008  19.687  0.00  0.00    +0.000 N 
ATOM      6  C   UNL     1      -1.714  11.234  18.075  0.00  0.00    +0.000 A 
ATOM      7  C   UNL     1      -2.860  11.637  17.329  0.00  0.00    +0.000 A 
ATOM      8  C   UNL     1      -3.145  10.635  16.419  0.00  0.00    +0.000 A 
ATOM      9  N   UNL     1      -2.201   9.653  16.574  0.00  0.00    +0.000 N 
ATOM     10  C   UNL     1      -1.351   9.993  17.588  0.00  0.00    +0.000 A 
ATOM     11  N   UNL     1      -0.349   9.224  18.015  0.00  0.00    +0.000 NA
ATOM     12  H   UNL     1       1.884   9.606  20.262  0.00  0.00    +0.000 HD
ATOM     13  H   UNL     1      -1.864  13.539  19.246  0.00  0.00    +0.000 HD
ATOM     14  H   UNL     1      -2.131   8.791  16.051  0.00  0.00    +0.000 HD
ENDROOT
BRANCH   1  18
ATOM     15  C   UNL     1       3.848   6.323  17.458  0.00  0.00    +0.000 A 
ATOM     16  C   UNL     1       3.685   7.640  17.038  0.00  0.00    +0.000 A 
ATOM     17  C   UNL     1       2.891   8.522  17.759  0.00  0.00    +0.000 A 
ATOM     18  C   UNL     1       2.218   8.115  18.912  0.00  0.00    +0.000 A 
ATOM     19  C   UNL     1       2.431   6.804  19.389  0.00  0.00    +0.000 A 
ATOM     20  C   UNL     1       3.214   5.906  18.637  0.00  0.00    +0.000 A 
BRANCH  15  23
ATOM     21  C   UNL     1       5.908   5.590  16.285  0.00  0.00    +0.000 C 
ATOM     22  O   UNL     1       6.626   6.546  16.548  0.00  0.00    +0.000 OA
ATOM     23  N   UNL     1       4.612   5.385  16.722  0.00  0.00    +0.000 N 
ATOM     24  H   UNL     1       4.179   4.490  16.539  0.00  0.00    +0.000 HD
BRANCH  21  26
ATOM     25  C   UNL     1       5.798   4.201  14.292  0.00  0.00    +0.000 C 
ATOM     26  C   UNL     1       6.428   4.479  15.443  0.00  0.00    +0.000 C 
ENDBRANCH  21  26
ENDBRANCH  15  23
BRANCH  19  27
ATOM     27  O   UNL     1       1.792   6.472  20.558  0.00  0.00    +0.000 OA
ATOM     28  C   UNL     1       1.630   5.084  20.823  0.00  0.00    +0.000 C 
ENDBRANCH  19  27
ENDBRANCH   1  18
BRANCH   5  29
ATOM     29  C   UNL     1      -0.111  13.843  20.220  0.00  0.00    +0.000 A 
ATOM     30  C   UNL     1       0.689  14.611  19.351  0.00  0.00    +0.000 A 
ATOM     31  C   UNL     1       1.683  15.464  19.834  0.00  0.00    +0.000 A 
ATOM     32  C   UNL     1       1.880  15.591  21.202  0.00  0.00    +0.000 A 
ATOM     33  C   UNL     1       1.081  14.867  22.086  0.00  0.00    +0.000 A 
ATOM     34  C   UNL     1       0.089  13.988  21.608  0.00  0.00    +0.000 A 
BRANCH  34  35
ATOM     35  C   UNL     1      -0.657  13.217  22.644  0.00  0.00    +0.000 C 
ATOM     36  N   UNL     1      -1.573  13.896  23.396  0.00  0.00    +0.000 N 
ATOM     37  O   UNL     1      -0.500  12.011  22.789  0.00  0.00    +0.000 OA
ATOM     38  H   UNL     1      -1.812  14.857  23.180  0.00  0.00    +0.000 HD
ATOM     39  H   UNL     1      -2.188  13.357  23.990  0.00  0.00    +0.000 HD
ENDBRANCH  34  35
ENDBRANCH   5  29
TORSDOF 6
ENDMDL
