MODEL 1
REMARK VINA RESULT:      -7.5      0.000      0.000
REMARK  Name = 
REMARK  5 active torsions:
REMARK  status: ('A' for Active; 'I' for Inactive)
REMARK    1  A    between atoms: C_1  and  C_2
REMARK    2  A    between atoms: C_2  and  C_3
REMARK    3  A    between atoms: C_2  and  C_11
REMARK    4  A    between atoms: C_3  and  C_4
REMARK    5  A    between atoms: C_4  and  C_5
REMARK                            x       y       z     vdW  Elec       q    Type
REMARK                         _______ _______ _______ _____ _____    ______ ____
ROOT
ATOM      1  C   UNL     1       4.295   7.037  17.655  0.00  0.00    +0.000 C 
ENDROOT
BRANCH   1   3
ATOM      2  C   UNL     1       2.109   8.330  17.975  0.00  0.00    +0.000 C 
ATOM      3  C   UNL     1       2.749   6.974  17.645  0.00  0.00    +0.000 C 
BRANCH   3   4
ATOM      4  C   UNL     1       2.229   5.824  18.500  0.00  0.00    +0.000 A 
ATOM      5  C   UNL     1       1.796   4.643  17.872  0.00  0.00    +0.000 A 
ATOM      6  C   UNL     1       1.370   3.549  18.627  0.00  0.00    +0.000 A 
ATOM      7  C   UNL     1       1.376   3.628  20.013  0.00  0.00    +0.000 A 
ATOM      8  F   UNL     1       0.980   2.575  20.739  0.00  0.00    +0.000 F 
ATOM      9  C   UNL     1       1.799   4.782  20.658  0.00  0.00    +0.000 A 
ATOM     10  C   UNL     1       2.221   5.877  19.904  0.00  0.00    +0.000 A 
ENDBRANCH   3   4
ENDBRANCH   1   3
BRANCH   1  11
ATOM     11  C   UNL     1       4.951   6.743  16.297  0.00  0.00    +0.000 C 
BRANCH  11  12
ATOM     12  C   UNL     1       5.278   5.260  16.093  0.00  0.00    +0.000 C 
ATOM     13  C   UNL     1       6.323   5.069  15.002  0.00  0.00    +0.000 C 
ATOM     14  O   UNL     1       7.533   4.825  15.703  0.00  0.00    +0.000 OA
ATOM     15  C   UNL     1       7.149   4.584  16.975  0.00  0.00    +0.000 C 
ATOM     16  N   UNL     1       8.156   4.181  17.770  0.00  0.00    +0.000 N 
ATOM     17  N   UNL     1       5.912   4.721  17.307  0.00  0.00    +0.000 NA
ATOM     18  H   UNL     1       8.934   3.756  17.286  0.00  0.00    +0.000 HD
ATOM     19  H   UNL     1       7.849   3.702  18.606  0.00  0.00    +0.000 HD
ENDBRANCH  11  12
ENDBRANCH   1  11
TORSDOF 4
ENDMDL
MODEL 2
REMARK VINA RESULT:      -7.4      1.460      2.030
REMARK  Name = 
REMARK  5 active torsions:
REMARK  status: ('A' for Active; 'I' for Inactive)
REMARK    1  A    between atoms: C_1  and  C_2
REMARK    2  A    between atoms: C_2  and  C_3
REMARK    3  A    between atoms: C_2  and  C_11
REMARK    4  A    between atoms: C_3  and  C_4
REMARK    5  A    between atoms: C_4  and  C_5
REMARK                            x       y       z     vdW  Elec       q    Type
REMARK                         _______ _______ _______ _____ _____    ______ ____
ROOT
ATOM      1  C   UNL     1       4.649   6.758  17.543  0.00  0.00    +0.000 C 
ENDROOT
BRANCH   1   3
ATOM      2  C   UNL     1       2.576   8.233  17.820  0.00  0.00    +0.000 C 
ATOM      3  C   UNL     1       3.103   6.817  17.548  0.00  0.00    +0.000 C 
BRANCH   3   4
ATOM      4  C   UNL     1       2.504   5.753  18.459  0.00  0.00    +0.000 A 
ATOM      5  C   UNL     1       2.542   5.942  19.852  0.00  0.00    +0.000 A 
ATOM      6  C   UNL     1       1.951   5.016  20.714  0.00  0.00    +0.000 A 
ATOM      7  C   UNL     1       1.318   3.898  20.188  0.00  0.00    +0.000 A 
ATOM      8  F   UNL     1       0.739   3.016  21.013  0.00  0.00    +0.000 F 
ATOM      9  C   UNL     1       1.265   3.688  18.818  0.00  0.00    +0.000 A 
ATOM     10  C   UNL     1       1.859   4.610  17.956  0.00  0.00    +0.000 A 
ENDBRANCH   3   4
ENDBRANCH   1   3
BRANCH   1  11
ATOM     11  C   UNL     1       5.229   5.347  17.365  0.00  0.00    +0.000 C 
BRANCH  11  12
ATOM     12  C   UNL     1       6.756   5.333  17.228  0.00  0.00    +0.000 C 
ATOM     13  C   UNL     1       7.333   6.737  17.343  0.00  0.00    +0.000 C 
ATOM     14  O   UNL     1       7.856   6.803  18.661  0.00  0.00    +0.000 OA
ATOM     15  C   UNL     1       7.865   5.522  19.090  0.00  0.00    +0.000 C 
ATOM     16  N   UNL     1       8.473   5.360  20.279  0.00  0.00    +0.000 N 
ATOM     17  N   UNL     1       7.348   4.598  18.356  0.00  0.00    +0.000 NA
ATOM     18  H   UNL     1       9.144   6.078  20.513  0.00  0.00    +0.000 HD
ATOM     19  H   UNL     1       8.768   4.411  20.461  0.00  0.00    +0.000 HD
ENDBRANCH  11  12
ENDBRANCH   1  11
TORSDOF 4
ENDMDL
MODEL 3
REMARK VINA RESULT:      -7.4      1.589      1.994
REMARK  Name = 
REMARK  5 active torsions:
REMARK  status: ('A' for Active; 'I' for Inactive)
REMARK    1  A    between atoms: C_1  and  C_2
REMARK    2  A    between atoms: C_2  and  C_3
REMARK    3  A    between atoms: C_2  and  C_11
REMARK    4  A    between atoms: C_3  and  C_4
REMARK    5  A    between atoms: C_4  and  C_5
REMARK                            x       y       z     vdW  Elec       q    Type
REMARK                         _______ _______ _______ _____ _____    ______ ____
ROOT
ATOM      1  C   UNL     1       4.358   4.500  17.145  0.00  0.00    +0.000 C 
ENDROOT
BRANCH   1   3
ATOM      2  C   UNL     1       3.468   6.764  17.935  0.00  0.00    +0.000 C 
ATOM      3  C   UNL     1       3.137   5.288  17.675  0.00  0.00    +0.000 C 
BRANCH   3   4
ATOM      4  C   UNL     1       2.487   4.585  18.860  0.00  0.00    +0.000 A 
ATOM      5  C   UNL     1       1.763   3.399  18.642  0.00  0.00    +0.000 A 
ATOM      6  C   UNL     1       1.205   2.698  19.712  0.00  0.00    +0.000 A 
ATOM      7  C   UNL     1       1.368   3.175  21.005  0.00  0.00    +0.000 A 
ATOM      8  F   UNL     1       0.845   2.496  22.033  0.00  0.00    +0.000 F 
ATOM      9  C   UNL     1       2.079   4.342  21.248  0.00  0.00    +0.000 A 
ATOM     10  C   UNL     1       2.633   5.047  20.179  0.00  0.00    +0.000 A 
ENDBRANCH   3   4
ENDBRANCH   1   3
BRANCH   1  11
ATOM     11  C   UNL     1       5.504   4.347  18.158  0.00  0.00    +0.000 C 
BRANCH  11  12
ATOM     12  C   UNL     1       6.884   4.633  17.557  0.00  0.00    +0.000 C 
ATOM     13  C   UNL     1       6.783   4.977  16.078  0.00  0.00    +0.000 C 
ATOM     14  O   UNL     1       6.915   6.390  16.028  0.00  0.00    +0.000 OA
ATOM     15  C   UNL     1       7.357   6.736  17.257  0.00  0.00    +0.000 C 
ATOM     16  N   UNL     1       7.687   8.036  17.359  0.00  0.00    +0.000 N 
ATOM     17  N   UNL     1       7.453   5.841  18.178  0.00  0.00    +0.000 NA
ATOM     18  H   UNL     1       7.926   8.482  16.485  0.00  0.00    +0.000 HD
ATOM     19  H   UNL     1       8.300   8.241  18.136  0.00  0.00    +0.000 HD
ENDBRANCH  11  12
ENDBRANCH   1  11
TORSDOF 4
ENDMDL
MODEL 4
REMARK VINA RESULT:      -7.3      1.402      1.752
REMARK  Name = 
REMARK  5 active torsions:
REMARK  status: ('A' for Active; 'I' for Inactive)
REMARK    1  A    between atoms: C_1  and  C_2
REMARK    2  A    between atoms: C_2  and  C_3
REMARK    3  A    between atoms: C_2  and  C_11
REMARK    4  A    between atoms: C_3  and  C_4
REMARK    5  A    between atoms: C_4  and  C_5
REMARK                            x       y       z     vdW  Elec       q    Type
REMARK                         _______ _______ _______ _____ _____    ______ ____
ROOT
ATOM      1  C   UNL     1       4.224   5.470  17.313  0.00  0.00    +0.000 C 
ENDROOT
BRANCH   1   3
ATOM      2  C   UNL     1       2.841   7.452  18.152  0.00  0.00    +0.000 C 
ATOM      3  C   UNL     1       2.838   5.960  17.796  0.00  0.00    +0.000 C 
BRANCH   3   4
ATOM      4  C   UNL     1       2.279   5.065  18.896  0.00  0.00    +0.000 A 
ATOM      5  C   UNL     1       1.490   3.956  18.543  0.00  0.00    +0.000 A 
ATOM      6  C   UNL     1       1.011   3.083  19.522  0.00  0.00    +0.000 A 
ATOM      7  C   UNL     1       1.320   3.312  20.856  0.00  0.00    +0.000 A 
ATOM      8  F   UNL     1       0.872   2.467  21.794  0.00  0.00    +0.000 F 
ATOM      9  C   UNL     1       2.097   4.398  21.230  0.00  0.00    +0.000 A 
ATOM     10  C   UNL     1       2.572   5.274  20.254  0.00  0.00    +0.000 A 
ENDBRANCH   3   4
ENDBRANCH   1   3
BRANCH   1  11
ATOM     11  C   UNL     1       5.301   5.434  18.409  0.00  0.00    +0.000 C 
BRANCH  11  12
ATOM     12  C   UNL     1       6.668   5.935  17.930  0.00  0.00    +0.000 C 
ATOM     13  C   UNL     1       7.714   4.831  17.993  0.00  0.00    +0.000 C 
ATOM     14  O   UNL     1       7.855   4.392  16.650  0.00  0.00    +0.000 OA
ATOM     15  C   UNL     1       7.230   5.337  15.914  0.00  0.00    +0.000 C 
ATOM     16  N   UNL     1       7.386   5.171  14.589  0.00  0.00    +0.000 N 
ATOM     17  N   UNL     1       6.593   6.289  16.503  0.00  0.00    +0.000 NA
ATOM     18  H   UNL     1       8.204   4.643  14.321  0.00  0.00    +0.000 HD
ATOM     19  H   UNL     1       7.211   6.008  14.050  0.00  0.00    +0.000 HD
ENDBRANCH  11  12
ENDBRANCH   1  11
TORSDOF 4
ENDMDL
MODEL 5
REMARK VINA RESULT:      -7.2      3.053      4.778
REMARK  Name = 
REMARK  5 active torsions:
REMARK  status: ('A' for Active; 'I' for Inactive)
REMARK    1  A    between atoms: C_1  and  C_2
REMARK    2  A    between atoms: C_2  and  C_3
REMARK    3  A    between atoms: C_2  and  C_11
REMARK    4  A    between atoms: C_3  and  C_4
REMARK    5  A    between atoms: C_4  and  C_5
REMARK                            x       y       z     vdW  Elec       q    Type
REMARK                         _______ _______ _______ _____ _____    ______ ____
ROOT
ATOM      1  C   UNL     1       1.907   5.178  18.016  0.00  0.00    +0.000 C 
ENDROOT
BRANCH   1   3
ATOM      2  C   UNL     1       2.650   7.618  17.808  0.00  0.00    +0.000 C 
ATOM      3  C   UNL     1       2.971   6.236  18.394  0.00  0.00    +0.000 C 
BRANCH   3   4
ATOM      4  C   UNL     1       4.381   5.748  18.083  0.00  0.00    +0.000 A 
ATOM      5  C   UNL     1       5.270   5.499  19.144  0.00  0.00    +0.000 A 
ATOM      6  C   UNL     1       6.549   4.996  18.898  0.00  0.00    +0.000 A 
ATOM      7  C   UNL     1       6.945   4.737  17.594  0.00  0.00    +0.000 A 
ATOM      8  F   UNL     1       8.167   4.242  17.358  0.00  0.00    +0.000 F 
ATOM      9  C   UNL     1       6.087   4.974  16.529  0.00  0.00    +0.000 A 
ATOM     10  C   UNL     1       4.811   5.481  16.772  0.00  0.00    +0.000 A 
ENDBRANCH   3   4
ENDBRANCH   1   3
BRANCH   1  11
ATOM     11  C   UNL     1       1.458   4.285  19.183  0.00  0.00    +0.000 C 
BRANCH  11  12
ATOM     12  C   UNL     1       1.747   2.797  18.952  0.00  0.00    +0.000 C 
ATOM     13  C   UNL     1       2.475   2.574  17.634  0.00  0.00    +0.000 C 
ATOM     14  O   UNL     1       3.830   2.366  18.004  0.00  0.00    +0.000 OA
ATOM     15  C   UNL     1       3.794   2.170  19.340  0.00  0.00    +0.000 C 
ATOM     16  N   UNL     1       4.980   1.805  19.859  0.00  0.00    +0.000 N 
ATOM     17  N   UNL     1       2.684   2.310  19.977  0.00  0.00    +0.000 NA
ATOM     18  H   UNL     1       5.613   1.368  19.203  0.00  0.00    +0.000 HD
ATOM     19  H   UNL     1       4.910   1.356  20.762  0.00  0.00    +0.000 HD
ENDBRANCH  11  12
ENDBRANCH   1  11
TORSDOF 4
ENDMDL
MODEL 6
REMARK VINA RESULT:      -7.2      1.456      1.658
REMARK  Name = 
REMARK  5 active torsions:
REMARK  status: ('A' for Active; 'I' for Inactive)
REMARK    1  A    between atoms: C_1  and  C_2
REMARK    2  A    between atoms: C_2  and  C_3
REMARK    3  A    between atoms: C_2  and  C_11
REMARK    4  A    between atoms: C_3  and  C_4
REMARK    5  A    between atoms: C_4  and  C_5
REMARK                            x       y       z     vdW  Elec       q    Type
REMARK                         _______ _______ _______ _____ _____    ______ ____
ROOT
ATOM      1  C   UNL     1       4.824   6.504  17.820  0.00  0.00    +0.000 C 
ENDROOT
BRANCH   1   3
ATOM      2  C   UNL     1       2.809   8.080  17.787  0.00  0.00    +0.000 C 
ATOM      3  C   UNL     1       3.294   6.632  17.633  0.00  0.00    +0.000 C 
BRANCH   3   4
ATOM      4  C   UNL     1       2.537   5.634  18.502  0.00  0.00    +0.000 A 
ATOM      5  C   UNL     1       2.025   4.463  17.915  0.00  0.00    +0.000 A 
ATOM      6  C   UNL     1       1.379   3.500  18.692  0.00  0.00    +0.000 A 
ATOM      7  C   UNL     1       1.244   3.700  20.059  0.00  0.00    +0.000 A 
ATOM      8  F   UNL     1       0.636   2.771  20.808  0.00  0.00    +0.000 F 
ATOM      9  C   UNL     1       1.741   4.846  20.663  0.00  0.00    +0.000 A 
ATOM     10  C   UNL     1       2.383   5.811  19.887  0.00  0.00    +0.000 A 
ENDBRANCH   3   4
ENDBRANCH   1   3
BRANCH   1  11
ATOM     11  C   UNL     1       5.507   5.552  16.825  0.00  0.00    +0.000 C 
BRANCH  11  12
ATOM     12  C   UNL     1       7.036   5.566  16.927  0.00  0.00    +0.000 C 
ATOM     13  C   UNL     1       7.555   6.957  17.265  0.00  0.00    +0.000 C 
ATOM     14  O   UNL     1       7.866   6.897  18.650  0.00  0.00    +0.000 OA
ATOM     15  C   UNL     1       7.839   5.579  18.949  0.00  0.00    +0.000 C 
ATOM     16  N   UNL     1       8.260   5.307  20.198  0.00  0.00    +0.000 N 
ATOM     17  N   UNL     1       7.464   4.728  18.058  0.00  0.00    +0.000 NA
ATOM     18  H   UNL     1       8.869   6.004  20.601  0.00  0.00    +0.000 HD
ATOM     19  H   UNL     1       8.546   4.347  20.331  0.00  0.00    +0.000 HD
ENDBRANCH  11  12
ENDBRANCH   1  11
TORSDOF 4
ENDMDL
MODEL 7
REMARK VINA RESULT:      -7.2      1.592      2.343
REMARK  Name = 
REMARK  5 active torsions:
REMARK  status: ('A' for Active; 'I' for Inactive)
REMARK    1  A    between atoms: C_1  and  C_2
REMARK    2  A    between atoms: C_2  and  C_3
REMARK    3  A    between atoms: C_2  and  C_11
REMARK    4  A    between atoms: C_3  and  C_4
REMARK    5  A    between atoms: C_4  and  C_5
REMARK                            x       y       z     vdW  Elec       q    Type
REMARK                         _______ _______ _______ _____ _____    ______ ____
ROOT
ATOM      1  C   UNL     1       4.355   4.457  17.090  0.00  0.00    +0.000 C 
ENDROOT
BRANCH   1   3
ATOM      2  C   UNL     1       3.510   6.675  18.048  0.00  0.00    +0.000 C 
ATOM      3  C   UNL     1       3.160   5.219  17.713  0.00  0.00    +0.000 C 
BRANCH   3   4
ATOM      4  C   UNL     1       2.551   4.449  18.879  0.00  0.00    +0.000 A 
ATOM      5  C   UNL     1       2.755   4.915  20.190  0.00  0.00    +0.000 A 
ATOM      6  C   UNL     1       2.163   4.267  21.276  0.00  0.00    +0.000 A 
ATOM      7  C   UNL     1       1.363   3.154  21.058  0.00  0.00    +0.000 A 
ATOM      8  F   UNL     1       0.783   2.541  22.098  0.00  0.00    +0.000 F 
ATOM      9  C   UNL     1       1.144   2.675  19.775  0.00  0.00    +0.000 A 
ATOM     10  C   UNL     1       1.739   3.318  18.689  0.00  0.00    +0.000 A 
ENDBRANCH   3   4
ENDBRANCH   1   3
BRANCH   1  11
ATOM     11  C   UNL     1       5.517   4.198  18.061  0.00  0.00    +0.000 C 
BRANCH  11  12
ATOM     12  C   UNL     1       6.888   4.540  17.468  0.00  0.00    +0.000 C 
ATOM     13  C   UNL     1       6.771   5.593  16.375  0.00  0.00    +0.000 C 
ATOM     14  O   UNL     1       7.186   6.801  16.995  0.00  0.00    +0.000 OA
ATOM     15  C   UNL     1       7.763   6.411  18.153  0.00  0.00    +0.000 C 
ATOM     16  N   UNL     1       8.359   7.417  18.818  0.00  0.00    +0.000 N 
ATOM     17  N   UNL     1       7.729   5.171  18.498  0.00  0.00    +0.000 NA
ATOM     18  H   UNL     1       8.631   8.202  18.244  0.00  0.00    +0.000 HD
ATOM     19  H   UNL     1       9.046   7.109  19.492  0.00  0.00    +0.000 HD
ENDBRANCH  11  12
ENDBRANCH   1  11
TORSDOF 4
ENDMDL
MODEL 8
REMARK VINA RESULT:      -7.2      1.548      1.827
REMARK  Name = 
REMARK  5 active torsions:
REMARK  status: ('A' for Active; 'I' for Inactive)
REMARK    1  A    between atoms: C_1  and  C_2
REMARK    2  A    between atoms: C_2  and  C_3
REMARK    3  A    between atoms: C_2  and  C_11
REMARK    4  A    between atoms: C_3  and  C_4
REMARK    5  A    between atoms: C_4  and  C_5
REMARK                            x       y       z     vdW  Elec       q    Type
REMARK                         _______ _______ _______ _____ _____    ______ ____
ROOT
ATOM      1  C   UNL     1       3.886   4.921  17.037  0.00  0.00    +0.000 C 
ENDROOT
BRANCH   1   3
ATOM      2  C   UNL     1       3.162   7.103  18.158  0.00  0.00    +0.000 C 
ATOM      3  C   UNL     1       2.760   5.668  17.791  0.00  0.00    +0.000 C 
BRANCH   3   4
ATOM      4  C   UNL     1       2.237   4.855  18.968  0.00  0.00    +0.000 A 
ATOM      5  C   UNL     1       1.391   3.759  18.723  0.00  0.00    +0.000 A 
ATOM      6  C   UNL     1       0.941   2.957  19.774  0.00  0.00    +0.000 A 
ATOM      7  C   UNL     1       1.337   3.243  21.073  0.00  0.00    +0.000 A 
ATOM      8  F   UNL     1       0.917   2.466  22.080  0.00  0.00    +0.000 F 
ATOM      9  C   UNL     1       2.172   4.318  21.342  0.00  0.00    +0.000 A 
ATOM     10  C   UNL     1       2.619   5.123  20.294  0.00  0.00    +0.000 A 
ENDBRANCH   3   4
ENDBRANCH   1   3
BRANCH   1  11
ATOM     11  C   UNL     1       5.308   5.344  17.438  0.00  0.00    +0.000 C 
BRANCH  11  12
ATOM     12  C   UNL     1       6.394   4.416  16.883  0.00  0.00    +0.000 C 
ATOM     13  C   UNL     1       5.835   3.488  15.813  0.00  0.00    +0.000 C 
ATOM     14  O   UNL     1       6.262   4.059  14.585  0.00  0.00    +0.000 OA
ATOM     15  C   UNL     1       7.194   4.971  14.937  0.00  0.00    +0.000 C 
ATOM     16  N   UNL     1       7.829   5.519  13.885  0.00  0.00    +0.000 N 
ATOM     17  N   UNL     1       7.414   5.213  16.182  0.00  0.00    +0.000 NA
ATOM     18  H   UNL     1       7.824   4.955  13.047  0.00  0.00    +0.000 HD
ATOM     19  H   UNL     1       8.715   5.944  14.120  0.00  0.00    +0.000 HD
ENDBRANCH  11  12
ENDBRANCH   1  11
TORSDOF 4
ENDMDL
MODEL 9
REMARK VINA RESULT:      -7.1      1.405      1.512
REMARK  Name = 
REMARK  5 active torsions:
REMARK  status: ('A' for Active; 'I' for Inactive)
REMARK    1  A    between atoms: C_1  and  C_2
REMARK    2  A    between atoms: C_2  and  C_3
REMARK    3  A    between atoms: C_2  and  C_11
REMARK    4  A    between atoms: C_3  and  C_4
REMARK    5  A    between atoms: C_4  and  C_5
REMARK                            x       y       z     vdW  Elec       q    Type
REMARK                         _______ _______ _______ _____ _____    ______ ____
ROOT
ATOM      1  C   UNL     1       4.403   6.772  17.590  0.00  0.00    +0.000 C 
ENDROOT
BRANCH   1   3
ATOM      2  C   UNL     1       2.423   8.295  18.142  0.00  0.00    +0.000 C 
ATOM      3  C   UNL     1       2.865   6.890  17.712  0.00  0.00    +0.000 C 
BRANCH   3   4
ATOM      4  C   UNL     1       2.283   5.773  18.570  0.00  0.00    +0.000 A 
ATOM      5  C   UNL     1       1.795   4.611  17.945  0.00  0.00    +0.000 A 
ATOM      6  C   UNL     1       1.309   3.544  18.703  0.00  0.00    +0.000 A 
ATOM      7  C   UNL     1       1.312   3.631  20.088  0.00  0.00    +0.000 A 
ATOM      8  F   UNL     1       0.859   2.603  20.818  0.00  0.00    +0.000 F 
ATOM      9  C   UNL     1       1.789   4.765  20.730  0.00  0.00    +0.000 A 
ATOM     10  C   UNL     1       2.271   5.833  19.974  0.00  0.00    +0.000 A 
ENDBRANCH   3   4
ENDBRANCH   1   3
BRANCH   1  11
ATOM     11  C   UNL     1       4.896   6.304  16.211  0.00  0.00    +0.000 C 
BRANCH  11  12
ATOM     12  C   UNL     1       6.070   5.322  16.290  0.00  0.00    +0.000 C 
ATOM     13  C   UNL     1       5.757   4.025  15.557  0.00  0.00    +0.000 C 
ATOM     14  O   UNL     1       6.454   4.133  14.324  0.00  0.00    +0.000 OA
ATOM     15  C   UNL     1       7.292   5.179  14.495  0.00  0.00    +0.000 C 
ATOM     16  N   UNL     1       8.152   5.346  13.475  0.00  0.00    +0.000 N 
ATOM     17  N   UNL     1       7.229   5.879  15.574  0.00  0.00    +0.000 NA
ATOM     18  H   UNL     1       8.330   4.514  12.930  0.00  0.00    +0.000 HD
ATOM     19  H   UNL     1       8.967   5.894  13.714  0.00  0.00    +0.000 HD
ENDBRANCH  11  12
ENDBRANCH   1  11
TORSDOF 4
ENDMDL
