MODEL 1
REMARK VINA RESULT:      -7.4      0.000      0.000
REMARK  Name = 
REMARK  7 active torsions:
REMARK  status: ('A' for Active; 'I' for Inactive)
REMARK    1  A    between atoms: C_1  and  C_2
REMARK    2  A    between atoms: C_2  and  O_3
REMARK    3  A    between atoms: O_3  and  C_4
REMARK    4  A    between atoms: C_4  and  C_6
REMARK    5  A    between atoms: C_6  and  N_7
REMARK    6  A    between atoms: C_9  and  N_10
REMARK    7  A    between atoms: C_22  and  O_23
REMARK                            x       y       z     vdW  Elec       q    Type
REMARK                         _______ _______ _______ _____ _____    ______ ____
ROOT
ATOM      1  N   UNL     1       5.420   3.700  18.888  0.00  0.00    +0.000 NA
ATOM      2  C   UNL     1       4.197   3.330  18.843  0.00  0.00    +0.000 C 
ATOM      3  C   UNL     1       2.789   3.808  18.954  0.00  0.00    +0.000 C 
ATOM      4  C   UNL     1       2.311   2.526  18.845  0.00  0.00    +0.000 C 
ATOM      5  C   UNL     1       3.672   1.965  18.724  0.00  0.00    +0.000 C 
ATOM      6  O   UNL     1       4.212   0.892  18.608  0.00  0.00    +0.000 OA
ENDROOT
BRANCH   3   7
ATOM      7  N   UNL     1       2.280   5.017  19.112  0.00  0.00    +0.000 N 
ATOM      8  C   UNL     1       1.369   5.361  20.243  0.00  0.00    +0.000 C 
ATOM      9  C   UNL     1       1.736   6.750  20.834  0.00  0.00    +0.000 C 
ATOM     10  N   UNL     1       1.706   7.726  19.740  0.00  0.00    +0.000 N 
ATOM     11  C   UNL     1       1.197   8.985  19.943  0.00  0.00    +0.000 A 
ATOM     12  C   UNL     1       0.706   9.718  18.862  0.00  0.00    +0.000 A 
ATOM     13  C   UNL     1       0.112  10.957  19.059  0.00  0.00    +0.000 A 
ATOM     14  C   UNL     1       0.034  11.464  20.344  0.00  0.00    +0.000 A 
ATOM     15  C   UNL     1       0.544  10.691  21.370  0.00  0.00    +0.000 A 
ATOM     16  N   UNL     1       1.101   9.468  21.198  0.00  0.00    +0.000 NA
ATOM     17  C   UNL     1       2.632   7.440  18.642  0.00  0.00    +0.000 C 
ATOM     18  C   UNL     1       2.269   6.056  18.050  0.00  0.00    +0.000 C 
ENDBRANCH   3   7
BRANCH   4  19
ATOM     19  O   UNL     1       1.137   2.010  18.819  0.00  0.00    +0.000 OA
ATOM     20  H   UNL     1       0.613   2.465  18.136  0.00  0.00    +0.000 HD
ENDBRANCH   4  19
BRANCH   1  21
ATOM     21  C   UNL     1       5.681   5.110  19.172  0.00  0.00    +0.000 C 
BRANCH  21  22
ATOM     22  C   UNL     1       7.164   5.398  19.305  0.00  0.00    +0.000 C 
ATOM     23  O   UNL     1       7.810   5.448  20.339  0.00  0.00    +0.000 OA
BRANCH  22  24
ATOM     24  O   UNL     1       7.637   5.731  18.062  0.00  0.00    +0.000 OA
BRANCH  24  26
ATOM     25  C   UNL     1       7.821   8.078  17.663  0.00  0.00    +0.000 C 
ATOM     26  C   UNL     1       6.977   6.836  17.436  0.00  0.00    +0.000 C 
ENDBRANCH  24  26
ENDBRANCH  22  24
ENDBRANCH  21  22
ENDBRANCH   1  21
TORSDOF 6
ENDMDL
MODEL 2
REMARK VINA RESULT:      -7.3      1.303      1.533
REMARK  Name = 
REMARK  7 active torsions:
REMARK  status: ('A' for Active; 'I' for Inactive)
REMARK    1  A    between atoms: C_1  and  C_2
REMARK    2  A    between atoms: C_2  and  O_3
REMARK    3  A    between atoms: O_3  and  C_4
REMARK    4  A    between atoms: C_4  and  C_6
REMARK    5  A    between atoms: C_6  and  N_7
REMARK    6  A    between atoms: C_9  and  N_10
REMARK    7  A    between atoms: C_22  and  O_23
REMARK                            x       y       z     vdW  Elec       q    Type
REMARK                         _______ _______ _______ _____ _____    ______ ____
ROOT
ATOM      1  N   UNL     1       5.708   4.314  18.798  0.00  0.00    +0.000 NA
ATOM      2  C   UNL     1       4.609   3.886  19.294  0.00  0.00    +0.000 C 
ATOM      3  C   UNL     1       3.229   4.286  19.690  0.00  0.00    +0.000 C 
ATOM      4  C   UNL     1       2.979   3.037  20.202  0.00  0.00    +0.000 C 
ATOM      5  C   UNL     1       4.327   2.553  19.841  0.00  0.00    +0.000 C 
ATOM      6  O   UNL     1       4.996   1.553  19.936  0.00  0.00    +0.000 OA
ENDROOT
BRANCH   3   7
ATOM      7  N   UNL     1       2.576   5.429  19.575  0.00  0.00    +0.000 N 
ATOM      8  C   UNL     1       1.684   5.955  20.649  0.00  0.00    +0.000 C 
ATOM      9  C   UNL     1       1.899   7.483  20.834  0.00  0.00    +0.000 C 
ATOM     10  N   UNL     1       1.690   8.126  19.533  0.00  0.00    +0.000 N 
ATOM     11  C   UNL     1       1.034   9.329  19.448  0.00  0.00    +0.000 A 
ATOM     12  C   UNL     1       0.401   9.692  18.258  0.00  0.00    +0.000 A 
ATOM     13  C   UNL     1      -0.337  10.864  18.178  0.00  0.00    +0.000 A 
ATOM     14  C   UNL     1      -0.418  11.681  19.293  0.00  0.00    +0.000 A 
ATOM     15  C   UNL     1       0.237  11.267  20.439  0.00  0.00    +0.000 A 
ATOM     16  N   UNL     1       0.937  10.112  20.541  0.00  0.00    +0.000 NA
ATOM     17  C   UNL     1       2.591   7.666  18.474  0.00  0.00    +0.000 C 
ATOM     18  C   UNL     1       2.382   6.144  18.286  0.00  0.00    +0.000 C 
ENDBRANCH   3   7
BRANCH   4  19
ATOM     19  O   UNL     1       1.959   2.484  20.748  0.00  0.00    +0.000 OA
ATOM     20  H   UNL     1       1.464   1.999  20.063  0.00  0.00    +0.000 HD
ENDBRANCH   4  19
BRANCH   1  21
ATOM     21  C   UNL     1       5.780   5.736  18.468  0.00  0.00    +0.000 C 
BRANCH  21  22
ATOM     22  C   UNL     1       5.904   5.967  16.974  0.00  0.00    +0.000 C 
ATOM     23  O   UNL     1       5.152   5.559  16.105  0.00  0.00    +0.000 OA
BRANCH  22  24
ATOM     24  O   UNL     1       7.095   6.608  16.749  0.00  0.00    +0.000 OA
BRANCH  24  26
ATOM     25  C   UNL     1       7.960   8.627  17.688  0.00  0.00    +0.000 C 
ATOM     26  C   UNL     1       7.727   7.144  17.917  0.00  0.00    +0.000 C 
ENDBRANCH  24  26
ENDBRANCH  22  24
ENDBRANCH  21  22
ENDBRANCH   1  21
TORSDOF 6
ENDMDL
MODEL 3
REMARK VINA RESULT:      -7.3      2.062      4.504
REMARK  Name = 
REMARK  7 active torsions:
REMARK  status: ('A' for Active; 'I' for Inactive)
REMARK    1  A    between atoms: C_1  and  C_2
REMARK    2  A    between atoms: C_2  and  O_3
REMARK    3  A    between atoms: O_3  and  C_4
REMARK    4  A    between atoms: C_4  and  C_6
REMARK    5  A    between atoms: C_6  and  N_7
REMARK    6  A    between atoms: C_9  and  N_10
REMARK    7  A    between atoms: C_22  and  O_23
REMARK                            x       y       z     vdW  Elec       q    Type
REMARK                         _______ _______ _______ _____ _____    ______ ____
ROOT
ATOM      1  N   UNL     1       3.151   3.387  17.020  0.00  0.00    +0.000 NA
ATOM      2  C   UNL     1       4.009   4.334  16.967  0.00  0.00    +0.000 C 
ATOM      3  C   UNL     1       4.293   5.729  17.412  0.00  0.00    +0.000 C 
ATOM      4  C   UNL     1       5.451   5.762  16.675  0.00  0.00    +0.000 C 
ATOM      5  C   UNL     1       5.252   4.381  16.188  0.00  0.00    +0.000 C 
ATOM      6  O   UNL     1       5.786   3.582  15.459  0.00  0.00    +0.000 OA
ENDROOT
BRANCH   3   7
ATOM      7  N   UNL     1       3.627   6.555  18.199  0.00  0.00    +0.000 N 
ATOM      8  C   UNL     1       3.358   7.974  17.827  0.00  0.00    +0.000 C 
ATOM      9  C   UNL     1       1.901   8.366  18.197  0.00  0.00    +0.000 C 
ATOM     10  N   UNL     1       1.710   8.089  19.624  0.00  0.00    +0.000 N 
ATOM     11  C   UNL     1       0.988   8.951  20.411  0.00  0.00    +0.000 A 
ATOM     12  C   UNL     1       1.211   8.987  21.789  0.00  0.00    +0.000 A 
ATOM     13  C   UNL     1       0.552   9.910  22.589  0.00  0.00    +0.000 A 
ATOM     14  C   UNL     1      -0.348  10.781  22.001  0.00  0.00    +0.000 A 
ATOM     15  C   UNL     1      -0.529  10.691  20.633  0.00  0.00    +0.000 A 
ATOM     16  N   UNL     1       0.128   9.815  19.835  0.00  0.00    +0.000 NA
ATOM     17  C   UNL     1       1.916   6.690  20.007  0.00  0.00    +0.000 C 
ATOM     18  C   UNL     1       3.367   6.295  19.639  0.00  0.00    +0.000 C 
ENDBRANCH   3   7
BRANCH   4  19
ATOM     19  O   UNL     1       6.375   6.634  16.503  0.00  0.00    +0.000 OA
ATOM     20  H   UNL     1       6.342   7.271  17.238  0.00  0.00    +0.000 HD
ENDBRANCH   4  19
BRANCH   1  21
ATOM     21  C   UNL     1       1.912   3.651  17.749  0.00  0.00    +0.000 C 
BRANCH  21  22
ATOM     22  C   UNL     1       1.414   2.423  18.487  0.00  0.00    +0.000 C 
ATOM     23  O   UNL     1       0.293   1.944  18.441  0.00  0.00    +0.000 OA
BRANCH  22  24
ATOM     24  O   UNL     1       2.413   2.011  19.332  0.00  0.00    +0.000 OA
BRANCH  24  26
ATOM     25  C   UNL     1       1.605   2.618  21.497  0.00  0.00    +0.000 C 
ATOM     26  C   UNL     1       2.666   2.880  20.442  0.00  0.00    +0.000 C 
ENDBRANCH  24  26
ENDBRANCH  22  24
ENDBRANCH  21  22
ENDBRANCH   1  21
TORSDOF 6
ENDMDL
MODEL 4
REMARK VINA RESULT:      -7.2      1.477      1.842
REMARK  Name = 
REMARK  7 active torsions:
REMARK  status: ('A' for Active; 'I' for Inactive)
REMARK    1  A    between atoms: C_1  and  C_2
REMARK    2  A    between atoms: C_2  and  O_3
REMARK    3  A    between atoms: O_3  and  C_4
REMARK    4  A    between atoms: C_4  and  C_6
REMARK    5  A    between atoms: C_6  and  N_7
REMARK    6  A    between atoms: C_9  and  N_10
REMARK    7  A    between atoms: C_22  and  O_23
REMARK                            x       y       z     vdW  Elec       q    Type
REMARK                         _______ _______ _______ _____ _____    ______ ____
ROOT
ATOM      1  N   UNL     1       5.787   4.283  18.899  0.00  0.00    +0.000 NA
ATOM      2  C   UNL     1       4.676   3.850  19.361  0.00  0.00    +0.000 C 
ATOM      3  C   UNL     1       3.281   4.245  19.712  0.00  0.00    +0.000 C 
ATOM      4  C   UNL     1       3.021   2.996  20.219  0.00  0.00    +0.000 C 
ATOM      5  C   UNL     1       4.382   2.517  19.901  0.00  0.00    +0.000 C 
ATOM      6  O   UNL     1       5.053   1.521  20.020  0.00  0.00    +0.000 OA
ENDROOT
BRANCH   3   7
ATOM      7  N   UNL     1       2.628   5.386  19.574  0.00  0.00    +0.000 N 
ATOM      8  C   UNL     1       1.721   5.922  20.630  0.00  0.00    +0.000 C 
ATOM      9  C   UNL     1       1.929   7.453  20.799  0.00  0.00    +0.000 C 
ATOM     10  N   UNL     1       1.737   8.079  19.487  0.00  0.00    +0.000 N 
ATOM     11  C   UNL     1       1.079   9.279  19.378  0.00  0.00    +0.000 A 
ATOM     12  C   UNL     1       0.461   9.626  18.176  0.00  0.00    +0.000 A 
ATOM     13  C   UNL     1      -0.279  10.795  18.071  0.00  0.00    +0.000 A 
ATOM     14  C   UNL     1      -0.376  11.625  19.175  0.00  0.00    +0.000 A 
ATOM     15  C   UNL     1       0.264  11.228  20.334  0.00  0.00    +0.000 A 
ATOM     16  N   UNL     1       0.966  10.076  20.460  0.00  0.00    +0.000 NA
ATOM     17  C   UNL     1       2.652   7.608  18.446  0.00  0.00    +0.000 C 
ATOM     18  C   UNL     1       2.449   6.083  18.274  0.00  0.00    +0.000 C 
ENDBRANCH   3   7
BRANCH   4  19
ATOM     19  O   UNL     1       1.987   2.440  20.734  0.00  0.00    +0.000 OA
ATOM     20  H   UNL     1       2.274   1.662  21.245  0.00  0.00    +0.000 HD
ENDBRANCH   4  19
BRANCH   1  21
ATOM     21  C   UNL     1       5.863   5.704  18.568  0.00  0.00    +0.000 C 
BRANCH  21  22
ATOM     22  C   UNL     1       6.705   5.955  17.331  0.00  0.00    +0.000 C 
ATOM     23  O   UNL     1       7.116   7.032  16.932  0.00  0.00    +0.000 OA
BRANCH  22  24
ATOM     24  O   UNL     1       6.816   4.768  16.654  0.00  0.00    +0.000 OA
BRANCH  24  26
ATOM     25  C   UNL     1       6.048   3.912  14.561  0.00  0.00    +0.000 C 
ATOM     26  C   UNL     1       6.992   4.890  15.238  0.00  0.00    +0.000 C 
ENDBRANCH  24  26
ENDBRANCH  22  24
ENDBRANCH  21  22
ENDBRANCH   1  21
TORSDOF 6
ENDMDL
MODEL 5
REMARK VINA RESULT:      -7.1      1.068      1.410
REMARK  Name = 
REMARK  7 active torsions:
REMARK  status: ('A' for Active; 'I' for Inactive)
REMARK    1  A    between atoms: C_1  and  C_2
REMARK    2  A    between atoms: C_2  and  O_3
REMARK    3  A    between atoms: O_3  and  C_4
REMARK    4  A    between atoms: C_4  and  C_6
REMARK    5  A    between atoms: C_6  and  N_7
REMARK    6  A    between atoms: C_9  and  N_10
REMARK    7  A    between atoms: C_22  and  O_23
REMARK                            x       y       z     vdW  Elec       q    Type
REMARK                         _______ _______ _______ _____ _____    ______ ____
ROOT
ATOM      1  N   UNL     1       5.392   3.510  18.904  0.00  0.00    +0.000 NA
ATOM      2  C   UNL     1       4.160   3.173  18.844  0.00  0.00    +0.000 C 
ATOM      3  C   UNL     1       2.764   3.689  18.930  0.00  0.00    +0.000 C 
ATOM      4  C   UNL     1       2.254   2.420  18.821  0.00  0.00    +0.000 C 
ATOM      5  C   UNL     1       3.601   1.821  18.723  0.00  0.00    +0.000 C 
ATOM      6  O   UNL     1       4.114   0.734  18.621  0.00  0.00    +0.000 OA
ENDROOT
BRANCH   3   7
ATOM      7  N   UNL     1       2.285   4.912  19.075  0.00  0.00    +0.000 N 
ATOM      8  C   UNL     1       1.364   5.286  20.187  0.00  0.00    +0.000 C 
ATOM      9  C   UNL     1       1.759   6.667  20.780  0.00  0.00    +0.000 C 
ATOM     10  N   UNL     1       1.775   7.638  19.681  0.00  0.00    +0.000 N 
ATOM     11  C   UNL     1       1.296   8.911  19.870  0.00  0.00    +0.000 A 
ATOM     12  C   UNL     1       0.845   9.653  18.777  0.00  0.00    +0.000 A 
ATOM     13  C   UNL     1       0.281  10.908  18.958  0.00  0.00    +0.000 A 
ATOM     14  C   UNL     1       0.194  11.423  20.240  0.00  0.00    +0.000 A 
ATOM     15  C   UNL     1       0.665  10.641  21.278  0.00  0.00    +0.000 A 
ATOM     16  N   UNL     1       1.191   9.403  21.121  0.00  0.00    +0.000 NA
ATOM     17  C   UNL     1       2.711   7.322  18.601  0.00  0.00    +0.000 C 
ATOM     18  C   UNL     1       2.322   5.946  18.008  0.00  0.00    +0.000 C 
ENDBRANCH   3   7
BRANCH   4  19
ATOM     19  O   UNL     1       1.067   1.935  18.780  0.00  0.00    +0.000 OA
ATOM     20  H   UNL     1       0.438   2.665  18.642  0.00  0.00    +0.000 HD
ENDBRANCH   4  19
BRANCH   1  21
ATOM     21  C   UNL     1       5.686   4.914  19.185  0.00  0.00    +0.000 C 
BRANCH  21  22
ATOM     22  C   UNL     1       6.308   5.614  17.992  0.00  0.00    +0.000 C 
ATOM     23  O   UNL     1       6.075   6.748  17.605  0.00  0.00    +0.000 OA
BRANCH  22  24
ATOM     24  O   UNL     1       7.087   4.700  17.331  0.00  0.00    +0.000 OA
BRANCH  24  26
ATOM     25  C   UNL     1       5.985   3.888  15.373  0.00  0.00    +0.000 C 
ATOM     26  C   UNL     1       7.072   4.807  15.903  0.00  0.00    +0.000 C 
ENDBRANCH  24  26
ENDBRANCH  22  24
ENDBRANCH  21  22
ENDBRANCH   1  21
TORSDOF 6
ENDMDL
MODEL 6
REMARK VINA RESULT:      -6.8      2.175      4.203
REMARK  Name = 
REMARK  7 active torsions:
REMARK  status: ('A' for Active; 'I' for Inactive)
REMARK    1  A    between atoms: C_1  and  C_2
REMARK    2  A    between atoms: C_2  and  O_3
REMARK    3  A    between atoms: O_3  and  C_4
REMARK    4  A    between atoms: C_4  and  C_6
REMARK    5  A    between atoms: C_6  and  N_7
REMARK    6  A    between atoms: C_9  and  N_10
REMARK    7  A    between atoms: C_22  and  O_23
REMARK                            x       y       z     vdW  Elec       q    Type
REMARK                         _______ _______ _______ _____ _____    ______ ____
ROOT
ATOM      1  N   UNL     1       4.300   3.018  17.386  0.00  0.00    +0.000 NA
ATOM      2  C   UNL     1       4.646   4.137  16.873  0.00  0.00    +0.000 C 
ATOM      3  C   UNL     1       4.482   5.615  16.983  0.00  0.00    +0.000 C 
ATOM      4  C   UNL     1       5.226   5.815  15.847  0.00  0.00    +0.000 C 
ATOM      5  C   UNL     1       5.443   4.365  15.662  0.00  0.00    +0.000 C 
ATOM      6  O   UNL     1       5.983   3.612  14.888  0.00  0.00    +0.000 OA
ENDROOT
BRANCH   3   7
ATOM      7  N   UNL     1       3.838   6.366  17.859  0.00  0.00    +0.000 N 
ATOM      8  C   UNL     1       3.504   7.796  17.595  0.00  0.00    +0.000 C 
ATOM      9  C   UNL     1       2.059   8.114  18.071  0.00  0.00    +0.000 C 
ATOM     10  N   UNL     1       1.960   7.740  19.485  0.00  0.00    +0.000 N 
ATOM     11  C   UNL     1       1.259   8.527  20.366  0.00  0.00    +0.000 A 
ATOM     12  C   UNL     1       1.559   8.482  21.728  0.00  0.00    +0.000 A 
ATOM     13  C   UNL     1       0.920   9.329  22.622  0.00  0.00    +0.000 A 
ATOM     14  C   UNL     1      -0.039  10.205  22.143  0.00  0.00    +0.000 A 
ATOM     15  C   UNL     1      -0.295  10.195  20.785  0.00  0.00    +0.000 A 
ATOM     16  N   UNL     1       0.341   9.395  19.896  0.00  0.00    +0.000 NA
ATOM     17  C   UNL     1       2.231   6.328  19.764  0.00  0.00    +0.000 C 
ATOM     18  C   UNL     1       3.669   6.007  19.291  0.00  0.00    +0.000 C 
ENDBRANCH   3   7
BRANCH   4  19
ATOM     19  O   UNL     1       5.618   6.855  15.208  0.00  0.00    +0.000 OA
ATOM     20  H   UNL     1       5.392   6.746  14.267  0.00  0.00    +0.000 HD
ENDBRANCH   4  19
BRANCH   1  21
ATOM     21  C   UNL     1       3.367   3.060  18.510  0.00  0.00    +0.000 C 
BRANCH  21  22
ATOM     22  C   UNL     1       4.006   2.575  19.798  0.00  0.00    +0.000 C 
ATOM     23  O   UNL     1       5.197   2.559  20.063  0.00  0.00    +0.000 OA
BRANCH  22  24
ATOM     24  O   UNL     1       3.017   2.027  20.573  0.00  0.00    +0.000 OA
BRANCH  24  26
ATOM     25  C   UNL     1       0.952   3.116  21.077  0.00  0.00    +0.000 C 
ATOM     26  C   UNL     1       2.399   2.929  21.498  0.00  0.00    +0.000 C 
ENDBRANCH  24  26
ENDBRANCH  22  24
ENDBRANCH  21  22
ENDBRANCH   1  21
TORSDOF 6
ENDMDL
MODEL 7
REMARK VINA RESULT:      -6.8      2.155      4.403
REMARK  Name = 
REMARK  7 active torsions:
REMARK  status: ('A' for Active; 'I' for Inactive)
REMARK    1  A    between atoms: C_1  and  C_2
REMARK    2  A    between atoms: C_2  and  O_3
REMARK    3  A    between atoms: O_3  and  C_4
REMARK    4  A    between atoms: C_4  and  C_6
REMARK    5  A    between atoms: C_6  and  N_7
REMARK    6  A    between atoms: C_9  and  N_10
REMARK    7  A    between atoms: C_22  and  O_23
REMARK                            x       y       z     vdW  Elec       q    Type
REMARK                         _______ _______ _______ _____ _____    ______ ____
ROOT
ATOM      1  N   UNL     1       2.783   3.820  17.603  0.00  0.00    +0.000 NA
ATOM      2  C   UNL     1       3.571   4.826  17.648  0.00  0.00    +0.000 C 
ATOM      3  C   UNL     1       3.643   6.288  17.932  0.00  0.00    +0.000 C 
ATOM      4  C   UNL     1       4.963   6.329  17.556  0.00  0.00    +0.000 C 
ATOM      5  C   UNL     1       4.984   4.883  17.253  0.00  0.00    +0.000 C 
ATOM      6  O   UNL     1       5.747   4.046  16.838  0.00  0.00    +0.000 OA
ENDROOT
BRANCH   3   7
ATOM      7  N   UNL     1       2.735   7.147  18.362  0.00  0.00    +0.000 N 
ATOM      8  C   UNL     1       2.038   6.988  19.671  0.00  0.00    +0.000 C 
ATOM      9  C   UNL     1       1.930   8.356  20.399  0.00  0.00    +0.000 C 
ATOM     10  N   UNL     1       1.265   9.297  19.491  0.00  0.00    +0.000 N 
ATOM     11  C   UNL     1       0.347  10.197  19.972  0.00  0.00    +0.000 A 
ATOM     12  C   UNL     1      -0.625  10.721  19.118  0.00  0.00    +0.000 A 
ATOM     13  C   UNL     1      -1.612  11.567  19.603  0.00  0.00    +0.000 A 
ATOM     14  C   UNL     1      -1.603  11.903  20.946  0.00  0.00    +0.000 A 
ATOM     15  C   UNL     1      -0.610  11.356  21.737  0.00  0.00    +0.000 A 
ATOM     16  N   UNL     1       0.342  10.506  21.284  0.00  0.00    +0.000 NA
ATOM     17  C   UNL     1       1.959   9.512  18.220  0.00  0.00    +0.000 C 
ATOM     18  C   UNL     1       2.070   8.151  17.491  0.00  0.00    +0.000 C 
ENDBRANCH   3   7
BRANCH   4  19
ATOM     19  O   UNL     1       5.852   7.252  17.518  0.00  0.00    +0.000 OA
ATOM     20  H   UNL     1       6.163   7.423  18.424  0.00  0.00    +0.000 HD
ENDBRANCH   4  19
BRANCH   1  21
ATOM     21  C   UNL     1       1.374   4.063  17.903  0.00  0.00    +0.000 C 
BRANCH  21  22
ATOM     22  C   UNL     1       0.839   3.096  18.942  0.00  0.00    +0.000 C 
ATOM     23  O   UNL     1       0.340   2.002  18.736  0.00  0.00    +0.000 OA
BRANCH  22  24
ATOM     24  O   UNL     1       0.888   3.725  20.160  0.00  0.00    +0.000 OA
BRANCH  24  26
ATOM     25  C   UNL     1       2.730   2.752  21.328  0.00  0.00    +0.000 C 
ATOM     26  C   UNL     1       1.218   2.879  21.267  0.00  0.00    +0.000 C 
ENDBRANCH  24  26
ENDBRANCH  22  24
ENDBRANCH  21  22
ENDBRANCH   1  21
TORSDOF 6
ENDMDL
MODEL 8
REMARK VINA RESULT:      -6.7      2.145      2.934
REMARK  Name = 
REMARK  7 active torsions:
REMARK  status: ('A' for Active; 'I' for Inactive)
REMARK    1  A    between atoms: C_1  and  C_2
REMARK    2  A    between atoms: C_2  and  O_3
REMARK    3  A    between atoms: O_3  and  C_4
REMARK    4  A    between atoms: C_4  and  C_6
REMARK    5  A    between atoms: C_6  and  N_7
REMARK    6  A    between atoms: C_9  and  N_10
REMARK    7  A    between atoms: C_22  and  O_23
REMARK                            x       y       z     vdW  Elec       q    Type
REMARK                         _______ _______ _______ _____ _____    ______ ____
ROOT
ATOM      1  N   UNL     1       6.574   6.297  16.403  0.00  0.00    +0.000 NA
ATOM      2  C   UNL     1       5.582   5.521  16.620  0.00  0.00    +0.000 C 
ATOM      3  C   UNL     1       4.312   5.375  17.387  0.00  0.00    +0.000 C 
ATOM      4  C   UNL     1       4.135   4.098  16.914  0.00  0.00    +0.000 C 
ATOM      5  C   UNL     1       5.379   4.157  16.118  0.00  0.00    +0.000 C 
ATOM      6  O   UNL     1       6.030   3.453  15.386  0.00  0.00    +0.000 OA
ENDROOT
BRANCH   3   7
ATOM      7  N   UNL     1       3.676   6.198  18.202  0.00  0.00    +0.000 N 
ATOM      8  C   UNL     1       3.435   7.631  17.866  0.00  0.00    +0.000 C 
ATOM      9  C   UNL     1       1.993   8.048  18.266  0.00  0.00    +0.000 C 
ATOM     10  N   UNL     1       1.815   7.743  19.689  0.00  0.00    +0.000 N 
ATOM     11  C   UNL     1       1.125   8.604  20.505  0.00  0.00    +0.000 A 
ATOM     12  C   UNL     1       1.367   8.603  21.880  0.00  0.00    +0.000 A 
ATOM     13  C   UNL     1       0.742   9.522  22.710  0.00  0.00    +0.000 A 
ATOM     14  C   UNL     1      -0.146  10.427  22.155  0.00  0.00    +0.000 A 
ATOM     15  C   UNL     1      -0.347  10.372  20.788  0.00  0.00    +0.000 A 
ATOM     16  N   UNL     1       0.277   9.500  19.961  0.00  0.00    +0.000 NA
ATOM     17  C   UNL     1       1.994   6.331  20.037  0.00  0.00    +0.000 C 
ATOM     18  C   UNL     1       3.430   5.911  19.639  0.00  0.00    +0.000 C 
ENDBRANCH   3   7
BRANCH   4  19
ATOM     19  O   UNL     1       3.226   3.207  17.068  0.00  0.00    +0.000 OA
ATOM     20  H   UNL     1       3.631   2.328  16.960  0.00  0.00    +0.000 HD
ENDBRANCH   4  19
BRANCH   1  21
ATOM     21  C   UNL     1       6.615   7.553  17.150  0.00  0.00    +0.000 C 
BRANCH  21  22
ATOM     22  C   UNL     1       7.888   7.689  17.963  0.00  0.00    +0.000 C 
ATOM     23  O   UNL     1       8.307   6.912  18.805  0.00  0.00    +0.000 OA
BRANCH  22  24
ATOM     24  O   UNL     1       8.431   8.917  17.684  0.00  0.00    +0.000 OA
BRANCH  24  26
ATOM     25  C   UNL     1       9.142  11.090  18.376  0.00  0.00    +0.000 C 
ATOM     26  C   UNL     1       8.852   9.669  18.828  0.00  0.00    +0.000 C 
ENDBRANCH  24  26
ENDBRANCH  22  24
ENDBRANCH  21  22
ENDBRANCH   1  21
TORSDOF 6
ENDMDL
MODEL 9
REMARK VINA RESULT:      -6.5      1.959      4.275
REMARK  Name = 
REMARK  7 active torsions:
REMARK  status: ('A' for Active; 'I' for Inactive)
REMARK    1  A    between atoms: C_1  and  C_2
REMARK    2  A    between atoms: C_2  and  O_3
REMARK    3  A    between atoms: O_3  and  C_4
REMARK    4  A    between atoms: C_4  and  C_6
REMARK    5  A    between atoms: C_6  and  N_7
REMARK    6  A    between atoms: C_9  and  N_10
REMARK    7  A    between atoms: C_22  and  O_23
REMARK                            x       y       z     vdW  Elec       q    Type
REMARK                         _______ _______ _______ _____ _____    ______ ____
ROOT
ATOM      1  N   UNL     1       3.575   4.370  20.425  0.00  0.00    +0.000 NA
ATOM      2  C   UNL     1       4.015   5.175  19.534  0.00  0.00    +0.000 C 
ATOM      3  C   UNL     1       3.698   6.415  18.768  0.00  0.00    +0.000 C 
ATOM      4  C   UNL     1       4.841   6.283  18.019  0.00  0.00    +0.000 C 
ATOM      5  C   UNL     1       5.236   5.049  18.729  0.00  0.00    +0.000 C 
ATOM      6  O   UNL     1       6.118   4.225  18.711  0.00  0.00    +0.000 OA
ENDROOT
BRANCH   3   7
ATOM      7  N   UNL     1       2.679   7.253  18.833  0.00  0.00    +0.000 N 
ATOM      8  C   UNL     1       1.831   7.391  20.053  0.00  0.00    +0.000 C 
ATOM      9  C   UNL     1       1.524   8.888  20.335  0.00  0.00    +0.000 C 
ATOM     10  N   UNL     1       0.912   9.456  19.129  0.00  0.00    +0.000 N 
ATOM     11  C   UNL     1      -0.127  10.347  19.229  0.00  0.00    +0.000 A 
ATOM     12  C   UNL     1      -1.017  10.498  18.165  0.00  0.00    +0.000 A 
ATOM     13  C   UNL     1      -2.121  11.331  18.278  0.00  0.00    +0.000 A 
ATOM     14  C   UNL     1      -2.314  12.029  19.458  0.00  0.00    +0.000 A 
ATOM     15  C   UNL     1      -1.393  11.840  20.472  0.00  0.00    +0.000 A 
ATOM     16  N   UNL     1      -0.326  11.009  20.387  0.00  0.00    +0.000 NA
ATOM     17  C   UNL     1       1.747   9.381  17.928  0.00  0.00    +0.000 C 
ATOM     18  C   UNL     1       2.057   7.891  17.644  0.00  0.00    +0.000 C 
ENDBRANCH   3   7
BRANCH   4  19
ATOM     19  O   UNL     1       5.384   6.979  17.089  0.00  0.00    +0.000 OA
ATOM     20  H   UNL     1       4.837   6.906  16.287  0.00  0.00    +0.000 HD
ENDBRANCH   4  19
BRANCH   1  21
ATOM     21  C   UNL     1       2.247   4.642  20.972  0.00  0.00    +0.000 C 
BRANCH  21  22
ATOM     22  C   UNL     1       1.309   3.463  20.801  0.00  0.00    +0.000 C 
ATOM     23  O   UNL     1       1.074   2.590  21.621  0.00  0.00    +0.000 OA
BRANCH  22  24
ATOM     24  O   UNL     1       0.865   3.467  19.504  0.00  0.00    +0.000 OA
BRANCH  24  26
ATOM     25  C   UNL     1       2.186   2.363  17.848  0.00  0.00    +0.000 C 
ATOM     26  C   UNL     1       1.015   2.226  18.806  0.00  0.00    +0.000 C 
ENDBRANCH  24  26
ENDBRANCH  22  24
ENDBRANCH  21  22
ENDBRANCH   1  21
TORSDOF 6
ENDMDL
