MODEL 1
REMARK VINA RESULT:      -7.8      0.000      0.000
REMARK  Name = 
REMARK  2 active torsions:
REMARK  status: ('A' for Active; 'I' for Inactive)
REMARK    1  A    between atoms: C_3  and  N_4
REMARK    2  A    between atoms: N_11  and  C_12
REMARK                            x       y       z     vdW  Elec       q    Type
REMARK                         _______ _______ _______ _____ _____    ______ ____
ROOT
ATOM      1  O   UNL     1       5.144   3.646  17.913  0.00  0.00    +0.000 OA
ATOM      2  C   UNL     1       4.675   4.755  17.696  0.00  0.00    +0.000 C 
ATOM      3  C   UNL     1       5.416   5.913  17.069  0.00  0.00    +0.000 C 
ATOM      4  C   UNL     1       4.317   6.950  16.820  0.00  0.00    +0.000 C 
ATOM      5  C   UNL     1       3.284   6.639  17.889  0.00  0.00    +0.000 C 
ATOM      6  N   UNL     1       3.408   5.219  18.063  0.00  0.00    +0.000 N 
ENDROOT
BRANCH   6   7
ATOM      7  C   UNL     1       2.496   4.428  18.793  0.00  0.00    +0.000 A 
ATOM      8  C   UNL     1       2.219   4.671  20.140  0.00  0.00    +0.000 A 
ATOM      9  F   UNL     1       2.844   5.660  20.796  0.00  0.00    +0.000 F 
ATOM     10  C   UNL     1       1.350   3.849  20.858  0.00  0.00    +0.000 A 
ATOM     11  C   UNL     1       0.707   2.789  20.220  0.00  0.00    +0.000 A 
ATOM     12  C   UNL     1       0.946   2.551  18.868  0.00  0.00    +0.000 A 
ATOM     13  C   UNL     1       1.844   3.356  18.171  0.00  0.00    +0.000 A 
ATOM     14  F   UNL     1       2.003   3.139  16.855  0.00  0.00    +0.000 F 
ENDBRANCH   6   7
BRANCH   3  15
ATOM     15  N   UNL     1       6.130   5.534  15.876  0.00  0.00    +0.000 N 
ATOM     16  C   UNL     1       5.692   4.838  14.789  0.00  0.00    +0.000 A 
ATOM     17  C   UNL     1       6.795   4.765  13.983  0.00  0.00    +0.000 A 
ATOM     18  N   UNL     1       7.830   5.445  14.555  0.00  0.00    +0.000 NA
ATOM     19  N   UNL     1       7.407   5.930  15.713  0.00  0.00    +0.000 NA
ENDBRANCH   3  15
TORSDOF 2
ENDMDL
MODEL 2
REMARK VINA RESULT:      -7.7      0.099      1.898
REMARK  Name = 
REMARK  2 active torsions:
REMARK  status: ('A' for Active; 'I' for Inactive)
REMARK    1  A    between atoms: C_3  and  N_4
REMARK    2  A    between atoms: N_11  and  C_12
REMARK                            x       y       z     vdW  Elec       q    Type
REMARK                         _______ _______ _______ _____ _____    ______ ____
ROOT
ATOM      1  O   UNL     1       5.156   3.602  17.836  0.00  0.00    +0.000 OA
ATOM      2  C   UNL     1       4.709   4.722  17.634  0.00  0.00    +0.000 C 
ATOM      3  C   UNL     1       5.472   5.874  17.022  0.00  0.00    +0.000 C 
ATOM      4  C   UNL     1       4.394   6.935  16.787  0.00  0.00    +0.000 C 
ATOM      5  C   UNL     1       3.355   6.631  17.852  0.00  0.00    +0.000 C 
ATOM      6  N   UNL     1       3.451   5.206  18.007  0.00  0.00    +0.000 N 
ENDROOT
BRANCH   6   7
ATOM      7  C   UNL     1       2.524   4.423  18.726  0.00  0.00    +0.000 A 
ATOM      8  C   UNL     1       1.871   3.332  18.148  0.00  0.00    +0.000 A 
ATOM      9  F   UNL     1       2.089   3.010  16.864  0.00  0.00    +0.000 F 
ATOM     10  C   UNL     1       0.922   2.599  18.860  0.00  0.00    +0.000 A 
ATOM     11  C   UNL     1       0.642   2.924  20.187  0.00  0.00    +0.000 A 
ATOM     12  C   UNL     1       1.307   3.990  20.791  0.00  0.00    +0.000 A 
ATOM     13  C   UNL     1       2.226   4.737  20.058  0.00  0.00    +0.000 A 
ATOM     14  F   UNL     1       2.895   5.716  20.688  0.00  0.00    +0.000 F 
ENDBRANCH   6   7
BRANCH   3  15
ATOM     15  N   UNL     1       6.180   5.497  15.824  0.00  0.00    +0.000 N 
ATOM     16  C   UNL     1       5.741   4.784  14.749  0.00  0.00    +0.000 A 
ATOM     17  C   UNL     1       6.835   4.723  13.930  0.00  0.00    +0.000 A 
ATOM     18  N   UNL     1       7.865   5.427  14.483  0.00  0.00    +0.000 NA
ATOM     19  N   UNL     1       7.447   5.916  15.642  0.00  0.00    +0.000 NA
ENDBRANCH   3  15
TORSDOF 2
ENDMDL
MODEL 3
REMARK VINA RESULT:      -7.7      1.694      2.000
REMARK  Name = 
REMARK  2 active torsions:
REMARK  status: ('A' for Active; 'I' for Inactive)
REMARK    1  A    between atoms: C_3  and  N_4
REMARK    2  A    between atoms: N_11  and  C_12
REMARK                            x       y       z     vdW  Elec       q    Type
REMARK                         _______ _______ _______ _____ _____    ______ ____
ROOT
ATOM      1  O   UNL     1       4.578   2.862  17.130  0.00  0.00    +0.000 OA
ATOM      2  C   UNL     1       5.148   3.784  17.696  0.00  0.00    +0.000 C 
ATOM      3  C   UNL     1       6.525   4.306  17.355  0.00  0.00    +0.000 C 
ATOM      4  C   UNL     1       6.643   5.581  18.193  0.00  0.00    +0.000 C 
ATOM      5  C   UNL     1       5.735   5.314  19.380  0.00  0.00    +0.000 C 
ATOM      6  N   UNL     1       4.706   4.480  18.825  0.00  0.00    +0.000 N 
ENDROOT
BRANCH   6   7
ATOM      7  C   UNL     1       3.505   4.154  19.491  0.00  0.00    +0.000 A 
ATOM      8  C   UNL     1       2.340   4.906  19.325  0.00  0.00    +0.000 A 
ATOM      9  F   UNL     1       2.337   5.994  18.539  0.00  0.00    +0.000 F 
ATOM     10  C   UNL     1       1.175   4.598  20.028  0.00  0.00    +0.000 A 
ATOM     11  C   UNL     1       1.148   3.495  20.881  0.00  0.00    +0.000 A 
ATOM     12  C   UNL     1       2.292   2.714  21.034  0.00  0.00    +0.000 A 
ATOM     13  C   UNL     1       3.459   3.054  20.355  0.00  0.00    +0.000 A 
ATOM     14  F   UNL     1       4.524   2.244  20.476  0.00  0.00    +0.000 F 
ENDBRANCH   6   7
BRANCH   3  15
ATOM     15  N   UNL     1       6.700   4.528  15.941  0.00  0.00    +0.000 N 
ATOM     16  C   UNL     1       6.083   3.921  14.888  0.00  0.00    +0.000 A 
ATOM     17  C   UNL     1       6.648   4.518  13.794  0.00  0.00    +0.000 A 
ATOM     18  N   UNL     1       7.526   5.483  14.196  0.00  0.00    +0.000 NA
ATOM     19  N   UNL     1       7.538   5.494  15.520  0.00  0.00    +0.000 NA
ENDBRANCH   3  15
TORSDOF 2
ENDMDL
MODEL 4
REMARK VINA RESULT:      -7.7      2.027      2.862
REMARK  Name = 
REMARK  2 active torsions:
REMARK  status: ('A' for Active; 'I' for Inactive)
REMARK    1  A    between atoms: C_3  and  N_4
REMARK    2  A    between atoms: N_11  and  C_12
REMARK                            x       y       z     vdW  Elec       q    Type
REMARK                         _______ _______ _______ _____ _____    ______ ____
ROOT
ATOM      1  O   UNL     1       3.929   6.304  19.169  0.00  0.00    +0.000 OA
ATOM      2  C   UNL     1       4.295   5.415  18.414  0.00  0.00    +0.000 C 
ATOM      3  C   UNL     1       5.183   5.602  17.205  0.00  0.00    +0.000 C 
ATOM      4  C   UNL     1       5.511   4.170  16.776  0.00  0.00    +0.000 C 
ATOM      5  C   UNL     1       4.315   3.369  17.258  0.00  0.00    +0.000 C 
ATOM      6  N   UNL     1       3.903   4.073  18.440  0.00  0.00    +0.000 N 
ENDROOT
BRANCH   6   7
ATOM      7  C   UNL     1       2.964   3.579  19.370  0.00  0.00    +0.000 A 
ATOM      8  C   UNL     1       1.592   3.788  19.217  0.00  0.00    +0.000 A 
ATOM      9  F   UNL     1       1.122   4.501  18.182  0.00  0.00    +0.000 F 
ATOM     10  C   UNL     1       0.682   3.333  20.171  0.00  0.00    +0.000 A 
ATOM     11  C   UNL     1       1.134   2.617  21.280  0.00  0.00    +0.000 A 
ATOM     12  C   UNL     1       2.497   2.371  21.432  0.00  0.00    +0.000 A 
ATOM     13  C   UNL     1       3.399   2.863  20.492  0.00  0.00    +0.000 A 
ATOM     14  F   UNL     1       4.698   2.553  20.635  0.00  0.00    +0.000 F 
ENDBRANCH   6   7
BRANCH   3  15
ATOM     15  N   UNL     1       6.350   6.399  17.492  0.00  0.00    +0.000 N 
ATOM     16  C   UNL     1       7.316   6.210  18.435  0.00  0.00    +0.000 A 
ATOM     17  C   UNL     1       8.157   7.274  18.257  0.00  0.00    +0.000 A 
ATOM     18  N   UNL     1       7.728   8.030  17.205  0.00  0.00    +0.000 NA
ATOM     19  N   UNL     1       6.624   7.474  16.729  0.00  0.00    +0.000 NA
ENDBRANCH   3  15
TORSDOF 2
ENDMDL
MODEL 5
REMARK VINA RESULT:      -7.6      1.927      2.481
REMARK  Name = 
REMARK  2 active torsions:
REMARK  status: ('A' for Active; 'I' for Inactive)
REMARK    1  A    between atoms: C_3  and  N_4
REMARK    2  A    between atoms: N_11  and  C_12
REMARK                            x       y       z     vdW  Elec       q    Type
REMARK                         _______ _______ _______ _____ _____    ______ ____
ROOT
ATOM      1  O   UNL     1       4.131   4.058  16.570  0.00  0.00    +0.000 OA
ATOM      2  C   UNL     1       5.104   4.463  17.190  0.00  0.00    +0.000 C 
ATOM      3  C   UNL     1       6.548   4.217  16.815  0.00  0.00    +0.000 C 
ATOM      4  C   UNL     1       7.327   5.124  17.770  0.00  0.00    +0.000 C 
ATOM      5  C   UNL     1       6.416   5.235  18.980  0.00  0.00    +0.000 C 
ATOM      6  N   UNL     1       5.101   5.144  18.411  0.00  0.00    +0.000 N 
ENDROOT
BRANCH   6   7
ATOM      7  C   UNL     1       3.911   5.422  19.117  0.00  0.00    +0.000 A 
ATOM      8  C   UNL     1       3.214   6.620  18.947  0.00  0.00    +0.000 A 
ATOM      9  F   UNL     1       3.677   7.567  18.117  0.00  0.00    +0.000 F 
ATOM     10  C   UNL     1       2.065   6.899  19.689  0.00  0.00    +0.000 A 
ATOM     11  C   UNL     1       1.571   5.954  20.587  0.00  0.00    +0.000 A 
ATOM     12  C   UNL     1       2.236   4.739  20.747  0.00  0.00    +0.000 A 
ATOM     13  C   UNL     1       3.402   4.489  20.027  0.00  0.00    +0.000 A 
ATOM     14  F   UNL     1       3.982   3.284  20.157  0.00  0.00    +0.000 F 
ENDBRANCH   6   7
BRANCH   3  15
ATOM     15  N   UNL     1       6.812   4.484  15.423  0.00  0.00    +0.000 N 
ATOM     16  C   UNL     1       6.295   3.885  14.313  0.00  0.00    +0.000 A 
ATOM     17  C   UNL     1       6.912   4.532  13.278  0.00  0.00    +0.000 A 
ATOM     18  N   UNL     1       7.722   5.516  13.765  0.00  0.00    +0.000 NA
ATOM     19  N   UNL     1       7.641   5.491  15.087  0.00  0.00    +0.000 NA
ENDBRANCH   3  15
TORSDOF 2
ENDMDL
MODEL 6
REMARK VINA RESULT:      -7.6      1.922      2.315
REMARK  Name = 
REMARK  2 active torsions:
REMARK  status: ('A' for Active; 'I' for Inactive)
REMARK    1  A    between atoms: C_3  and  N_4
REMARK    2  A    between atoms: N_11  and  C_12
REMARK                            x       y       z     vdW  Elec       q    Type
REMARK                         _______ _______ _______ _____ _____    ______ ____
ROOT
ATOM      1  O   UNL     1       4.542   3.257  16.982  0.00  0.00    +0.000 OA
ATOM      2  C   UNL     1       5.312   4.043  17.514  0.00  0.00    +0.000 C 
ATOM      3  C   UNL     1       6.735   4.307  17.080  0.00  0.00    +0.000 C 
ATOM      4  C   UNL     1       7.148   5.518  17.919  0.00  0.00    +0.000 C 
ATOM      5  C   UNL     1       6.290   5.399  19.165  0.00  0.00    +0.000 C 
ATOM      6  N   UNL     1       5.087   4.784  18.678  0.00  0.00    +0.000 N 
ENDROOT
BRANCH   6   7
ATOM      7  C   UNL     1       3.895   4.673  19.425  0.00  0.00    +0.000 A 
ATOM      8  C   UNL     1       3.580   3.520  20.147  0.00  0.00    +0.000 A 
ATOM      9  F   UNL     1       4.399   2.458  20.127  0.00  0.00    +0.000 F 
ATOM     10  C   UNL     1       2.375   3.410  20.842  0.00  0.00    +0.000 A 
ATOM     11  C   UNL     1       1.480   4.479  20.859  0.00  0.00    +0.000 A 
ATOM     12  C   UNL     1       1.793   5.650  20.170  0.00  0.00    +0.000 A 
ATOM     13  C   UNL     1       2.982   5.734  19.450  0.00  0.00    +0.000 A 
ATOM     14  F   UNL     1       3.282   6.898  18.852  0.00  0.00    +0.000 F 
ENDBRANCH   6   7
BRANCH   3  15
ATOM     15  N   UNL     1       6.851   4.524  15.659  0.00  0.00    +0.000 N 
ATOM     16  C   UNL     1       6.226   3.881  14.633  0.00  0.00    +0.000 A 
ATOM     17  C   UNL     1       6.726   4.492  13.515  0.00  0.00    +0.000 A 
ATOM     18  N   UNL     1       7.572   5.499  13.879  0.00  0.00    +0.000 NA
ATOM     19  N   UNL     1       7.630   5.523  15.202  0.00  0.00    +0.000 NA
ENDBRANCH   3  15
TORSDOF 2
ENDMDL
MODEL 7
REMARK VINA RESULT:      -7.4      1.995      2.605
REMARK  Name = 
REMARK  2 active torsions:
REMARK  status: ('A' for Active; 'I' for Inactive)
REMARK    1  A    between atoms: C_3  and  N_4
REMARK    2  A    between atoms: N_11  and  C_12
REMARK                            x       y       z     vdW  Elec       q    Type
REMARK                         _______ _______ _______ _____ _____    ______ ____
ROOT
ATOM      1  O   UNL     1       3.920   6.370  19.056  0.00  0.00    +0.000 OA
ATOM      2  C   UNL     1       4.317   5.474  18.325  0.00  0.00    +0.000 C 
ATOM      3  C   UNL     1       5.244   5.651  17.145  0.00  0.00    +0.000 C 
ATOM      4  C   UNL     1       5.596   4.216  16.746  0.00  0.00    +0.000 C 
ATOM      5  C   UNL     1       4.389   3.414  17.198  0.00  0.00    +0.000 C 
ATOM      6  N   UNL     1       3.933   4.130  18.356  0.00  0.00    +0.000 N 
ENDROOT
BRANCH   6   7
ATOM      7  C   UNL     1       2.966   3.642  19.260  0.00  0.00    +0.000 A 
ATOM      8  C   UNL     1       3.320   2.939  20.413  0.00  0.00    +0.000 A 
ATOM      9  F   UNL     1       4.608   2.678  20.684  0.00  0.00    +0.000 F 
ATOM     10  C   UNL     1       2.349   2.422  21.271  0.00  0.00    +0.000 A 
ATOM     11  C   UNL     1       0.997   2.642  21.006  0.00  0.00    +0.000 A 
ATOM     12  C   UNL     1       0.626   3.370  19.876  0.00  0.00    +0.000 A 
ATOM     13  C   UNL     1       1.604   3.849  19.008  0.00  0.00    +0.000 A 
ATOM     14  F   UNL     1       1.215   4.600  17.965  0.00  0.00    +0.000 F 
ENDBRANCH   6   7
BRANCH   3  15
ATOM     15  N   UNL     1       6.396   6.459  17.460  0.00  0.00    +0.000 N 
ATOM     16  C   UNL     1       7.366   6.255  18.395  0.00  0.00    +0.000 A 
ATOM     17  C   UNL     1       8.186   7.341  18.255  0.00  0.00    +0.000 A 
ATOM     18  N   UNL     1       7.741   8.127  17.232  0.00  0.00    +0.000 NA
ATOM     19  N   UNL     1       6.648   7.567  16.736  0.00  0.00    +0.000 NA
ENDBRANCH   3  15
TORSDOF 2
ENDMDL
MODEL 8
REMARK VINA RESULT:      -7.4      1.959      2.679
REMARK  Name = 
REMARK  2 active torsions:
REMARK  status: ('A' for Active; 'I' for Inactive)
REMARK    1  A    between atoms: C_3  and  N_4
REMARK    2  A    between atoms: N_11  and  C_12
REMARK                            x       y       z     vdW  Elec       q    Type
REMARK                         _______ _______ _______ _____ _____    ______ ____
ROOT
ATOM      1  O   UNL     1       4.117   4.249  16.285  0.00  0.00    +0.000 OA
ATOM      2  C   UNL     1       5.128   4.496  16.928  0.00  0.00    +0.000 C 
ATOM      3  C   UNL     1       6.534   4.109  16.533  0.00  0.00    +0.000 C 
ATOM      4  C   UNL     1       7.408   4.853  17.546  0.00  0.00    +0.000 C 
ATOM      5  C   UNL     1       6.511   4.986  18.763  0.00  0.00    +0.000 C 
ATOM      6  N   UNL     1       5.196   5.088  18.192  0.00  0.00    +0.000 N 
ENDROOT
BRANCH   6   7
ATOM      7  C   UNL     1       4.044   5.454  18.919  0.00  0.00    +0.000 A 
ATOM      8  C   UNL     1       3.476   4.613  19.878  0.00  0.00    +0.000 A 
ATOM      9  F   UNL     1       4.001   3.402  20.119  0.00  0.00    +0.000 F 
ATOM     10  C   UNL     1       2.309   4.972  20.553  0.00  0.00    +0.000 A 
ATOM     11  C   UNL     1       1.713   6.208  20.305  0.00  0.00    +0.000 A 
ATOM     12  C   UNL     1       2.284   7.074  19.374  0.00  0.00    +0.000 A 
ATOM     13  C   UNL     1       3.429   6.689  18.681  0.00  0.00    +0.000 A 
ATOM     14  F   UNL     1       3.989   7.573  17.839  0.00  0.00    +0.000 F 
ENDBRANCH   6   7
BRANCH   3  15
ATOM     15  N   UNL     1       6.835   4.437  15.162  0.00  0.00    +0.000 N 
ATOM     16  C   UNL     1       6.329   3.906  14.014  0.00  0.00    +0.000 A 
ATOM     17  C   UNL     1       6.983   4.587  13.024  0.00  0.00    +0.000 A 
ATOM     18  N   UNL     1       7.805   5.526  13.576  0.00  0.00    +0.000 NA
ATOM     19  N   UNL     1       7.694   5.439  14.893  0.00  0.00    +0.000 NA
ENDBRANCH   3  15
TORSDOF 2
ENDMDL
MODEL 9
REMARK VINA RESULT:      -7.1      1.015      1.015
REMARK  Name = 
REMARK  2 active torsions:
REMARK  status: ('A' for Active; 'I' for Inactive)
REMARK    1  A    between atoms: C_3  and  N_4
REMARK    2  A    between atoms: N_11  and  C_12
REMARK                            x       y       z     vdW  Elec       q    Type
REMARK                         _______ _______ _______ _____ _____    ______ ____
ROOT
ATOM      1  O   UNL     1       5.195   3.145  17.411  0.00  0.00    +0.000 OA
ATOM      2  C   UNL     1       4.874   4.325  17.394  0.00  0.00    +0.000 C 
ATOM      3  C   UNL     1       5.700   5.450  16.815  0.00  0.00    +0.000 C 
ATOM      4  C   UNL     1       4.747   6.647  16.845  0.00  0.00    +0.000 C 
ATOM      5  C   UNL     1       3.813   6.332  17.999  0.00  0.00    +0.000 C 
ATOM      6  N   UNL     1       3.743   4.897  17.983  0.00  0.00    +0.000 N 
ENDROOT
BRANCH   6   7
ATOM      7  C   UNL     1       2.816   4.141  18.731  0.00  0.00    +0.000 A 
ATOM      8  C   UNL     1       3.163   3.530  19.938  0.00  0.00    +0.000 A 
ATOM      9  F   UNL     1       4.414   3.621  20.413  0.00  0.00    +0.000 F 
ATOM     10  C   UNL     1       2.247   2.746  20.640  0.00  0.00    +0.000 A 
ATOM     11  C   UNL     1       0.945   2.598  20.161  0.00  0.00    +0.000 A 
ATOM     12  C   UNL     1       0.572   3.227  18.974  0.00  0.00    +0.000 A 
ATOM     13  C   UNL     1       1.507   3.977  18.264  0.00  0.00    +0.000 A 
ATOM     14  F   UNL     1       1.097   4.621  17.159  0.00  0.00    +0.000 F 
ENDBRANCH   6   7
BRANCH   3  15
ATOM     15  N   UNL     1       6.204   5.147  15.499  0.00  0.00    +0.000 N 
ATOM     16  C   UNL     1       5.625   4.430  14.495  0.00  0.00    +0.000 A 
ATOM     17  C   UNL     1       6.558   4.461  13.494  0.00  0.00    +0.000 A 
ATOM     18  N   UNL     1       7.625   5.220  13.880  0.00  0.00    +0.000 NA
ATOM     19  N   UNL     1       7.390   5.653  15.110  0.00  0.00    +0.000 NA
ENDBRANCH   3  15
TORSDOF 2
ENDMDL
