MODEL 1
REMARK VINA RESULT:      -8.6      0.000      0.000
REMARK  Name = 
REMARK  7 active torsions:
REMARK  status: ('A' for Active; 'I' for Inactive)
REMARK    1  A    between atoms: C_1  and  C_2
REMARK    2  A    between atoms: C_2  and  O_3
REMARK    3  A    between atoms: O_3  and  C_4
REMARK    4  A    between atoms: C_4  and  C_6
REMARK    5  A    between atoms: N_15  and  S_16
REMARK    6  A    between atoms: S_16  and  C_19
REMARK    7  A    between atoms: C_25  and  N_26
REMARK                            x       y       z     vdW  Elec       q    Type
REMARK                         _______ _______ _______ _____ _____    ______ ____
ROOT
ATOM      1  C   UNL     1       2.548   4.398  20.473  0.00  0.00    +0.000 A 
ATOM      2  C   UNL     1       1.908   5.605  20.711  0.00  0.00    +0.000 A 
ATOM      3  C   UNL     1       2.247   6.517  19.690  0.00  0.00    +0.000 A 
ATOM      4  C   UNL     1       1.865   7.852  19.452  0.00  0.00    +0.000 A 
ATOM      5  C   UNL     1       2.366   8.516  18.337  0.00  0.00    +0.000 A 
ATOM      6 CL   UNL     1       1.938  10.161  18.070  0.00  0.00    +0.000 Cl
ATOM      7  C   UNL     1       3.208   7.862  17.447  0.00  0.00    +0.000 A 
ATOM      8  C   UNL     1       3.587   6.530  17.659  0.00  0.00    +0.000 A 
ATOM      9  C   UNL     1       3.113   5.859  18.805  0.00  0.00    +0.000 A 
ATOM     10  N   UNL     1       3.323   4.587  19.340  0.00  0.00    +0.000 N 
ENDROOT
BRANCH  10  11
ATOM     11  S   UNL     1       4.412   3.409  18.700  0.00  0.00    +0.000 S 
ATOM     12  O   UNL     1       5.359   3.148  19.760  0.00  0.00    +0.000 OA
ATOM     13  O   UNL     1       3.558   2.370  18.163  0.00  0.00    +0.000 OA
BRANCH  11  14
ATOM     14  C   UNL     1       5.323   4.128  17.362  0.00  0.00    +0.000 A 
ATOM     15  C   UNL     1       4.941   3.894  16.033  0.00  0.00    +0.000 A 
ATOM     16  C   UNL     1       5.737   4.356  14.982  0.00  0.00    +0.000 A 
ATOM     17 CL   UNL     1       5.311   3.950  13.365  0.00  0.00    +0.000 Cl
ATOM     18  C   UNL     1       6.883   5.107  15.226  0.00  0.00    +0.000 A 
ATOM     19  C   UNL     1       7.255   5.384  16.542  0.00  0.00    +0.000 A 
ATOM     20  C   UNL     1       6.484   4.879  17.605  0.00  0.00    +0.000 A 
BRANCH  20  21
ATOM     21  N   UNL     1       6.954   5.201  18.945  0.00  0.00    +0.000 N 
ATOM     22  O   UNL     1       6.215   5.884  19.659  0.00  0.00    +0.000 OA
ATOM     23  O   UNL     1       8.111   4.862  19.226  0.00  0.00    +0.000 OA
ENDBRANCH  20  21
ENDBRANCH  11  14
ENDBRANCH  10  11
BRANCH   1  24
ATOM     24  C   UNL     1       2.350   3.172  21.208  0.00  0.00    +0.000 C 
ATOM     25  O   UNL     1       3.209   2.573  21.832  0.00  0.00    +0.000 OA
BRANCH  24  26
ATOM     26  O   UNL     1       1.114   2.687  20.902  0.00  0.00    +0.000 OA
BRANCH  26  28
ATOM     27  C   UNL     1       0.325   2.730  18.653  0.00  0.00    +0.000 C 
ATOM     28  C   UNL     1       1.025   1.895  19.712  0.00  0.00    +0.000 C 
ENDBRANCH  26  28
ENDBRANCH  24  26
ENDBRANCH   1  24
TORSDOF 6
ENDMDL
MODEL 2
REMARK VINA RESULT:      -7.5      1.134      1.550
REMARK  Name = 
REMARK  7 active torsions:
REMARK  status: ('A' for Active; 'I' for Inactive)
REMARK    1  A    between atoms: C_1  and  C_2
REMARK    2  A    between atoms: C_2  and  O_3
REMARK    3  A    between atoms: O_3  and  C_4
REMARK    4  A    between atoms: C_4  and  C_6
REMARK    5  A    between atoms: N_15  and  S_16
REMARK    6  A    between atoms: S_16  and  C_19
REMARK    7  A    between atoms: C_25  and  N_26
REMARK                            x       y       z     vdW  Elec       q    Type
REMARK                         _______ _______ _______ _____ _____    ______ ____
ROOT
ATOM      1  C   UNL     1       2.250   3.961  18.931  0.00  0.00    +0.000 A 
ATOM      2  C   UNL     1       1.444   5.072  19.131  0.00  0.00    +0.000 A 
ATOM      3  C   UNL     1       2.079   6.208  18.588  0.00  0.00    +0.000 A 
ATOM      4  C   UNL     1       1.691   7.560  18.513  0.00  0.00    +0.000 A 
ATOM      5  C   UNL     1       2.538   8.479  17.902  0.00  0.00    +0.000 A 
ATOM      6 CL   UNL     1       2.088  10.139  17.850  0.00  0.00    +0.000 Cl
ATOM      7  C   UNL     1       3.739   8.066  17.342  0.00  0.00    +0.000 A 
ATOM      8  C   UNL     1       4.136   6.723  17.394  0.00  0.00    +0.000 A 
ATOM      9  C   UNL     1       3.300   5.790  18.042  0.00  0.00    +0.000 A 
ATOM     10  N   UNL     1       3.402   4.425  18.317  0.00  0.00    +0.000 N 
ENDROOT
BRANCH  10  11
ATOM     11  S   UNL     1       4.779   3.442  17.965  0.00  0.00    +0.000 S 
ATOM     12  O   UNL     1       5.699   3.667  19.056  0.00  0.00    +0.000 OA
ATOM     13  O   UNL     1       4.232   2.131  17.682  0.00  0.00    +0.000 OA
BRANCH  11  14
ATOM     14  C   UNL     1       5.563   4.047  16.497  0.00  0.00    +0.000 A 
ATOM     15  C   UNL     1       5.006   3.794  15.235  0.00  0.00    +0.000 A 
ATOM     16  C   UNL     1       5.695   4.161  14.077  0.00  0.00    +0.000 A 
ATOM     17 CL   UNL     1       5.049   3.729  12.542  0.00  0.00    +0.000 Cl
ATOM     18  C   UNL     1       6.910   4.838  14.149  0.00  0.00    +0.000 A 
ATOM     19  C   UNL     1       7.458   5.136  15.396  0.00  0.00    +0.000 A 
ATOM     20  C   UNL     1       6.792   4.724  16.566  0.00  0.00    +0.000 A 
BRANCH  20  21
ATOM     21  N   UNL     1       7.443   5.059  17.825  0.00  0.00    +0.000 N 
ATOM     22  O   UNL     1       7.205   6.168  18.310  0.00  0.00    +0.000 OA
ATOM     23  O   UNL     1       8.276   4.250  18.254  0.00  0.00    +0.000 OA
ENDBRANCH  20  21
ENDBRANCH  11  14
ENDBRANCH  10  11
BRANCH   1  24
ATOM     24  C   UNL     1       1.895   2.592  19.215  0.00  0.00    +0.000 C 
ATOM     25  O   UNL     1       0.935   1.998  18.752  0.00  0.00    +0.000 OA
BRANCH  24  26
ATOM     26  O   UNL     1       2.671   2.154  20.244  0.00  0.00    +0.000 OA
BRANCH  26  28
ATOM     27  C   UNL     1       1.202   2.596  22.070  0.00  0.00    +0.000 C 
ATOM     28  C   UNL     1       2.567   2.889  21.469  0.00  0.00    +0.000 C 
ENDBRANCH  26  28
ENDBRANCH  24  26
ENDBRANCH   1  24
TORSDOF 6
ENDMDL
MODEL 3
REMARK VINA RESULT:      -7.2      1.583      6.069
REMARK  Name = 
REMARK  7 active torsions:
REMARK  status: ('A' for Active; 'I' for Inactive)
REMARK    1  A    between atoms: C_1  and  C_2
REMARK    2  A    between atoms: C_2  and  O_3
REMARK    3  A    between atoms: O_3  and  C_4
REMARK    4  A    between atoms: C_4  and  C_6
REMARK    5  A    between atoms: N_15  and  S_16
REMARK    6  A    between atoms: S_16  and  C_19
REMARK    7  A    between atoms: C_25  and  N_26
REMARK                            x       y       z     vdW  Elec       q    Type
REMARK                         _______ _______ _______ _____ _____    ______ ____
ROOT
ATOM      1  C   UNL     1       6.205   4.604  17.514  0.00  0.00    +0.000 A 
ATOM      2  C   UNL     1       7.196   4.812  16.567  0.00  0.00    +0.000 A 
ATOM      3  C   UNL     1       6.702   4.458  15.295  0.00  0.00    +0.000 A 
ATOM      4  C   UNL     1       7.285   4.491  14.013  0.00  0.00    +0.000 A 
ATOM      5  C   UNL     1       6.539   4.075  12.914  0.00  0.00    +0.000 A 
ATOM      6 CL   UNL     1       7.265   4.070  11.354  0.00  0.00    +0.000 Cl
ATOM      7  C   UNL     1       5.224   3.663  13.071  0.00  0.00    +0.000 A 
ATOM      8  C   UNL     1       4.621   3.637  14.336  0.00  0.00    +0.000 A 
ATOM      9  C   UNL     1       5.380   4.023  15.461  0.00  0.00    +0.000 A 
ATOM     10  N   UNL     1       5.124   4.069  16.832  0.00  0.00    +0.000 N 
ENDROOT
BRANCH  10  11
ATOM     11  S   UNL     1       3.672   3.520  17.591  0.00  0.00    +0.000 S 
ATOM     12  O   UNL     1       2.778   3.184  16.506  0.00  0.00    +0.000 OA
ATOM     13  O   UNL     1       4.111   2.533  18.555  0.00  0.00    +0.000 OA
BRANCH  11  14
ATOM     14  C   UNL     1       2.931   4.867  18.469  0.00  0.00    +0.000 A 
ATOM     15  C   UNL     1       2.993   6.171  17.958  0.00  0.00    +0.000 A 
ATOM     16  C   UNL     1       2.522   7.246  18.716  0.00  0.00    +0.000 A 
ATOM     17 CL   UNL     1       2.721   8.847  18.118  0.00  0.00    +0.000 Cl
ATOM     18  C   UNL     1       1.928   7.042  19.958  0.00  0.00    +0.000 A 
ATOM     19  C   UNL     1       1.820   5.746  20.464  0.00  0.00    +0.000 A 
ATOM     20  C   UNL     1       2.338   4.665  19.726  0.00  0.00    +0.000 A 
BRANCH  20  21
ATOM     21  N   UNL     1       2.199   3.350  20.336  0.00  0.00    +0.000 N 
ATOM     22  O   UNL     1       1.269   2.639  19.949  0.00  0.00    +0.000 OA
ATOM     23  O   UNL     1       2.958   3.091  21.280  0.00  0.00    +0.000 OA
ENDBRANCH  20  21
ENDBRANCH  11  14
ENDBRANCH  10  11
BRANCH   1  24
ATOM     24  C   UNL     1       6.270   4.977  18.907  0.00  0.00    +0.000 C 
ATOM     25  O   UNL     1       5.935   4.273  19.845  0.00  0.00    +0.000 OA
BRANCH  24  26
ATOM     26  O   UNL     1       6.548   6.308  18.980  0.00  0.00    +0.000 OA
BRANCH  26  28
ATOM     27  C   UNL     1       7.961   7.945  17.974  0.00  0.00    +0.000 C 
ATOM     28  C   UNL     1       7.922   6.674  18.807  0.00  0.00    +0.000 C 
ENDBRANCH  26  28
ENDBRANCH  24  26
ENDBRANCH   1  24
TORSDOF 6
ENDMDL
MODEL 4
REMARK VINA RESULT:      -7.2      8.066     10.694
REMARK  Name = 
REMARK  7 active torsions:
REMARK  status: ('A' for Active; 'I' for Inactive)
REMARK    1  A    between atoms: C_1  and  C_2
REMARK    2  A    between atoms: C_2  and  O_3
REMARK    3  A    between atoms: O_3  and  C_4
REMARK    4  A    between atoms: C_4  and  C_6
REMARK    5  A    between atoms: N_15  and  S_16
REMARK    6  A    between atoms: S_16  and  C_19
REMARK    7  A    between atoms: C_25  and  N_26
REMARK                            x       y       z     vdW  Elec       q    Type
REMARK                         _______ _______ _______ _____ _____    ______ ____
ROOT
ATOM      1  C   UNL     1      -0.010  12.054  21.016  0.00  0.00    +0.000 A 
ATOM      2  C   UNL     1       1.245  12.341  20.502  0.00  0.00    +0.000 A 
ATOM      3  C   UNL     1       1.200  13.585  19.839  0.00  0.00    +0.000 A 
ATOM      4  C   UNL     1       2.187  14.332  19.167  0.00  0.00    +0.000 A 
ATOM      5  C   UNL     1       1.846  15.557  18.600  0.00  0.00    +0.000 A 
ATOM      6 CL   UNL     1       3.038  16.449  17.738  0.00  0.00    +0.000 Cl
ATOM      7  C   UNL     1       0.556  16.054  18.721  0.00  0.00    +0.000 A 
ATOM      8  C   UNL     1      -0.436  15.332  19.399  0.00  0.00    +0.000 A 
ATOM      9  C   UNL     1      -0.109  14.074  19.947  0.00  0.00    +0.000 A 
ATOM     10  N   UNL     1      -0.837  13.093  20.621  0.00  0.00    +0.000 N 
ENDROOT
BRANCH  10  11
ATOM     11  S   UNL     1      -2.540  13.143  20.910  0.00  0.00    +0.000 S 
ATOM     12  O   UNL     1      -2.748  12.357  22.106  0.00  0.00    +0.000 OA
ATOM     13  O   UNL     1      -2.883  14.548  20.847  0.00  0.00    +0.000 OA
BRANCH  11  14
ATOM     14  C   UNL     1      -3.376  12.305  19.593  0.00  0.00    +0.000 A 
ATOM     15  C   UNL     1      -2.652  11.743  18.532  0.00  0.00    +0.000 A 
ATOM     16  C   UNL     1      -3.322  11.198  17.434  0.00  0.00    +0.000 A 
ATOM     17 CL   UNL     1      -2.410  10.627  16.092  0.00  0.00    +0.000 Cl
ATOM     18  C   UNL     1      -4.712  11.144  17.397  0.00  0.00    +0.000 A 
ATOM     19  C   UNL     1      -5.449  11.661  18.463  0.00  0.00    +0.000 A 
ATOM     20  C   UNL     1      -4.779  12.255  19.549  0.00  0.00    +0.000 A 
BRANCH  20  21
ATOM     21  N   UNL     1      -5.625  12.785  20.610  0.00  0.00    +0.000 N 
ATOM     22  O   UNL     1      -5.962  13.968  20.530  0.00  0.00    +0.000 OA
ATOM     23  O   UNL     1      -5.849  12.037  21.570  0.00  0.00    +0.000 OA
ENDBRANCH  20  21
ENDBRANCH  11  14
ENDBRANCH  10  11
BRANCH   1  24
ATOM     24  C   UNL     1      -0.341  10.945  21.879  0.00  0.00    +0.000 C 
ATOM     25  O   UNL     1      -0.215  10.929  23.092  0.00  0.00    +0.000 OA
BRANCH  24  26
ATOM     26  O   UNL     1      -0.600   9.860  21.099  0.00  0.00    +0.000 OA
BRANCH  26  28
ATOM     27  C   UNL     1       1.196   8.291  21.156  0.00  0.00    +0.000 C 
ATOM     28  C   UNL     1      -0.215   8.590  21.638  0.00  0.00    +0.000 C 
ENDBRANCH  26  28
ENDBRANCH  24  26
ENDBRANCH   1  24
TORSDOF 6
ENDMDL
MODEL 5
REMARK VINA RESULT:      -7.2      0.816      1.054
REMARK  Name = 
REMARK  7 active torsions:
REMARK  status: ('A' for Active; 'I' for Inactive)
REMARK    1  A    between atoms: C_1  and  C_2
REMARK    2  A    between atoms: C_2  and  O_3
REMARK    3  A    between atoms: O_3  and  C_4
REMARK    4  A    between atoms: C_4  and  C_6
REMARK    5  A    between atoms: N_15  and  S_16
REMARK    6  A    between atoms: S_16  and  C_19
REMARK    7  A    between atoms: C_25  and  N_26
REMARK                            x       y       z     vdW  Elec       q    Type
REMARK                         _______ _______ _______ _____ _____    ______ ____
ROOT
ATOM      1  C   UNL     1       2.582   4.436  20.268  0.00  0.00    +0.000 A 
ATOM      2  C   UNL     1       2.238   5.668  20.804  0.00  0.00    +0.000 A 
ATOM      3  C   UNL     1       2.257   6.640  19.782  0.00  0.00    +0.000 A 
ATOM      4  C   UNL     1       1.979   8.020  19.788  0.00  0.00    +0.000 A 
ATOM      5  C   UNL     1       2.079   8.740  18.601  0.00  0.00    +0.000 A 
ATOM      6 CL   UNL     1       1.784  10.435  18.614  0.00  0.00    +0.000 Cl
ATOM      7  C   UNL     1       2.419   8.102  17.416  0.00  0.00    +0.000 A 
ATOM      8  C   UNL     1       2.686   6.726  17.389  0.00  0.00    +0.000 A 
ATOM      9  C   UNL     1       2.621   5.994  18.592  0.00  0.00    +0.000 A 
ATOM     10  N   UNL     1       2.867   4.663  18.931  0.00  0.00    +0.000 N 
ENDROOT
BRANCH  10  11
ATOM     11  S   UNL     1       3.467   3.457  17.848  0.00  0.00    +0.000 S 
ATOM     12  O   UNL     1       3.925   2.378  18.693  0.00  0.00    +0.000 OA
ATOM     13  O   UNL     1       2.407   3.274  16.878  0.00  0.00    +0.000 OA
BRANCH  11  14
ATOM     14  C   UNL     1       4.889   4.091  17.006  0.00  0.00    +0.000 A 
ATOM     15  C   UNL     1       4.987   4.006  15.609  0.00  0.00    +0.000 A 
ATOM     16  C   UNL     1       6.165   4.389  14.963  0.00  0.00    +0.000 A 
ATOM     17 CL   UNL     1       6.304   4.160  13.264  0.00  0.00    +0.000 Cl
ATOM     18  C   UNL     1       7.236   4.918  15.678  0.00  0.00    +0.000 A 
ATOM     19  C   UNL     1       7.140   5.049  17.063  0.00  0.00    +0.000 A 
ATOM     20  C   UNL     1       5.974   4.619  17.724  0.00  0.00    +0.000 A 
BRANCH  20  21
ATOM     21  N   UNL     1       5.966   4.775  19.172  0.00  0.00    +0.000 N 
ATOM     22  O   UNL     1       6.053   3.752  19.855  0.00  0.00    +0.000 OA
ATOM     23  O   UNL     1       5.756   5.914  19.608  0.00  0.00    +0.000 OA
ENDBRANCH  20  21
ENDBRANCH  11  14
ENDBRANCH  10  11
BRANCH   1  24
ATOM     24  C   UNL     1       2.540   3.169  20.956  0.00  0.00    +0.000 C 
ATOM     25  O   UNL     1       3.508   2.483  21.239  0.00  0.00    +0.000 OA
BRANCH  24  26
ATOM     26  O   UNL     1       1.240   2.768  21.031  0.00  0.00    +0.000 OA
BRANCH  26  28
ATOM     27  C   UNL     1       0.530   1.802  18.970  0.00  0.00    +0.000 C 
ATOM     28  C   UNL     1       0.434   3.020  19.874  0.00  0.00    +0.000 C 
ENDBRANCH  26  28
ENDBRANCH  24  26
ENDBRANCH   1  24
TORSDOF 6
ENDMDL
MODEL 6
REMARK VINA RESULT:      -7.0     10.062     11.212
REMARK  Name = 
REMARK  7 active torsions:
REMARK  status: ('A' for Active; 'I' for Inactive)
REMARK    1  A    between atoms: C_1  and  C_2
REMARK    2  A    between atoms: C_2  and  O_3
REMARK    3  A    between atoms: O_3  and  C_4
REMARK    4  A    between atoms: C_4  and  C_6
REMARK    5  A    between atoms: N_15  and  S_16
REMARK    6  A    between atoms: S_16  and  C_19
REMARK    7  A    between atoms: C_25  and  N_26
REMARK                            x       y       z     vdW  Elec       q    Type
REMARK                         _______ _______ _______ _____ _____    ______ ____
ROOT
ATOM      1  C   UNL     1       6.126  15.485  19.986  0.00  0.00    +0.000 A 
ATOM      2  C   UNL     1       5.441  14.846  21.008  0.00  0.00    +0.000 A 
ATOM      3  C   UNL     1       6.363  14.155  21.821  0.00  0.00    +0.000 A 
ATOM      4  C   UNL     1       6.196  13.370  22.979  0.00  0.00    +0.000 A 
ATOM      5  C   UNL     1       7.313  12.803  23.585  0.00  0.00    +0.000 A 
ATOM      6 CL   UNL     1       7.108  11.806  24.972  0.00  0.00    +0.000 Cl
ATOM      7  C   UNL     1       8.583  13.033  23.075  0.00  0.00    +0.000 A 
ATOM      8  C   UNL     1       8.771  13.823  21.932  0.00  0.00    +0.000 A 
ATOM      9  C   UNL     1       7.642  14.373  21.291  0.00  0.00    +0.000 A 
ATOM     10  N   UNL     1       7.460  15.141  20.140  0.00  0.00    +0.000 N 
ENDROOT
BRANCH  10  11
ATOM     11  S   UNL     1       8.712  15.590  19.038  0.00  0.00    +0.000 S 
ATOM     12  O   UNL     1       8.035  16.210  17.921  0.00  0.00    +0.000 OA
ATOM     13  O   UNL     1       9.674  16.309  19.846  0.00  0.00    +0.000 OA
BRANCH  11  14
ATOM     14  C   UNL     1       9.491  14.125  18.417  0.00  0.00    +0.000 A 
ATOM     15  C   UNL     1       8.936  12.862  18.669  0.00  0.00    +0.000 A 
ATOM     16  C   UNL     1       9.621  11.705  18.290  0.00  0.00    +0.000 A 
ATOM     17 CL   UNL     1       8.979  10.169  18.720  0.00  0.00    +0.000 Cl
ATOM     18  C   UNL     1      10.829  11.780  17.601  0.00  0.00    +0.000 A 
ATOM     19  C   UNL     1      11.374  13.029  17.305  0.00  0.00    +0.000 A 
ATOM     20  C   UNL     1      10.712  14.197  17.729  0.00  0.00    +0.000 A 
BRANCH  20  21
ATOM     21  N   UNL     1      11.361  15.457  17.393  0.00  0.00    +0.000 N 
ATOM     22  O   UNL     1      10.973  16.044  16.380  0.00  0.00    +0.000 OA
ATOM     23  O   UNL     1      12.331  15.787  18.088  0.00  0.00    +0.000 OA
ENDBRANCH  20  21
ENDBRANCH  11  14
ENDBRANCH  10  11
BRANCH   1  24
ATOM     24  C   UNL     1       5.561  16.407  19.031  0.00  0.00    +0.000 C 
ATOM     25  O   UNL     1       5.516  17.619  19.156  0.00  0.00    +0.000 OA
BRANCH  24  26
ATOM     26  O   UNL     1       4.893  15.687  18.087  0.00  0.00    +0.000 OA
BRANCH  26  28
ATOM     27  C   UNL     1       2.838  14.483  17.981  0.00  0.00    +0.000 C 
ATOM     28  C   UNL     1       3.472  15.863  18.047  0.00  0.00    +0.000 C 
ENDBRANCH  26  28
ENDBRANCH  24  26
ENDBRANCH   1  24
TORSDOF 6
ENDMDL
MODEL 7
REMARK VINA RESULT:      -7.0      8.208     10.967
REMARK  Name = 
REMARK  7 active torsions:
REMARK  status: ('A' for Active; 'I' for Inactive)
REMARK    1  A    between atoms: C_1  and  C_2
REMARK    2  A    between atoms: C_2  and  O_3
REMARK    3  A    between atoms: O_3  and  C_4
REMARK    4  A    between atoms: C_4  and  C_6
REMARK    5  A    between atoms: N_15  and  S_16
REMARK    6  A    between atoms: S_16  and  C_19
REMARK    7  A    between atoms: C_25  and  N_26
REMARK                            x       y       z     vdW  Elec       q    Type
REMARK                         _______ _______ _______ _____ _____    ______ ____
ROOT
ATOM      1  C   UNL     1      -0.772  10.994  20.104  0.00  0.00    +0.000 A 
ATOM      2  C   UNL     1      -0.623  10.258  18.939  0.00  0.00    +0.000 A 
ATOM      3  C   UNL     1      -1.707  10.529  18.078  0.00  0.00    +0.000 A 
ATOM      4  C   UNL     1      -2.027  10.062  16.788  0.00  0.00    +0.000 A 
ATOM      5  C   UNL     1      -3.187  10.517  16.168  0.00  0.00    +0.000 A 
ATOM      6 CL   UNL     1      -3.605   9.913  14.612  0.00  0.00    +0.000 Cl
ATOM      7  C   UNL     1      -4.005  11.444  16.798  0.00  0.00    +0.000 A 
ATOM      8  C   UNL     1      -3.696  11.931  18.075  0.00  0.00    +0.000 A 
ATOM      9  C   UNL     1      -2.541  11.450  18.726  0.00  0.00    +0.000 A 
ATOM     10  N   UNL     1      -1.974  11.671  19.983  0.00  0.00    +0.000 N 
ENDROOT
BRANCH  10  11
ATOM     11  S   UNL     1      -2.676  12.638  21.232  0.00  0.00    +0.000 S 
ATOM     12  O   UNL     1      -4.070  12.770  20.875  0.00  0.00    +0.000 OA
ATOM     13  O   UNL     1      -2.257  12.006  22.466  0.00  0.00    +0.000 OA
BRANCH  11  14
ATOM     14  C   UNL     1      -1.974  14.262  21.171  0.00  0.00    +0.000 A 
ATOM     15  C   UNL     1      -1.076  14.613  20.152  0.00  0.00    +0.000 A 
ATOM     16  C   UNL     1      -0.427  15.850  20.183  0.00  0.00    +0.000 A 
ATOM     17 CL   UNL     1       0.760  16.205  18.990  0.00  0.00    +0.000 Cl
ATOM     18  C   UNL     1      -0.703  16.780  21.181  0.00  0.00    +0.000 A 
ATOM     19  C   UNL     1      -1.625  16.464  22.179  0.00  0.00    +0.000 A 
ATOM     20  C   UNL     1      -2.244  15.200  22.181  0.00  0.00    +0.000 A 
BRANCH  20  21
ATOM     21  N   UNL     1      -3.178  14.947  23.269  0.00  0.00    +0.000 N 
ATOM     22  O   UNL     1      -4.367  15.211  23.070  0.00  0.00    +0.000 OA
ATOM     23  O   UNL     1      -2.691  14.595  24.351  0.00  0.00    +0.000 OA
ENDBRANCH  20  21
ENDBRANCH  11  14
ENDBRANCH  10  11
BRANCH   1  24
ATOM     24  C   UNL     1       0.195  11.102  21.170  0.00  0.00    +0.000 C 
ATOM     25  O   UNL     1       1.053  11.963  21.263  0.00  0.00    +0.000 OA
BRANCH  24  26
ATOM     26  O   UNL     1       0.131   9.967  21.921  0.00  0.00    +0.000 OA
BRANCH  26  28
ATOM     27  C   UNL     1       1.234   7.993  21.163  0.00  0.00    +0.000 C 
ATOM     28  C   UNL     1       1.350   9.225  22.045  0.00  0.00    +0.000 C 
ENDBRANCH  26  28
ENDBRANCH  24  26
ENDBRANCH   1  24
TORSDOF 6
ENDMDL
MODEL 8
REMARK VINA RESULT:      -7.0      2.513      5.503
REMARK  Name = 
REMARK  7 active torsions:
REMARK  status: ('A' for Active; 'I' for Inactive)
REMARK    1  A    between atoms: C_1  and  C_2
REMARK    2  A    between atoms: C_2  and  O_3
REMARK    3  A    between atoms: O_3  and  C_4
REMARK    4  A    between atoms: C_4  and  C_6
REMARK    5  A    between atoms: N_15  and  S_16
REMARK    6  A    between atoms: S_16  and  C_19
REMARK    7  A    between atoms: C_25  and  N_26
REMARK                            x       y       z     vdW  Elec       q    Type
REMARK                         _______ _______ _______ _____ _____    ______ ____
ROOT
ATOM      1  C   UNL     1       4.925   6.107  16.981  0.00  0.00    +0.000 A 
ATOM      2  C   UNL     1       4.367   7.329  16.639  0.00  0.00    +0.000 A 
ATOM      3  C   UNL     1       3.399   7.681  17.603  0.00  0.00    +0.000 A 
ATOM      4  C   UNL     1       2.564   8.808  17.734  0.00  0.00    +0.000 A 
ATOM      5  C   UNL     1       1.691   8.887  18.815  0.00  0.00    +0.000 A 
ATOM      6 CL   UNL     1       0.637  10.241  18.952  0.00  0.00    +0.000 Cl
ATOM      7  C   UNL     1       1.664   7.884  19.773  0.00  0.00    +0.000 A 
ATOM      8  C   UNL     1       2.497   6.762  19.668  0.00  0.00    +0.000 A 
ATOM      9  C   UNL     1       3.360   6.656  18.558  0.00  0.00    +0.000 A 
ATOM     10  N   UNL     1       4.261   5.683  18.121  0.00  0.00    +0.000 N 
ENDROOT
BRANCH  10  11
ATOM     11  S   UNL     1       4.509   4.149  18.876  0.00  0.00    +0.000 S 
ATOM     12  O   UNL     1       4.911   3.259  17.810  0.00  0.00    +0.000 OA
ATOM     13  O   UNL     1       5.370   4.429  20.006  0.00  0.00    +0.000 OA
BRANCH  11  14
ATOM     14  C   UNL     1       2.961   3.548  19.490  0.00  0.00    +0.000 A 
ATOM     15  C   UNL     1       2.825   3.172  20.834  0.00  0.00    +0.000 A 
ATOM     16  C   UNL     1       1.641   2.579  21.282  0.00  0.00    +0.000 A 
ATOM     17 CL   UNL     1       1.545   2.015  22.904  0.00  0.00    +0.000 Cl
ATOM     18  C   UNL     1       0.557   2.408  20.426  0.00  0.00    +0.000 A 
ATOM     19  C   UNL     1       0.660   2.815  19.096  0.00  0.00    +0.000 A 
ATOM     20  C   UNL     1       1.867   3.368  18.628  0.00  0.00    +0.000 A 
BRANCH  20  21
ATOM     21  N   UNL     1       1.893   3.748  17.222  0.00  0.00    +0.000 N 
ATOM     22  O   UNL     1       1.209   4.715  16.882  0.00  0.00    +0.000 OA
ATOM     23  O   UNL     1       2.512   3.000  16.455  0.00  0.00    +0.000 OA
ENDBRANCH  20  21
ENDBRANCH  11  14
ENDBRANCH  10  11
BRANCH   1  24
ATOM     24  C   UNL     1       6.045   5.473  16.329  0.00  0.00    +0.000 C 
ATOM     25  O   UNL     1       7.214   5.583  16.661  0.00  0.00    +0.000 OA
BRANCH  24  26
ATOM     26  O   UNL     1       5.606   4.924  15.163  0.00  0.00    +0.000 OA
BRANCH  26  28
ATOM     27  C   UNL     1       5.964   3.678  13.161  0.00  0.00    +0.000 C 
ATOM     28  C   UNL     1       6.618   4.550  14.221  0.00  0.00    +0.000 C 
ENDBRANCH  26  28
ENDBRANCH  24  26
ENDBRANCH   1  24
TORSDOF 6
ENDMDL
MODEL 9
REMARK VINA RESULT:      -7.0      7.732     10.542
REMARK  Name = 
REMARK  7 active torsions:
REMARK  status: ('A' for Active; 'I' for Inactive)
REMARK    1  A    between atoms: C_1  and  C_2
REMARK    2  A    between atoms: C_2  and  O_3
REMARK    3  A    between atoms: O_3  and  C_4
REMARK    4  A    between atoms: C_4  and  C_6
REMARK    5  A    between atoms: N_15  and  S_16
REMARK    6  A    between atoms: S_16  and  C_19
REMARK    7  A    between atoms: C_25  and  N_26
REMARK                            x       y       z     vdW  Elec       q    Type
REMARK                         _______ _______ _______ _____ _____    ______ ____
ROOT
ATOM      1  C   UNL     1      -1.135  11.425  21.978  0.00  0.00    +0.000 A 
ATOM      2  C   UNL     1      -0.472  10.282  22.399  0.00  0.00    +0.000 A 
ATOM      3  C   UNL     1       0.211   9.713  21.303  0.00  0.00    +0.000 A 
ATOM      4  C   UNL     1       1.031   8.574  21.191  0.00  0.00    +0.000 A 
ATOM      5  C   UNL     1       1.584   8.252  19.955  0.00  0.00    +0.000 A 
ATOM      6 CL   UNL     1       2.549   6.835  19.805  0.00  0.00    +0.000 Cl
ATOM      7  C   UNL     1       1.359   9.061  18.850  0.00  0.00    +0.000 A 
ATOM      8  C   UNL     1       0.557  10.206  18.946  0.00  0.00    +0.000 A 
ATOM      9  C   UNL     1      -0.037  10.522  20.185  0.00  0.00    +0.000 A 
ATOM     10  N   UNL     1      -0.906  11.525  20.616  0.00  0.00    +0.000 N 
ENDROOT
BRANCH  10  11
ATOM     11  S   UNL     1      -1.623  12.722  19.596  0.00  0.00    +0.000 S 
ATOM     12  O   UNL     1      -1.617  13.940  20.374  0.00  0.00    +0.000 OA
ATOM     13  O   UNL     1      -0.911  12.611  18.340  0.00  0.00    +0.000 OA
BRANCH  11  14
ATOM     14  C   UNL     1      -3.320  12.301  19.313  0.00  0.00    +0.000 A 
ATOM     15  C   UNL     1      -4.333  12.852  20.111  0.00  0.00    +0.000 A 
ATOM     16  C   UNL     1      -5.654  12.418  19.968  0.00  0.00    +0.000 A 
ATOM     17 CL   UNL     1      -6.856  13.019  21.041  0.00  0.00    +0.000 Cl
ATOM     18  C   UNL     1      -6.001  11.484  18.995  0.00  0.00    +0.000 A 
ATOM     19  C   UNL     1      -5.012  10.957  18.165  0.00  0.00    +0.000 A 
ATOM     20  C   UNL     1      -3.672  11.354  18.338  0.00  0.00    +0.000 A 
BRANCH  20  21
ATOM     21  N   UNL     1      -2.703  10.741  17.440  0.00  0.00    +0.000 N 
ATOM     22  O   UNL     1      -2.462  11.323  16.380  0.00  0.00    +0.000 OA
ATOM     23  O   UNL     1      -2.279   9.622  17.758  0.00  0.00    +0.000 OA
ENDBRANCH  20  21
ENDBRANCH  11  14
ENDBRANCH  10  11
BRANCH   1  24
ATOM     24  C   UNL     1      -1.828  12.365  22.826  0.00  0.00    +0.000 C 
ATOM     25  O   UNL     1      -1.308  13.281  23.440  0.00  0.00    +0.000 OA
BRANCH  24  26
ATOM     26  O   UNL     1      -3.104  11.923  22.999  0.00  0.00    +0.000 OA
BRANCH  26  28
ATOM     27  C   UNL     1      -4.815  13.353  23.845  0.00  0.00    +0.000 C 
ATOM     28  C   UNL     1      -3.753  12.329  24.211  0.00  0.00    +0.000 C 
ENDBRANCH  26  28
ENDBRANCH  24  26
ENDBRANCH   1  24
TORSDOF 6
ENDMDL
