MODEL 1
REMARK VINA RESULT:      -7.6      0.000      0.000
REMARK  Name = 
REMARK  6 active torsions:
REMARK  status: ('A' for Active; 'I' for Inactive)
REMARK    1  A    between atoms: C_1  and  O_2
REMARK    2  A    between atoms: O_2  and  C_3
REMARK    3  A    between atoms: C_7  and  C_8
REMARK    4  A    between atoms: N_13  and  C_14
REMARK    5  A    between atoms: C_21  and  O_22
REMARK    6  A    between atoms: O_22  and  C_23
REMARK                            x       y       z     vdW  Elec       q    Type
REMARK                         _______ _______ _______ _____ _____    ______ ____
ROOT
ATOM      1  C   UNL     1       4.201   4.161  19.228  0.00  0.00    +0.000 C 
ATOM      2  S   UNL     1       4.239   2.350  19.442  0.00  0.00    +0.000 S 
ATOM      3  C   UNL     1       2.489   2.234  19.802  0.00  0.00    +0.000 C 
ATOM      4  C   UNL     1       1.881   3.605  19.650  0.00  0.00    +0.000 C 
ATOM      5  O   UNL     1       0.686   3.791  19.888  0.00  0.00    +0.000 OA
ATOM      6  N   UNL     1       2.810   4.580  19.293  0.00  0.00    +0.000 N 
ENDROOT
BRANCH   6   7
ATOM      7  C   UNL     1       2.454   5.961  19.265  0.00  0.00    +0.000 A 
ATOM      8  C   UNL     1       2.058   6.637  20.426  0.00  0.00    +0.000 A 
ATOM      9  C   UNL     1       1.675   7.983  20.376  0.00  0.00    +0.000 A 
ATOM     10  C   UNL     1       1.715   8.670  19.168  0.00  0.00    +0.000 A 
ATOM     11 CL   UNL     1       1.248  10.325  19.109  0.00  0.00    +0.000 Cl
ATOM     12  C   UNL     1       2.124   8.022  18.007  0.00  0.00    +0.000 A 
ATOM     13  C   UNL     1       2.478   6.670  18.054  0.00  0.00    +0.000 A 
ENDBRANCH   6   7
BRANCH   1  18
ATOM     14  C   UNL     1       6.740   5.692  16.771  0.00  0.00    +0.000 A 
ATOM     15  C   UNL     1       6.327   5.106  15.568  0.00  0.00    +0.000 A 
ATOM     16  C   UNL     1       5.177   4.321  15.524  0.00  0.00    +0.000 A 
ATOM     17  C   UNL     1       4.460   4.069  16.690  0.00  0.00    +0.000 A 
ATOM     18  C   UNL     1       4.912   4.554  17.934  0.00  0.00    +0.000 A 
ATOM     19  C   UNL     1       6.059   5.380  17.965  0.00  0.00    +0.000 A 
BRANCH  14  21
ATOM     20  C   UNL     1       7.518   7.890  17.243  0.00  0.00    +0.000 C 
ATOM     21  O   UNL     1       7.802   6.557  16.828  0.00  0.00    +0.000 OA
ENDBRANCH  14  21
BRANCH  19  22
ATOM     22  O   UNL     1       6.356   5.892  19.204  0.00  0.00    +0.000 OA
ATOM     23  C   UNL     1       7.568   5.481  19.820  0.00  0.00    +0.000 C 
ENDBRANCH  19  22
ENDBRANCH   1  18
TORSDOF 4
ENDMDL
MODEL 2
REMARK VINA RESULT:      -7.6      0.144      1.015
REMARK  Name = 
REMARK  6 active torsions:
REMARK  status: ('A' for Active; 'I' for Inactive)
REMARK    1  A    between atoms: C_1  and  O_2
REMARK    2  A    between atoms: O_2  and  C_3
REMARK    3  A    between atoms: C_7  and  C_8
REMARK    4  A    between atoms: N_13  and  C_14
REMARK    5  A    between atoms: C_21  and  O_22
REMARK    6  A    between atoms: O_22  and  C_23
REMARK                            x       y       z     vdW  Elec       q    Type
REMARK                         _______ _______ _______ _____ _____    ______ ____
ROOT
ATOM      1  C   UNL     1       4.202   4.078  19.103  0.00  0.00    +0.000 C 
ATOM      2  S   UNL     1       4.258   2.261  19.259  0.00  0.00    +0.000 S 
ATOM      3  C   UNL     1       2.503   2.114  19.579  0.00  0.00    +0.000 C 
ATOM      4  C   UNL     1       1.881   3.483  19.460  0.00  0.00    +0.000 C 
ATOM      5  O   UNL     1       0.680   3.648  19.679  0.00  0.00    +0.000 OA
ATOM      6  N   UNL     1       2.806   4.480  19.153  0.00  0.00    +0.000 N 
ENDROOT
BRANCH   6   7
ATOM      7  C   UNL     1       2.434   5.856  19.163  0.00  0.00    +0.000 A 
ATOM      8  C   UNL     1       2.447   6.625  17.992  0.00  0.00    +0.000 A 
ATOM      9  C   UNL     1       2.116   7.985  18.025  0.00  0.00    +0.000 A 
ATOM     10  C   UNL     1       1.738   8.578  19.224  0.00  0.00    +0.000 A 
ATOM     11 CL   UNL     1       1.326  10.248  19.261  0.00  0.00    +0.000 Cl
ATOM     12  C   UNL     1       1.699   7.827  20.394  0.00  0.00    +0.000 A 
ATOM     13  C   UNL     1       2.059   6.476  20.365  0.00  0.00    +0.000 A 
ENDBRANCH   6   7
BRANCH   1  18
ATOM     14  C   UNL     1       6.768   5.723  16.750  0.00  0.00    +0.000 A 
ATOM     15  C   UNL     1       6.390   5.168  15.520  0.00  0.00    +0.000 A 
ATOM     16  C   UNL     1       5.254   4.367  15.428  0.00  0.00    +0.000 A 
ATOM     17  C   UNL     1       4.517   4.068  16.570  0.00  0.00    +0.000 A 
ATOM     18  C   UNL     1       4.935   4.521  17.837  0.00  0.00    +0.000 A 
ATOM     19  C   UNL     1       6.068   5.364  17.918  0.00  0.00    +0.000 A 
BRANCH  14  21
ATOM     20  C   UNL     1       7.494   7.930  17.259  0.00  0.00    +0.000 C 
ATOM     21  O   UNL     1       7.815   6.602  16.855  0.00  0.00    +0.000 OA
ENDBRANCH  14  21
BRANCH  19  22
ATOM     22  O   UNL     1       6.329   5.842  19.178  0.00  0.00    +0.000 OA
ATOM     23  C   UNL     1       7.553   5.463  19.792  0.00  0.00    +0.000 C 
ENDBRANCH  19  22
ENDBRANCH   1  18
TORSDOF 4
ENDMDL
MODEL 3
REMARK VINA RESULT:      -6.8      1.410      2.309
REMARK  Name = 
REMARK  6 active torsions:
REMARK  status: ('A' for Active; 'I' for Inactive)
REMARK    1  A    between atoms: C_1  and  O_2
REMARK    2  A    between atoms: O_2  and  C_3
REMARK    3  A    between atoms: C_7  and  C_8
REMARK    4  A    between atoms: N_13  and  C_14
REMARK    5  A    between atoms: C_21  and  O_22
REMARK    6  A    between atoms: O_22  and  C_23
REMARK                            x       y       z     vdW  Elec       q    Type
REMARK                         _______ _______ _______ _____ _____    ______ ____
ROOT
ATOM      1  C   UNL     1       4.201   4.297  19.949  0.00  0.00    +0.000 C 
ATOM      2  S   UNL     1       4.191   2.506  20.294  0.00  0.00    +0.000 S 
ATOM      3  C   UNL     1       2.407   2.380  20.227  0.00  0.00    +0.000 C 
ATOM      4  C   UNL     1       1.850   3.726  19.836  0.00  0.00    +0.000 C 
ATOM      5  O   UNL     1       0.633   3.904  19.763  0.00  0.00    +0.000 OA
ATOM      6  N   UNL     1       2.835   4.693  19.646  0.00  0.00    +0.000 N 
ENDROOT
BRANCH   6   7
ATOM      7  C   UNL     1       2.493   6.061  19.435  0.00  0.00    +0.000 A 
ATOM      8  C   UNL     1       2.010   6.863  20.477  0.00  0.00    +0.000 A 
ATOM      9  C   UNL     1       1.642   8.193  20.246  0.00  0.00    +0.000 A 
ATOM     10  C   UNL     1       1.784   8.741  18.976  0.00  0.00    +0.000 A 
ATOM     11 CL   UNL     1       1.336  10.378  18.695  0.00  0.00    +0.000 Cl
ATOM     12  C   UNL     1       2.280   7.967  17.932  0.00  0.00    +0.000 A 
ATOM     13  C   UNL     1       2.619   6.629  18.158  0.00  0.00    +0.000 A 
ENDBRANCH   6   7
BRANCH   1  18
ATOM     14  C   UNL     1       5.995   4.338  16.542  0.00  0.00    +0.000 A 
ATOM     15  C   UNL     1       6.933   5.357  16.752  0.00  0.00    +0.000 A 
ATOM     16  C   UNL     1       7.068   5.944  18.008  0.00  0.00    +0.000 A 
ATOM     17  C   UNL     1       6.230   5.558  19.050  0.00  0.00    +0.000 A 
ATOM     18  C   UNL     1       5.205   4.616  18.841  0.00  0.00    +0.000 A 
ATOM     19  C   UNL     1       5.098   3.997  17.573  0.00  0.00    +0.000 A 
BRANCH  14  21
ATOM     20  C   UNL     1       6.396   4.349  14.197  0.00  0.00    +0.000 C 
ATOM     21  O   UNL     1       5.912   3.665  15.350  0.00  0.00    +0.000 OA
ENDBRANCH  14  21
BRANCH  19  22
ATOM     22  O   UNL     1       4.141   3.015  17.501  0.00  0.00    +0.000 OA
ATOM     23  C   UNL     1       3.024   3.238  16.653  0.00  0.00    +0.000 C 
ENDBRANCH  19  22
ENDBRANCH   1  18
TORSDOF 4
ENDMDL
MODEL 4
REMARK VINA RESULT:      -6.7      1.438      2.535
REMARK  Name = 
REMARK  6 active torsions:
REMARK  status: ('A' for Active; 'I' for Inactive)
REMARK    1  A    between atoms: C_1  and  O_2
REMARK    2  A    between atoms: O_2  and  C_3
REMARK    3  A    between atoms: C_7  and  C_8
REMARK    4  A    between atoms: N_13  and  C_14
REMARK    5  A    between atoms: C_21  and  O_22
REMARK    6  A    between atoms: O_22  and  C_23
REMARK                            x       y       z     vdW  Elec       q    Type
REMARK                         _______ _______ _______ _____ _____    ______ ____
ROOT
ATOM      1  C   UNL     1       4.140   4.300  20.031  0.00  0.00    +0.000 C 
ATOM      2  S   UNL     1       4.129   2.519  20.423  0.00  0.00    +0.000 S 
ATOM      3  C   UNL     1       2.347   2.385  20.325  0.00  0.00    +0.000 C 
ATOM      4  C   UNL     1       1.793   3.717  19.888  0.00  0.00    +0.000 C 
ATOM      5  O   UNL     1       0.577   3.888  19.788  0.00  0.00    +0.000 OA
ATOM      6  N   UNL     1       2.778   4.683  19.691  0.00  0.00    +0.000 N 
ENDROOT
BRANCH   6   7
ATOM      7  C   UNL     1       2.435   6.043  19.437  0.00  0.00    +0.000 A 
ATOM      8  C   UNL     1       2.565   6.603  18.159  0.00  0.00    +0.000 A 
ATOM      9  C   UNL     1       2.260   7.951  17.934  0.00  0.00    +0.000 A 
ATOM     10  C   UNL     1       1.792   8.740  18.979  0.00  0.00    +0.000 A 
ATOM     11 CL   UNL     1       1.414  10.395  18.699  0.00  0.00    +0.000 Cl
ATOM     12  C   UNL     1       1.638   8.198  20.250  0.00  0.00    +0.000 A 
ATOM     13  C   UNL     1       1.972   6.859  20.480  0.00  0.00    +0.000 A 
ENDBRANCH   6   7
BRANCH   1  18
ATOM     14  C   UNL     1       5.985   4.275  16.651  0.00  0.00    +0.000 A 
ATOM     15  C   UNL     1       6.930   5.288  16.861  0.00  0.00    +0.000 A 
ATOM     16  C   UNL     1       7.051   5.891  18.110  0.00  0.00    +0.000 A 
ATOM     17  C   UNL     1       6.194   5.529  19.145  0.00  0.00    +0.000 A 
ATOM     18  C   UNL     1       5.163   4.593  18.934  0.00  0.00    +0.000 A 
ATOM     19  C   UNL     1       5.069   3.957  17.674  0.00  0.00    +0.000 A 
BRANCH  14  21
ATOM     20  C   UNL     1       6.042   4.353  14.274  0.00  0.00    +0.000 C 
ATOM     21  O   UNL     1       5.913   3.586  15.468  0.00  0.00    +0.000 OA
ENDBRANCH  14  21
BRANCH  19  22
ATOM     22  O   UNL     1       4.104   2.984  17.600  0.00  0.00    +0.000 OA
ATOM     23  C   UNL     1       3.007   3.200  16.724  0.00  0.00    +0.000 C 
ENDBRANCH  19  22
ENDBRANCH   1  18
TORSDOF 4
ENDMDL
MODEL 5
REMARK VINA RESULT:      -6.5      1.158      2.379
REMARK  Name = 
REMARK  6 active torsions:
REMARK  status: ('A' for Active; 'I' for Inactive)
REMARK    1  A    between atoms: C_1  and  O_2
REMARK    2  A    between atoms: O_2  and  C_3
REMARK    3  A    between atoms: C_7  and  C_8
REMARK    4  A    between atoms: N_13  and  C_14
REMARK    5  A    between atoms: C_21  and  O_22
REMARK    6  A    between atoms: O_22  and  C_23
REMARK                            x       y       z     vdW  Elec       q    Type
REMARK                         _______ _______ _______ _____ _____    ______ ____
ROOT
ATOM      1  C   UNL     1       4.323   4.367  19.552  0.00  0.00    +0.000 C 
ATOM      2  S   UNL     1       4.466   2.550  19.477  0.00  0.00    +0.000 S 
ATOM      3  C   UNL     1       2.740   2.310  19.067  0.00  0.00    +0.000 C 
ATOM      4  C   UNL     1       2.100   3.664  18.896  0.00  0.00    +0.000 C 
ATOM      5  O   UNL     1       0.896   3.762  18.651  0.00  0.00    +0.000 OA
ATOM      6  N   UNL     1       2.985   4.720  19.107  0.00  0.00    +0.000 N 
ENDROOT
BRANCH   6   7
ATOM      7  C   UNL     1       2.524   6.069  19.151  0.00  0.00    +0.000 A 
ATOM      8  C   UNL     1       2.497   6.870  18.002  0.00  0.00    +0.000 A 
ATOM      9  C   UNL     1       2.078   8.204  18.070  0.00  0.00    +0.000 A 
ATOM     10  C   UNL     1       1.652   8.737  19.281  0.00  0.00    +0.000 A 
ATOM     11 CL   UNL     1       1.132  10.375  19.360  0.00  0.00    +0.000 Cl
ATOM     12  C   UNL     1       1.652   7.952  20.429  0.00  0.00    +0.000 A 
ATOM     13  C   UNL     1       2.099   6.628  20.366  0.00  0.00    +0.000 A 
ENDBRANCH   6   7
BRANCH   1  18
ATOM     14  C   UNL     1       6.358   5.770  16.599  0.00  0.00    +0.000 A 
ATOM     15  C   UNL     1       7.413   6.392  17.280  0.00  0.00    +0.000 A 
ATOM     16  C   UNL     1       7.534   6.264  18.661  0.00  0.00    +0.000 A 
ATOM     17  C   UNL     1       6.573   5.561  19.382  0.00  0.00    +0.000 A 
ATOM     18  C   UNL     1       5.443   5.018  18.740  0.00  0.00    +0.000 A 
ATOM     19  C   UNL     1       5.346   5.119  17.332  0.00  0.00    +0.000 A 
BRANCH  14  21
ATOM     20  C   UNL     1       7.159   4.919  14.527  0.00  0.00    +0.000 C 
ATOM     21  O   UNL     1       6.272   5.784  15.230  0.00  0.00    +0.000 OA
ENDBRANCH  14  21
BRANCH  19  22
ATOM     22  O   UNL     1       4.269   4.465  16.789  0.00  0.00    +0.000 OA
ATOM     23  C   UNL     1       4.519   3.290  16.030  0.00  0.00    +0.000 C 
ENDBRANCH  19  22
ENDBRANCH   1  18
TORSDOF 4
ENDMDL
MODEL 6
REMARK VINA RESULT:      -6.3      9.778     12.700
REMARK  Name = 
REMARK  6 active torsions:
REMARK  status: ('A' for Active; 'I' for Inactive)
REMARK    1  A    between atoms: C_1  and  O_2
REMARK    2  A    between atoms: O_2  and  C_3
REMARK    3  A    between atoms: C_7  and  C_8
REMARK    4  A    between atoms: N_13  and  C_14
REMARK    5  A    between atoms: C_21  and  O_22
REMARK    6  A    between atoms: O_22  and  C_23
REMARK                            x       y       z     vdW  Elec       q    Type
REMARK                         _______ _______ _______ _____ _____    ______ ____
ROOT
ATOM      1  C   UNL     1      -5.076  13.895  21.282  0.00  0.00    +0.000 C 
ATOM      2  S   UNL     1      -5.837  15.468  20.760  0.00  0.00    +0.000 S 
ATOM      3  C   UNL     1      -4.269  16.318  20.610  0.00  0.00    +0.000 C 
ATOM      4  C   UNL     1      -3.164  15.327  20.875  0.00  0.00    +0.000 C 
ATOM      5  O   UNL     1      -1.985  15.685  20.871  0.00  0.00    +0.000 OA
ATOM      6  N   UNL     1      -3.634  14.048  21.171  0.00  0.00    +0.000 N 
ENDROOT
BRANCH   6   7
ATOM      7  C   UNL     1      -2.747  13.022  21.610  0.00  0.00    +0.000 A 
ATOM      8  C   UNL     1      -1.825  12.430  20.736  0.00  0.00    +0.000 A 
ATOM      9  C   UNL     1      -0.987  11.397  21.172  0.00  0.00    +0.000 A 
ATOM     10  C   UNL     1      -1.042  10.970  22.494  0.00  0.00    +0.000 A 
ATOM     11 CL   UNL     1      -0.008   9.704  23.029  0.00  0.00    +0.000 Cl
ATOM     12  C   UNL     1      -1.936  11.559  23.382  0.00  0.00    +0.000 A 
ATOM     13  C   UNL     1      -2.794  12.570  22.937  0.00  0.00    +0.000 A 
ENDBRANCH   6   7
BRANCH   1  18
ATOM     14  C   UNL     1      -7.060  10.747  20.293  0.00  0.00    +0.000 A 
ATOM     15  C   UNL     1      -6.845  10.726  18.909  0.00  0.00    +0.000 A 
ATOM     16  C   UNL     1      -5.979  11.641  18.315  0.00  0.00    +0.000 A 
ATOM     17  C   UNL     1      -5.364  12.621  19.090  0.00  0.00    +0.000 A 
ATOM     18  C   UNL     1      -5.645  12.736  20.465  0.00  0.00    +0.000 A 
ATOM     19  C   UNL     1      -6.496  11.780  21.067  0.00  0.00    +0.000 A 
BRANCH  14  21
ATOM     20  C   UNL     1      -7.578   8.439  20.549  0.00  0.00    +0.000 C 
ATOM     21  O   UNL     1      -7.818   9.793  20.922  0.00  0.00    +0.000 OA
ENDBRANCH  14  21
BRANCH  19  22
ATOM     22  O   UNL     1      -6.621  11.910  22.428  0.00  0.00    +0.000 OA
ATOM     23  C   UNL     1      -7.860  12.381  22.940  0.00  0.00    +0.000 C 
ENDBRANCH  19  22
ENDBRANCH   1  18
TORSDOF 4
ENDMDL
MODEL 7
REMARK VINA RESULT:      -6.3      0.915      1.449
REMARK  Name = 
REMARK  6 active torsions:
REMARK  status: ('A' for Active; 'I' for Inactive)
REMARK    1  A    between atoms: C_1  and  O_2
REMARK    2  A    between atoms: O_2  and  C_3
REMARK    3  A    between atoms: C_7  and  C_8
REMARK    4  A    between atoms: N_13  and  C_14
REMARK    5  A    between atoms: C_21  and  O_22
REMARK    6  A    between atoms: O_22  and  C_23
REMARK                            x       y       z     vdW  Elec       q    Type
REMARK                         _______ _______ _______ _____ _____    ______ ____
ROOT
ATOM      1  C   UNL     1       4.264   4.285  19.432  0.00  0.00    +0.000 C 
ATOM      2  S   UNL     1       4.364   2.594  20.108  0.00  0.00    +0.000 S 
ATOM      3  C   UNL     1       2.718   2.647  20.811  0.00  0.00    +0.000 C 
ATOM      4  C   UNL     1       2.077   3.955  20.419  0.00  0.00    +0.000 C 
ATOM      5  O   UNL     1       0.949   4.245  20.821  0.00  0.00    +0.000 OA
ATOM      6  N   UNL     1       2.908   4.764  19.646  0.00  0.00    +0.000 N 
ENDROOT
BRANCH   6   7
ATOM      7  C   UNL     1       2.537   6.102  19.322  0.00  0.00    +0.000 A 
ATOM      8  C   UNL     1       2.582   6.573  18.003  0.00  0.00    +0.000 A 
ATOM      9  C   UNL     1       2.251   7.900  17.705  0.00  0.00    +0.000 A 
ATOM     10  C   UNL     1       1.843   8.757  18.720  0.00  0.00    +0.000 A 
ATOM     11 CL   UNL     1       1.433  10.387  18.351  0.00  0.00    +0.000 Cl
ATOM     12  C   UNL     1       1.773   8.304  20.033  0.00  0.00    +0.000 A 
ATOM     13  C   UNL     1       2.132   6.986  20.333  0.00  0.00    +0.000 A 
ENDBRANCH   6   7
BRANCH   1  18
ATOM     14  C   UNL     1       6.256   5.023  16.221  0.00  0.00    +0.000 A 
ATOM     15  C   UNL     1       5.631   4.152  15.319  0.00  0.00    +0.000 A 
ATOM     16  C   UNL     1       4.509   3.423  15.705  0.00  0.00    +0.000 A 
ATOM     17  C   UNL     1       4.035   3.514  17.010  0.00  0.00    +0.000 A 
ATOM     18  C   UNL     1       4.707   4.296  17.970  0.00  0.00    +0.000 A 
ATOM     19  C   UNL     1       5.823   5.062  17.561  0.00  0.00    +0.000 A 
BRANCH  14  21
ATOM     20  C   UNL     1       7.824   5.624  14.536  0.00  0.00    +0.000 C 
ATOM     21  O   UNL     1       7.294   5.835  15.841  0.00  0.00    +0.000 OA
ENDBRANCH  14  21
BRANCH  19  22
ATOM     22  O   UNL     1       6.342   5.875  18.538  0.00  0.00    +0.000 OA
ATOM     23  C   UNL     1       7.654   5.597  19.007  0.00  0.00    +0.000 C 
ENDBRANCH  19  22
ENDBRANCH   1  18
TORSDOF 4
ENDMDL
MODEL 8
REMARK VINA RESULT:      -6.3      0.917      1.045
REMARK  Name = 
REMARK  6 active torsions:
REMARK  status: ('A' for Active; 'I' for Inactive)
REMARK    1  A    between atoms: C_1  and  O_2
REMARK    2  A    between atoms: O_2  and  C_3
REMARK    3  A    between atoms: C_7  and  C_8
REMARK    4  A    between atoms: N_13  and  C_14
REMARK    5  A    between atoms: C_21  and  O_22
REMARK    6  A    between atoms: O_22  and  C_23
REMARK                            x       y       z     vdW  Elec       q    Type
REMARK                         _______ _______ _______ _____ _____    ______ ____
ROOT
ATOM      1  C   UNL     1       4.265   4.267  19.440  0.00  0.00    +0.000 C 
ATOM      2  S   UNL     1       4.351   2.565  20.091  0.00  0.00    +0.000 S 
ATOM      3  C   UNL     1       2.708   2.623  20.798  0.00  0.00    +0.000 C 
ATOM      4  C   UNL     1       2.077   3.942  20.427  0.00  0.00    +0.000 C 
ATOM      5  O   UNL     1       0.953   4.236  20.836  0.00  0.00    +0.000 OA
ATOM      6  N   UNL     1       2.913   4.754  19.663  0.00  0.00    +0.000 N 
ENDROOT
BRANCH   6   7
ATOM      7  C   UNL     1       2.554   6.099  19.358  0.00  0.00    +0.000 A 
ATOM      8  C   UNL     1       2.156   6.995  20.360  0.00  0.00    +0.000 A 
ATOM      9  C   UNL     1       1.770   8.302  20.040  0.00  0.00    +0.000 A 
ATOM     10  C   UNL     1       1.809   8.732  18.718  0.00  0.00    +0.000 A 
ATOM     11 CL   UNL     1       1.338  10.340  18.328  0.00  0.00    +0.000 Cl
ATOM     12  C   UNL     1       2.220   7.865  17.712  0.00  0.00    +0.000 A 
ATOM     13  C   UNL     1       2.577   6.550  18.030  0.00  0.00    +0.000 A 
ENDBRANCH   6   7
BRANCH   1  18
ATOM     14  C   UNL     1       6.264   5.020  16.236  0.00  0.00    +0.000 A 
ATOM     15  C   UNL     1       5.620   4.177  15.321  0.00  0.00    +0.000 A 
ATOM     16  C   UNL     1       4.484   3.464  15.697  0.00  0.00    +0.000 A 
ATOM     17  C   UNL     1       4.014   3.542  17.005  0.00  0.00    +0.000 A 
ATOM     18  C   UNL     1       4.705   4.294  17.976  0.00  0.00    +0.000 A 
ATOM     19  C   UNL     1       5.835   5.045  17.578  0.00  0.00    +0.000 A 
BRANCH  14  21
ATOM     20  C   UNL     1       7.831   5.627  14.552  0.00  0.00    +0.000 C 
ATOM     21  O   UNL     1       7.317   5.818  15.867  0.00  0.00    +0.000 OA
ENDBRANCH  14  21
BRANCH  19  22
ATOM     22  O   UNL     1       6.372   5.830  18.567  0.00  0.00    +0.000 OA
ATOM     23  C   UNL     1       7.693   5.540  19.001  0.00  0.00    +0.000 C 
ENDBRANCH  19  22
ENDBRANCH   1  18
TORSDOF 4
ENDMDL
MODEL 9
REMARK VINA RESULT:      -6.3      9.596     12.555
REMARK  Name = 
REMARK  6 active torsions:
REMARK  status: ('A' for Active; 'I' for Inactive)
REMARK    1  A    between atoms: C_1  and  O_2
REMARK    2  A    between atoms: O_2  and  C_3
REMARK    3  A    between atoms: C_7  and  C_8
REMARK    4  A    between atoms: N_13  and  C_14
REMARK    5  A    between atoms: C_21  and  O_22
REMARK    6  A    between atoms: O_22  and  C_23
REMARK                            x       y       z     vdW  Elec       q    Type
REMARK                         _______ _______ _______ _____ _____    ______ ____
ROOT
ATOM      1  C   UNL     1      -4.867  13.905  21.276  0.00  0.00    +0.000 C 
ATOM      2  S   UNL     1      -5.553  15.515  20.759  0.00  0.00    +0.000 S 
ATOM      3  C   UNL     1      -3.945  16.283  20.593  0.00  0.00    +0.000 C 
ATOM      4  C   UNL     1      -2.889  15.238  20.849  0.00  0.00    +0.000 C 
ATOM      5  O   UNL     1      -1.694  15.536  20.833  0.00  0.00    +0.000 OA
ATOM      6  N   UNL     1      -3.420  13.985  21.151  0.00  0.00    +0.000 N 
ENDROOT
BRANCH   6   7
ATOM      7  C   UNL     1      -2.582  12.915  21.583  0.00  0.00    +0.000 A 
ATOM      8  C   UNL     1      -2.636  12.429  22.897  0.00  0.00    +0.000 A 
ATOM      9  C   UNL     1      -1.780  11.404  23.316  0.00  0.00    +0.000 A 
ATOM     10  C   UNL     1      -0.886  10.836  22.416  0.00  0.00    +0.000 A 
ATOM     11 CL   UNL     1       0.161   9.572  22.932  0.00  0.00    +0.000 Cl
ATOM     12  C   UNL     1      -0.831  11.290  21.103  0.00  0.00    +0.000 A 
ATOM     13  C   UNL     1      -1.666  12.335  20.693  0.00  0.00    +0.000 A 
ENDBRANCH   6   7
BRANCH   1  18
ATOM     14  C   UNL     1      -6.976  10.827  20.324  0.00  0.00    +0.000 A 
ATOM     15  C   UNL     1      -6.822  10.825  18.932  0.00  0.00    +0.000 A 
ATOM     16  C   UNL     1      -5.959  11.728  18.316  0.00  0.00    +0.000 A 
ATOM     17  C   UNL     1      -5.285  12.678  19.078  0.00  0.00    +0.000 A 
ATOM     18  C   UNL     1      -5.502  12.776  20.466  0.00  0.00    +0.000 A 
ATOM     19  C   UNL     1      -6.351  11.832  21.090  0.00  0.00    +0.000 A 
BRANCH  14  21
ATOM     20  C   UNL     1      -7.610   8.542  20.504  0.00  0.00    +0.000 C 
ATOM     21  O   UNL     1      -7.731   9.883  20.970  0.00  0.00    +0.000 OA
ENDBRANCH  14  21
BRANCH  19  22
ATOM     22  O   UNL     1      -6.413  11.941  22.457  0.00  0.00    +0.000 OA
ATOM     23  C   UNL     1      -7.613  12.442  23.029  0.00  0.00    +0.000 C 
ENDBRANCH  19  22
ENDBRANCH   1  18
TORSDOF 4
ENDMDL
