MODEL 1
REMARK VINA RESULT:      -8.7      0.000      0.000
REMARK  Name = 
REMARK  7 active torsions:
REMARK  status: ('A' for Active; 'I' for Inactive)
REMARK    1  A    between atoms: C_1  and  C_2
REMARK    2  A    between atoms: C_5  and  O_6
REMARK    3  A    between atoms: O_6  and  C_7
REMARK    4  A    between atoms: C_7  and  C_8
REMARK    5  A    between atoms: N_10  and  C_11
REMARK    6  A    between atoms: N_14  and  C_15
REMARK    7  A    between atoms: C_15  and  C_16
REMARK                            x       y       z     vdW  Elec       q    Type
REMARK                         _______ _______ _______ _____ _____    ______ ____
ROOT
ATOM      1  C   UNL     1       8.025   7.887  17.950  0.00  0.00    +0.000 C 
ATOM      2  O   UNL     1       8.558   7.334  18.908  0.00  0.00    +0.000 OA
ATOM      3  N   UNL     1       7.400   7.193  16.929  0.00  0.00    +0.000 N 
ATOM      4  H   UNL     1       6.883   7.721  16.238  0.00  0.00    +0.000 HD
ENDROOT
BRANCH   3   5
ATOM      5  C   UNL     1       7.335   5.730  16.890  0.00  0.00    +0.000 C 
ATOM      6  C   UNL     1       6.397   5.229  15.795  0.00  0.00    +0.000 C 
ATOM      7  C   UNL     1       4.928   5.526  16.107  0.00  0.00    +0.000 C 
ATOM      8  N   UNL     1       4.491   5.059  17.432  0.00  0.00    +0.000 NA
ATOM      9  C   UNL     1       5.424   5.405  18.520  0.00  0.00    +0.000 C 
ATOM     10  C   UNL     1       6.897   5.124  18.220  0.00  0.00    +0.000 C 
BRANCH   8  11
ATOM     11  C   UNL     1       3.158   5.614  17.767  0.00  0.00    +0.000 C 
BRANCH  11  12
ATOM     12  C   UNL     1       2.261   4.703  18.578  0.00  0.00    +0.000 A 
ATOM     13  C   UNL     1       1.687   3.567  17.995  0.00  0.00    +0.000 A 
ATOM     14  C   UNL     1       0.912   2.691  18.759  0.00  0.00    +0.000 A 
ATOM     15  C   UNL     1       0.703   2.944  20.115  0.00  0.00    +0.000 A 
ATOM     16  C   UNL     1       1.265   4.071  20.704  0.00  0.00    +0.000 A 
ATOM     17  C   UNL     1       2.042   4.947  19.944  0.00  0.00    +0.000 A 
ENDBRANCH  11  12
ENDBRANCH   8  11
ENDBRANCH   3   5
BRANCH   1  18
ATOM     18  C   UNL     1       8.007   9.412  17.788  0.00  0.00    +0.000 C 
BRANCH  18  19
ATOM     19  O   UNL     1       8.957   9.975  18.692  0.00  0.00    +0.000 OA
BRANCH  19  24
ATOM     20  C   UNL     1      11.309  14.883  17.058  0.00  0.00    +0.000 C 
ATOM     21  C   UNL     1      10.706  13.571  17.472  0.00  0.00    +0.000 A 
ATOM     22  C   UNL     1       9.319  13.399  17.521  0.00  0.00    +0.000 A 
ATOM     23  C   UNL     1       8.775  12.176  17.922  0.00  0.00    +0.000 A 
ATOM     24  C   UNL     1       9.602  11.102  18.260  0.00  0.00    +0.000 A 
ATOM     25  C   UNL     1      10.985  11.266  18.213  0.00  0.00    +0.000 A 
ATOM     26  C   UNL     1      11.533  12.498  17.823  0.00  0.00    +0.000 A 
ENDBRANCH  19  24
ENDBRANCH  18  19
ENDBRANCH   1  18
TORSDOF 6
ENDMDL
MODEL 2
REMARK VINA RESULT:      -8.5      0.569      1.422
REMARK  Name = 
REMARK  7 active torsions:
REMARK  status: ('A' for Active; 'I' for Inactive)
REMARK    1  A    between atoms: C_1  and  C_2
REMARK    2  A    between atoms: C_5  and  O_6
REMARK    3  A    between atoms: O_6  and  C_7
REMARK    4  A    between atoms: C_7  and  C_8
REMARK    5  A    between atoms: N_10  and  C_11
REMARK    6  A    between atoms: N_14  and  C_15
REMARK    7  A    between atoms: C_15  and  C_16
REMARK                            x       y       z     vdW  Elec       q    Type
REMARK                         _______ _______ _______ _____ _____    ______ ____
ROOT
ATOM      1  C   UNL     1       8.022   7.538  17.976  0.00  0.00    +0.000 C 
ATOM      2  O   UNL     1       8.463   6.924  18.944  0.00  0.00    +0.000 OA
ATOM      3  N   UNL     1       7.468   6.911  16.873  0.00  0.00    +0.000 N 
ATOM      4  H   UNL     1       7.022   7.485  16.170  0.00  0.00    +0.000 HD
ENDROOT
BRANCH   3   5
ATOM      5  C   UNL     1       7.376   5.453  16.754  0.00  0.00    +0.000 C 
ATOM      6  C   UNL     1       6.443   5.032  15.623  0.00  0.00    +0.000 C 
ATOM      7  C   UNL     1       4.976   5.340  15.935  0.00  0.00    +0.000 C 
ATOM      8  N   UNL     1       4.514   4.810  17.227  0.00  0.00    +0.000 NA
ATOM      9  C   UNL     1       5.439   5.079  18.343  0.00  0.00    +0.000 C 
ATOM     10  C   UNL     1       6.910   4.785  18.044  0.00  0.00    +0.000 C 
BRANCH   8  11
ATOM     11  C   UNL     1       3.187   5.373  17.577  0.00  0.00    +0.000 C 
BRANCH  11  12
ATOM     12  C   UNL     1       2.339   4.513  18.489  0.00  0.00    +0.000 A 
ATOM     13  C   UNL     1       2.003   4.955  19.775  0.00  0.00    +0.000 A 
ATOM     14  C   UNL     1       1.167   4.191  20.592  0.00  0.00    +0.000 A 
ATOM     15  C   UNL     1       0.659   2.977  20.133  0.00  0.00    +0.000 A 
ATOM     16  C   UNL     1       0.988   2.526  18.859  0.00  0.00    +0.000 A 
ATOM     17  C   UNL     1       1.821   3.287  18.038  0.00  0.00    +0.000 A 
ENDBRANCH  11  12
ENDBRANCH   8  11
ENDBRANCH   3   5
BRANCH   1  18
ATOM     18  C   UNL     1       8.049   9.069  17.891  0.00  0.00    +0.000 C 
BRANCH  18  19
ATOM     19  O   UNL     1       8.992   9.558  18.845  0.00  0.00    +0.000 OA
BRANCH  19  24
ATOM     20  C   UNL     1      11.102  14.793  18.195  0.00  0.00    +0.000 C 
ATOM     21  C   UNL     1      10.518  13.421  18.370  0.00  0.00    +0.000 A 
ATOM     22  C   UNL     1      11.117  12.485  19.218  0.00  0.00    +0.000 A 
ATOM     23  C   UNL     1      10.568  11.208  19.359  0.00  0.00    +0.000 A 
ATOM     24  C   UNL     1       9.404  10.852  18.673  0.00  0.00    +0.000 A 
ATOM     25  C   UNL     1       8.800  11.780  17.827  0.00  0.00    +0.000 A 
ATOM     26  C   UNL     1       9.358  13.059  17.675  0.00  0.00    +0.000 A 
ENDBRANCH  19  24
ENDBRANCH  18  19
ENDBRANCH   1  18
TORSDOF 6
ENDMDL
MODEL 3
REMARK VINA RESULT:      -8.3      0.433      1.052
REMARK  Name = 
REMARK  7 active torsions:
REMARK  status: ('A' for Active; 'I' for Inactive)
REMARK    1  A    between atoms: C_1  and  C_2
REMARK    2  A    between atoms: C_5  and  O_6
REMARK    3  A    between atoms: O_6  and  C_7
REMARK    4  A    between atoms: C_7  and  C_8
REMARK    5  A    between atoms: N_10  and  C_11
REMARK    6  A    between atoms: N_14  and  C_15
REMARK    7  A    between atoms: C_15  and  C_16
REMARK                            x       y       z     vdW  Elec       q    Type
REMARK                         _______ _______ _______ _____ _____    ______ ____
ROOT
ATOM      1  C   UNL     1       8.044   7.938  17.860  0.00  0.00    +0.000 C 
ATOM      2  O   UNL     1       8.631   7.434  18.814  0.00  0.00    +0.000 OA
ATOM      3  N   UNL     1       7.413   7.191  16.881  0.00  0.00    +0.000 N 
ATOM      4  H   UNL     1       6.853   7.678  16.193  0.00  0.00    +0.000 HD
ENDROOT
BRANCH   3   5
ATOM      5  C   UNL     1       7.406   5.726  16.884  0.00  0.00    +0.000 C 
ATOM      6  C   UNL     1       6.533   5.157  15.769  0.00  0.00    +0.000 C 
ATOM      7  C   UNL     1       5.042   5.404  16.015  0.00  0.00    +0.000 C 
ATOM      8  N   UNL     1       4.570   4.958  17.335  0.00  0.00    +0.000 NA
ATOM      9  C   UNL     1       5.445   5.373  18.448  0.00  0.00    +0.000 C 
ATOM     10  C   UNL     1       6.939   5.142  18.214  0.00  0.00    +0.000 C 
BRANCH   8  11
ATOM     11  C   UNL     1       3.205   5.471  17.601  0.00  0.00    +0.000 C 
BRANCH  11  12
ATOM     12  C   UNL     1       2.352   4.604  18.502  0.00  0.00    +0.000 A 
ATOM     13  C   UNL     1       2.015   5.033  19.792  0.00  0.00    +0.000 A 
ATOM     14  C   UNL     1       1.176   4.263  20.600  0.00  0.00    +0.000 A 
ATOM     15  C   UNL     1       0.664   3.055  20.127  0.00  0.00    +0.000 A 
ATOM     16  C   UNL     1       0.994   2.617  18.849  0.00  0.00    +0.000 A 
ATOM     17  C   UNL     1       1.831   3.385  18.037  0.00  0.00    +0.000 A 
ENDBRANCH  11  12
ENDBRANCH   8  11
ENDBRANCH   3   5
BRANCH   1  18
ATOM     18  C   UNL     1       7.958   9.456  17.657  0.00  0.00    +0.000 C 
BRANCH  18  19
ATOM     19  O   UNL     1       8.486  10.098  18.817  0.00  0.00    +0.000 OA
BRANCH  19  24
ATOM     20  C   UNL     1      11.865  14.563  17.854  0.00  0.00    +0.000 C 
ATOM     21  C   UNL     1      10.995  13.365  18.102  0.00  0.00    +0.000 A 
ATOM     22  C   UNL     1       9.705  13.288  17.568  0.00  0.00    +0.000 A 
ATOM     23  C   UNL     1       8.902  12.172  17.820  0.00  0.00    +0.000 A 
ATOM     24  C   UNL     1       9.380  11.109  18.590  0.00  0.00    +0.000 A 
ATOM     25  C   UNL     1      10.665  11.177  19.125  0.00  0.00    +0.000 A 
ATOM     26  C   UNL     1      11.467  12.304  18.883  0.00  0.00    +0.000 A 
ENDBRANCH  19  24
ENDBRANCH  18  19
ENDBRANCH   1  18
TORSDOF 6
ENDMDL
MODEL 4
REMARK VINA RESULT:      -8.3      1.386      1.640
REMARK  Name = 
REMARK  7 active torsions:
REMARK  status: ('A' for Active; 'I' for Inactive)
REMARK    1  A    between atoms: C_1  and  C_2
REMARK    2  A    between atoms: C_5  and  O_6
REMARK    3  A    between atoms: O_6  and  C_7
REMARK    4  A    between atoms: C_7  and  C_8
REMARK    5  A    between atoms: N_10  and  C_11
REMARK    6  A    between atoms: N_14  and  C_15
REMARK    7  A    between atoms: C_15  and  C_16
REMARK                            x       y       z     vdW  Elec       q    Type
REMARK                         _______ _______ _______ _____ _____    ______ ____
ROOT
ATOM      1  C   UNL     1       8.052   8.184  18.027  0.00  0.00    +0.000 C 
ATOM      2  O   UNL     1       8.670   7.636  18.936  0.00  0.00    +0.000 OA
ATOM      3  N   UNL     1       7.378   7.482  17.043  0.00  0.00    +0.000 N 
ATOM      4  H   UNL     1       6.796   8.002  16.399  0.00  0.00    +0.000 HD
ENDROOT
BRANCH   3   5
ATOM      5  C   UNL     1       7.358   6.018  16.987  0.00  0.00    +0.000 C 
ATOM      6  C   UNL     1       6.447   5.503  15.875  0.00  0.00    +0.000 C 
ATOM      7  C   UNL     1       4.967   5.752  16.175  0.00  0.00    +0.000 C 
ATOM      8  N   UNL     1       4.530   5.255  17.490  0.00  0.00    +0.000 NA
ATOM      9  C   UNL     1       5.440   5.617  18.592  0.00  0.00    +0.000 C 
ATOM     10  C   UNL     1       6.924   5.384  18.305  0.00  0.00    +0.000 C 
BRANCH   8  11
ATOM     11  C   UNL     1       3.177   5.767  17.816  0.00  0.00    +0.000 C 
BRANCH  11  12
ATOM     12  C   UNL     1       2.285   4.804  18.570  0.00  0.00    +0.000 A 
ATOM     13  C   UNL     1       1.788   3.654  17.944  0.00  0.00    +0.000 A 
ATOM     14  C   UNL     1       1.019   2.733  18.657  0.00  0.00    +0.000 A 
ATOM     15  C   UNL     1       0.736   2.952  20.005  0.00  0.00    +0.000 A 
ATOM     16  C   UNL     1       1.221   4.092  20.638  0.00  0.00    +0.000 A 
ATOM     17  C   UNL     1       1.993   5.014  19.929  0.00  0.00    +0.000 A 
ENDBRANCH  11  12
ENDBRANCH   8  11
ENDBRANCH   3   5
BRANCH   1  18
ATOM     18  C   UNL     1       7.973   9.709  17.890  0.00  0.00    +0.000 C 
BRANCH  18  19
ATOM     19  O   UNL     1       9.295  10.240  17.971  0.00  0.00    +0.000 OA
BRANCH  19  24
ATOM     20  C   UNL     1      10.187  14.472  21.656  0.00  0.00    +0.000 C 
ATOM     21  C   UNL     1       9.931  13.370  20.669  0.00  0.00    +0.000 A 
ATOM     22  C   UNL     1       9.776  12.046  21.091  0.00  0.00    +0.000 A 
ATOM     23  C   UNL     1       9.552  11.030  20.158  0.00  0.00    +0.000 A 
ATOM     24  C   UNL     1       9.459  11.321  18.794  0.00  0.00    +0.000 A 
ATOM     25  C   UNL     1       9.611  12.639  18.366  0.00  0.00    +0.000 A 
ATOM     26  C   UNL     1       9.848  13.658  19.302  0.00  0.00    +0.000 A 
ENDBRANCH  19  24
ENDBRANCH  18  19
ENDBRANCH   1  18
TORSDOF 6
ENDMDL
MODEL 5
REMARK VINA RESULT:      -7.6      1.308      1.510
REMARK  Name = 
REMARK  7 active torsions:
REMARK  status: ('A' for Active; 'I' for Inactive)
REMARK    1  A    between atoms: C_1  and  C_2
REMARK    2  A    between atoms: C_5  and  O_6
REMARK    3  A    between atoms: O_6  and  C_7
REMARK    4  A    between atoms: C_7  and  C_8
REMARK    5  A    between atoms: N_10  and  C_11
REMARK    6  A    between atoms: N_14  and  C_15
REMARK    7  A    between atoms: C_15  and  C_16
REMARK                            x       y       z     vdW  Elec       q    Type
REMARK                         _______ _______ _______ _____ _____    ______ ____
ROOT
ATOM      1  C   UNL     1       7.932   7.676  17.471  0.00  0.00    +0.000 C 
ATOM      2  O   UNL     1       8.205   7.403  16.305  0.00  0.00    +0.000 OA
ATOM      3  N   UNL     1       7.608   6.716  18.415  0.00  0.00    +0.000 N 
ATOM      4  H   UNL     1       7.511   7.007  19.379  0.00  0.00    +0.000 HD
ENDROOT
BRANCH   3   5
ATOM      5  C   UNL     1       7.542   5.287  18.100  0.00  0.00    +0.000 C 
ATOM      6  C   UNL     1       6.961   5.035  16.711  0.00  0.00    +0.000 C 
ATOM      7  C   UNL     1       5.468   5.366  16.638  0.00  0.00    +0.000 C 
ATOM      8  N   UNL     1       4.657   4.712  17.677  0.00  0.00    +0.000 NA
ATOM      9  C   UNL     1       5.234   4.814  19.030  0.00  0.00    +0.000 C 
ATOM     10  C   UNL     1       6.728   4.496  19.119  0.00  0.00    +0.000 C 
BRANCH   8  11
ATOM     11  C   UNL     1       3.290   5.285  17.709  0.00  0.00    +0.000 C 
BRANCH  11  12
ATOM     12  C   UNL     1       2.281   4.508  18.527  0.00  0.00    +0.000 A 
ATOM     13  C   UNL     1       1.751   3.304  18.047  0.00  0.00    +0.000 A 
ATOM     14  C   UNL     1       0.869   2.555  18.828  0.00  0.00    +0.000 A 
ATOM     15  C   UNL     1       0.507   3.001  20.098  0.00  0.00    +0.000 A 
ATOM     16  C   UNL     1       1.024   4.197  20.585  0.00  0.00    +0.000 A 
ATOM     17  C   UNL     1       1.908   4.948  19.808  0.00  0.00    +0.000 A 
ENDBRANCH  11  12
ENDBRANCH   8  11
ENDBRANCH   3   5
BRANCH   1  18
ATOM     18  C   UNL     1       7.917   9.117  17.997  0.00  0.00    +0.000 C 
BRANCH  18  19
ATOM     19  O   UNL     1       8.919   9.240  19.006  0.00  0.00    +0.000 OA
BRANCH  19  24
ATOM     20  C   UNL     1      11.286  14.292  20.077  0.00  0.00    +0.000 C 
ATOM     21  C   UNL     1      10.645  12.969  19.773  0.00  0.00    +0.000 A 
ATOM     22  C   UNL     1      10.143  12.159  20.796  0.00  0.00    +0.000 A 
ATOM     23  C   UNL     1       9.562  10.924  20.496  0.00  0.00    +0.000 A 
ATOM     24  C   UNL     1       9.453  10.488  19.173  0.00  0.00    +0.000 A 
ATOM     25  C   UNL     1       9.950  11.291  18.148  0.00  0.00    +0.000 A 
ATOM     26  C   UNL     1      10.545  12.526  18.449  0.00  0.00    +0.000 A 
ENDBRANCH  19  24
ENDBRANCH  18  19
ENDBRANCH   1  18
TORSDOF 6
ENDMDL
MODEL 6
REMARK VINA RESULT:      -7.5      5.501      7.760
REMARK  Name = 
REMARK  7 active torsions:
REMARK  status: ('A' for Active; 'I' for Inactive)
REMARK    1  A    between atoms: C_1  and  C_2
REMARK    2  A    between atoms: C_5  and  O_6
REMARK    3  A    between atoms: O_6  and  C_7
REMARK    4  A    between atoms: C_7  and  C_8
REMARK    5  A    between atoms: N_10  and  C_11
REMARK    6  A    between atoms: N_14  and  C_15
REMARK    7  A    between atoms: C_15  and  C_16
REMARK                            x       y       z     vdW  Elec       q    Type
REMARK                         _______ _______ _______ _____ _____    ______ ____
ROOT
ATOM      1  C   UNL     1       2.304   4.975  20.722  0.00  0.00    +0.000 C 
ATOM      2  O   UNL     1       2.347   4.161  21.641  0.00  0.00    +0.000 OA
ATOM      3  N   UNL     1       2.995   4.810  19.534  0.00  0.00    +0.000 N 
ATOM      4  H   UNL     1       2.817   5.462  18.782  0.00  0.00    +0.000 HD
ENDROOT
BRANCH   3   5
ATOM      5  C   UNL     1       3.859   3.655  19.275  0.00  0.00    +0.000 C 
ATOM      6  C   UNL     1       5.335   4.043  19.243  0.00  0.00    +0.000 C 
ATOM      7  C   UNL     1       5.687   4.887  18.015  0.00  0.00    +0.000 C 
ATOM      8  N   UNL     1       5.269   4.289  16.737  0.00  0.00    +0.000 NA
ATOM      9  C   UNL     1       3.885   3.780  16.745  0.00  0.00    +0.000 C 
ATOM     10  C   UNL     1       3.514   2.943  17.970  0.00  0.00    +0.000 C 
BRANCH   8  11
ATOM     11  C   UNL     1       5.397   5.273  15.635  0.00  0.00    +0.000 C 
BRANCH  11  12
ATOM     12  C   UNL     1       6.001   4.737  14.355  0.00  0.00    +0.000 A 
ATOM     13  C   UNL     1       5.302   3.812  13.570  0.00  0.00    +0.000 A 
ATOM     14  C   UNL     1       5.831   3.367  12.357  0.00  0.00    +0.000 A 
ATOM     15  C   UNL     1       7.066   3.842  11.915  0.00  0.00    +0.000 A 
ATOM     16  C   UNL     1       7.771   4.759  12.688  0.00  0.00    +0.000 A 
ATOM     17  C   UNL     1       7.244   5.208  13.900  0.00  0.00    +0.000 A 
ENDBRANCH  11  12
ENDBRANCH   8  11
ENDBRANCH   3   5
BRANCH   1  18
ATOM     18  C   UNL     1       1.479   6.265  20.805  0.00  0.00    +0.000 C 
BRANCH  18  19
ATOM     19  O   UNL     1       2.158   7.284  20.070  0.00  0.00    +0.000 OA
BRANCH  19  24
ATOM     20  C   UNL     1      -0.647  12.214  19.746  0.00  0.00    +0.000 C 
ATOM     21  C   UNL     1       0.084  10.904  19.805  0.00  0.00    +0.000 A 
ATOM     22  C   UNL     1       0.029  10.098  20.947  0.00  0.00    +0.000 A 
ATOM     23  C   UNL     1       0.727   8.888  20.990  0.00  0.00    +0.000 A 
ATOM     24  C   UNL     1       1.472   8.454  19.891  0.00  0.00    +0.000 A 
ATOM     25  C   UNL     1       1.531   9.251  18.749  0.00  0.00    +0.000 A 
ATOM     26  C   UNL     1       0.841  10.472  18.710  0.00  0.00    +0.000 A 
ENDBRANCH  19  24
ENDBRANCH  18  19
ENDBRANCH   1  18
TORSDOF 6
ENDMDL
MODEL 7
REMARK VINA RESULT:      -7.5      4.737      6.993
REMARK  Name = 
REMARK  7 active torsions:
REMARK  status: ('A' for Active; 'I' for Inactive)
REMARK    1  A    between atoms: C_1  and  C_2
REMARK    2  A    between atoms: C_5  and  O_6
REMARK    3  A    between atoms: O_6  and  C_7
REMARK    4  A    between atoms: C_7  and  C_8
REMARK    5  A    between atoms: N_10  and  C_11
REMARK    6  A    between atoms: N_14  and  C_15
REMARK    7  A    between atoms: C_15  and  C_16
REMARK                            x       y       z     vdW  Elec       q    Type
REMARK                         _______ _______ _______ _____ _____    ______ ____
ROOT
ATOM      1  C   UNL     1       5.325   4.810  19.451  0.00  0.00    +0.000 C 
ATOM      2  O   UNL     1       5.079   3.613  19.328  0.00  0.00    +0.000 OA
ATOM      3  N   UNL     1       4.339   5.775  19.562  0.00  0.00    +0.000 N 
ATOM      4  H   UNL     1       4.620   6.723  19.777  0.00  0.00    +0.000 HD
ENDROOT
BRANCH   3   5
ATOM      5  C   UNL     1       2.910   5.456  19.523  0.00  0.00    +0.000 C 
ATOM      6  C   UNL     1       2.325   5.632  18.124  0.00  0.00    +0.000 C 
ATOM      7  C   UNL     1       2.254   7.102  17.705  0.00  0.00    +0.000 C 
ATOM      8  N   UNL     1       1.570   7.970  18.677  0.00  0.00    +0.000 NA
ATOM      9  C   UNL     1       2.006   7.758  20.070  0.00  0.00    +0.000 C 
ATOM     10  C   UNL     1       2.092   6.293  20.502  0.00  0.00    +0.000 C 
BRANCH   8  11
ATOM     11  C   UNL     1       1.779   9.399  18.338  0.00  0.00    +0.000 C 
BRANCH  11  12
ATOM     12  C   UNL     1       0.536  10.262  18.380  0.00  0.00    +0.000 A 
ATOM     13  C   UNL     1      -0.671   9.801  17.840  0.00  0.00    +0.000 A 
ATOM     14  C   UNL     1      -1.832  10.570  17.936  0.00  0.00    +0.000 A 
ATOM     15  C   UNL     1      -1.799  11.811  18.572  0.00  0.00    +0.000 A 
ATOM     16  C   UNL     1      -0.605  12.282  19.109  0.00  0.00    +0.000 A 
ATOM     17  C   UNL     1       0.557  11.514  19.018  0.00  0.00    +0.000 A 
ENDBRANCH  11  12
ENDBRANCH   8  11
ENDBRANCH   3   5
BRANCH   1  18
ATOM     18  C   UNL     1       6.758   5.355  19.486  0.00  0.00    +0.000 C 
BRANCH  18  19
ATOM     19  O   UNL     1       6.919   6.275  18.407  0.00  0.00    +0.000 OA
BRANCH  19  24
ATOM     20  C   UNL     1       5.732   3.908  13.379  0.00  0.00    +0.000 C 
ATOM     21  C   UNL     1       6.046   4.560  14.695  0.00  0.00    +0.000 A 
ATOM     22  C   UNL     1       7.022   4.032  15.546  0.00  0.00    +0.000 A 
ATOM     23  C   UNL     1       7.293   4.644  16.773  0.00  0.00    +0.000 A 
ATOM     24  C   UNL     1       6.610   5.799  17.161  0.00  0.00    +0.000 A 
ATOM     25  C   UNL     1       5.637   6.332  16.318  0.00  0.00    +0.000 A 
ATOM     26  C   UNL     1       5.355   5.711  15.091  0.00  0.00    +0.000 A 
ENDBRANCH  19  24
ENDBRANCH  18  19
ENDBRANCH   1  18
TORSDOF 6
ENDMDL
MODEL 8
REMARK VINA RESULT:      -7.5      1.588      2.400
REMARK  Name = 
REMARK  7 active torsions:
REMARK  status: ('A' for Active; 'I' for Inactive)
REMARK    1  A    between atoms: C_1  and  C_2
REMARK    2  A    between atoms: C_5  and  O_6
REMARK    3  A    between atoms: O_6  and  C_7
REMARK    4  A    between atoms: C_7  and  C_8
REMARK    5  A    between atoms: N_10  and  C_11
REMARK    6  A    between atoms: N_14  and  C_15
REMARK    7  A    between atoms: C_15  and  C_16
REMARK                            x       y       z     vdW  Elec       q    Type
REMARK                         _______ _______ _______ _____ _____    ______ ____
ROOT
ATOM      1  C   UNL     1       7.707   7.327  17.994  0.00  0.00    +0.000 C 
ATOM      2  O   UNL     1       8.498   6.955  18.857  0.00  0.00    +0.000 OA
ATOM      3  N   UNL     1       6.963   6.450  17.224  0.00  0.00    +0.000 N 
ATOM      4  H   UNL     1       6.249   6.833  16.617  0.00  0.00    +0.000 HD
ENDROOT
BRANCH   3   5
ATOM      5  C   UNL     1       7.067   4.995  17.356  0.00  0.00    +0.000 C 
ATOM      6  C   UNL     1       6.400   4.267  16.192  0.00  0.00    +0.000 C 
ATOM      7  C   UNL     1       4.875   4.402  16.221  0.00  0.00    +0.000 C 
ATOM      8  N   UNL     1       4.264   4.020  17.504  0.00  0.00    +0.000 NA
ATOM      9  C   UNL     1       4.945   4.595  18.678  0.00  0.00    +0.000 C 
ATOM     10  C   UNL     1       6.470   4.478  18.661  0.00  0.00    +0.000 C 
BRANCH   8  11
ATOM     11  C   UNL     1       2.839   4.430  17.544  0.00  0.00    +0.000 C 
BRANCH  11  12
ATOM     12  C   UNL     1       2.521   5.572  18.486  0.00  0.00    +0.000 A 
ATOM     13  C   UNL     1       2.613   6.900  18.052  0.00  0.00    +0.000 A 
ATOM     14  C   UNL     1       2.257   7.951  18.900  0.00  0.00    +0.000 A 
ATOM     15  C   UNL     1       1.806   7.684  20.193  0.00  0.00    +0.000 A 
ATOM     16  C   UNL     1       1.713   6.369  20.636  0.00  0.00    +0.000 A 
ATOM     17  C   UNL     1       2.065   5.316  19.790  0.00  0.00    +0.000 A 
ENDBRANCH  11  12
ENDBRANCH   8  11
ENDBRANCH   3   5
BRANCH   1  18
ATOM     18  C   UNL     1       7.471   8.809  17.679  0.00  0.00    +0.000 C 
BRANCH  18  19
ATOM     19  O   UNL     1       8.739   9.449  17.537  0.00  0.00    +0.000 OA
BRANCH  19  24
ATOM     20  C   UNL     1       9.922  13.765  21.037  0.00  0.00    +0.000 C 
ATOM     21  C   UNL     1       9.584  12.638  20.104  0.00  0.00    +0.000 A 
ATOM     22  C   UNL     1       9.692  11.306  20.515  0.00  0.00    +0.000 A 
ATOM     23  C   UNL     1       9.387  10.269  19.629  0.00  0.00    +0.000 A 
ATOM     24  C   UNL     1       8.953  10.544  18.330  0.00  0.00    +0.000 A 
ATOM     25  C   UNL     1       8.842  11.869  17.914  0.00  0.00    +0.000 A 
ATOM     26  C   UNL     1       9.160  12.911  18.799  0.00  0.00    +0.000 A 
ENDBRANCH  19  24
ENDBRANCH  18  19
ENDBRANCH   1  18
TORSDOF 6
ENDMDL
MODEL 9
REMARK VINA RESULT:      -7.4      5.488      7.793
REMARK  Name = 
REMARK  7 active torsions:
REMARK  status: ('A' for Active; 'I' for Inactive)
REMARK    1  A    between atoms: C_1  and  C_2
REMARK    2  A    between atoms: C_5  and  O_6
REMARK    3  A    between atoms: O_6  and  C_7
REMARK    4  A    between atoms: C_7  and  C_8
REMARK    5  A    between atoms: N_10  and  C_11
REMARK    6  A    between atoms: N_14  and  C_15
REMARK    7  A    between atoms: C_15  and  C_16
REMARK                            x       y       z     vdW  Elec       q    Type
REMARK                         _______ _______ _______ _____ _____    ______ ____
ROOT
ATOM      1  C   UNL     1       1.691   4.473  20.358  0.00  0.00    +0.000 C 
ATOM      2  O   UNL     1       0.923   3.532  20.536  0.00  0.00    +0.000 OA
ATOM      3  N   UNL     1       2.865   4.362  19.634  0.00  0.00    +0.000 N 
ATOM      4  H   UNL     1       3.385   5.206  19.433  0.00  0.00    +0.000 HD
ENDROOT
BRANCH   3   5
ATOM      5  C   UNL     1       3.307   3.103  19.029  0.00  0.00    +0.000 C 
ATOM      6  C   UNL     1       4.829   2.983  19.008  0.00  0.00    +0.000 C 
ATOM      7  C   UNL     1       5.474   3.961  18.023  0.00  0.00    +0.000 C 
ATOM      8  N   UNL     1       4.919   3.896  16.661  0.00  0.00    +0.000 NA
ATOM      9  C   UNL     1       3.445   3.881  16.623  0.00  0.00    +0.000 C 
ATOM     10  C   UNL     1       2.784   2.916  17.608  0.00  0.00    +0.000 C 
BRANCH   8  11
ATOM     11  C   UNL     1       5.395   5.041  15.848  0.00  0.00    +0.000 C 
BRANCH  11  12
ATOM     12  C   UNL     1       6.035   4.675  14.527  0.00  0.00    +0.000 A 
ATOM     13  C   UNL     1       5.445   3.720  13.689  0.00  0.00    +0.000 A 
ATOM     14  C   UNL     1       6.001   3.429  12.442  0.00  0.00    +0.000 A 
ATOM     15  C   UNL     1       7.154   4.090  12.018  0.00  0.00    +0.000 A 
ATOM     16  C   UNL     1       7.751   5.038  12.842  0.00  0.00    +0.000 A 
ATOM     17  C   UNL     1       7.197   5.333  14.089  0.00  0.00    +0.000 A 
ENDBRANCH  11  12
ENDBRANCH   8  11
ENDBRANCH   3   5
BRANCH   1  18
ATOM     18  C   UNL     1       1.426   5.870  20.932  0.00  0.00    +0.000 C 
BRANCH  18  19
ATOM     19  O   UNL     1       2.272   6.803  20.259  0.00  0.00    +0.000 OA
BRANCH  19  24
ATOM     20  C   UNL     1      -0.110  11.647  18.486  0.00  0.00    +0.000 C 
ATOM     21  C   UNL     1       0.527  10.380  18.979  0.00  0.00    +0.000 A 
ATOM     22  C   UNL     1       1.381   9.635  18.160  0.00  0.00    +0.000 A 
ATOM     23  C   UNL     1       1.955   8.451  18.631  0.00  0.00    +0.000 A 
ATOM     24  C   UNL     1       1.702   8.002  19.929  0.00  0.00    +0.000 A 
ATOM     25  C   UNL     1       0.853   8.739  20.753  0.00  0.00    +0.000 A 
ATOM     26  C   UNL     1       0.266   9.922  20.276  0.00  0.00    +0.000 A 
ENDBRANCH  19  24
ENDBRANCH  18  19
ENDBRANCH   1  18
TORSDOF 6
ENDMDL
