MODEL 1
REMARK VINA RESULT:      -9.0      0.000      0.000
REMARK  Name = 
REMARK  7 active torsions:
REMARK  status: ('A' for Active; 'I' for Inactive)
REMARK    1  A    between atoms: N_2  and  C_4
REMARK    2  A    between atoms: C_7  and  C_8
REMARK    3  A    between atoms: C_8  and  S_9
REMARK    4  A    between atoms: S_9  and  C_10
REMARK    5  A    between atoms: N_18  and  C_19
REMARK    6  A    between atoms: C_19  and  C_20
REMARK    7  A    between atoms: C_25  and  C_26
REMARK                            x       y       z     vdW  Elec       q    Type
REMARK                         _______ _______ _______ _____ _____    ______ ____
ROOT
ATOM      1  C   UNL     1       0.082  10.200  19.691  0.00  0.00    +0.000 A 
ATOM      2  N   UNL     1      -0.291  10.211  20.996  0.00  0.00    +0.000 NA
ATOM      3  C   UNL     1       0.265   9.288  21.817  0.00  0.00    +0.000 A 
ATOM      4  N   UNL     1       1.151   8.320  21.507  0.00  0.00    +0.000 NA
ATOM      5  C   UNL     1       1.485   8.362  20.211  0.00  0.00    +0.000 A 
ATOM      6  C   UNL     1       1.022   9.257  19.256  0.00  0.00    +0.000 A 
ATOM      7  N   UNL     1       1.590   9.000  18.026  0.00  0.00    +0.000 NA
ATOM      8  C   UNL     1       2.346   7.942  18.214  0.00  0.00    +0.000 A 
ATOM      9  N   UNL     1       2.298   7.512  19.514  0.00  0.00    +0.000 N 
ENDROOT
BRANCH   1  10
ATOM     10  S   UNL     1      -0.689  11.216  18.465  0.00  0.00    +0.000 S 
BRANCH  10  11
ATOM     11  C   UNL     1      -1.442  12.525  19.471  0.00  0.00    +0.000 C 
BRANCH  11  15
ATOM     12  C   UNL     1      -5.753  12.106  19.543  0.00  0.00    +0.000 A 
ATOM     13  C   UNL     1      -5.014  11.586  18.469  0.00  0.00    +0.000 A 
ATOM     14  C   UNL     1      -3.625  11.722  18.458  0.00  0.00    +0.000 A 
ATOM     15  C   UNL     1      -2.952  12.366  19.513  0.00  0.00    +0.000 A 
ATOM     16  C   UNL     1      -3.707  12.890  20.576  0.00  0.00    +0.000 A 
ATOM     17  C   UNL     1      -5.100  12.761  20.595  0.00  0.00    +0.000 A 
BRANCH  12  19
ATOM     18  O   UNL     1      -7.873  12.719  18.828  0.00  0.00    +0.000 OA
ATOM     19  N   UNL     1      -7.213  11.967  19.558  0.00  0.00    +0.000 N 
ATOM     20  O   UNL     1      -7.703  11.100  20.298  0.00  0.00    +0.000 OA
ENDBRANCH  12  19
ENDBRANCH  11  15
ENDBRANCH  10  11
ENDBRANCH   1  10
BRANCH   9  21
ATOM     21  C   UNL     1       2.872   6.255  19.978  0.00  0.00    +0.000 C 
BRANCH  21  22
ATOM     22  C   UNL     1       2.830   5.098  18.992  0.00  0.00    +0.000 A 
ATOM     23  C   UNL     1       1.632   4.351  18.857  0.00  0.00    +0.000 A 
ATOM     24  C   UNL     1       1.495   3.342  17.912  0.00  0.00    +0.000 A 
ATOM     25  C   UNL     1       2.555   3.038  17.082  0.00  0.00    +0.000 A 
ATOM     26  C   UNL     1       3.764   3.727  17.218  0.00  0.00    +0.000 A 
ATOM     27  C   UNL     1       3.949   4.770  18.163  0.00  0.00    +0.000 A 
BRANCH  27  28
ATOM     28  C   UNL     1       5.269   5.486  18.180  0.00  0.00    +0.000 A 
ATOM     29  C   UNL     1       5.539   6.542  17.282  0.00  0.00    +0.000 A 
ATOM     30  C   UNL     1       6.735   7.269  17.328  0.00  0.00    +0.000 A 
ATOM     31  C   UNL     1       7.681   6.971  18.293  0.00  0.00    +0.000 A 
ATOM     32  F   UNL     1       8.804   7.692  18.371  0.00  0.00    +0.000 F 
ATOM     33  C   UNL     1       7.480   5.919  19.167  0.00  0.00    +0.000 A 
ATOM     34  C   UNL     1       6.310   5.159  19.070  0.00  0.00    +0.000 A 
ENDBRANCH  27  28
ENDBRANCH  21  22
ENDBRANCH   9  21
TORSDOF 7
ENDMDL
MODEL 2
REMARK VINA RESULT:      -9.0      2.718      3.161
REMARK  Name = 
REMARK  7 active torsions:
REMARK  status: ('A' for Active; 'I' for Inactive)
REMARK    1  A    between atoms: N_2  and  C_4
REMARK    2  A    between atoms: C_7  and  C_8
REMARK    3  A    between atoms: C_8  and  S_9
REMARK    4  A    between atoms: S_9  and  C_10
REMARK    5  A    between atoms: N_18  and  C_19
REMARK    6  A    between atoms: C_19  and  C_20
REMARK    7  A    between atoms: C_25  and  C_26
REMARK                            x       y       z     vdW  Elec       q    Type
REMARK                         _______ _______ _______ _____ _____    ______ ____
ROOT
ATOM      1  C   UNL     1       0.325  10.515  19.855  0.00  0.00    +0.000 A 
ATOM      2  N   UNL     1       0.044  10.564  21.181  0.00  0.00    +0.000 NA
ATOM      3  C   UNL     1       0.569   9.597  21.973  0.00  0.00    +0.000 A 
ATOM      4  N   UNL     1       1.341   8.552  21.613  0.00  0.00    +0.000 NA
ATOM      5  C   UNL     1       1.590   8.560  20.297  0.00  0.00    +0.000 A 
ATOM      6  C   UNL     1       1.145   9.490  19.367  0.00  0.00    +0.000 A 
ATOM      7  N   UNL     1       1.604   9.178  18.105  0.00  0.00    +0.000 NA
ATOM      8  C   UNL     1       2.273   8.057  18.252  0.00  0.00    +0.000 A 
ATOM      9  N   UNL     1       2.274   7.638  19.555  0.00  0.00    +0.000 N 
ENDROOT
BRANCH   1  10
ATOM     10  S   UNL     1      -0.432  11.592  18.674  0.00  0.00    +0.000 S 
BRANCH  10  11
ATOM     11  C   UNL     1      -2.135  10.969  18.623  0.00  0.00    +0.000 C 
BRANCH  11  15
ATOM     12  C   UNL     1      -3.367  10.059  14.571  0.00  0.00    +0.000 A 
ATOM     13  C   UNL     1      -4.019  11.069  15.294  0.00  0.00    +0.000 A 
ATOM     14  C   UNL     1      -3.611  11.358  16.596  0.00  0.00    +0.000 A 
ATOM     15  C   UNL     1      -2.548  10.656  17.195  0.00  0.00    +0.000 A 
ATOM     16  C   UNL     1      -1.911   9.640  16.462  0.00  0.00    +0.000 A 
ATOM     17  C   UNL     1      -2.314   9.342  15.156  0.00  0.00    +0.000 A 
BRANCH  12  19
ATOM     18  O   UNL     1      -2.916   9.503  12.364  0.00  0.00    +0.000 OA
ATOM     19  N   UNL     1      -3.793   9.750  13.201  0.00  0.00    +0.000 N 
ATOM     20  O   UNL     1      -5.011   9.750  12.963  0.00  0.00    +0.000 OA
ENDBRANCH  12  19
ENDBRANCH  11  15
ENDBRANCH  10  11
ENDBRANCH   1  10
BRANCH   9  21
ATOM     21  C   UNL     1       2.764   6.336  19.992  0.00  0.00    +0.000 C 
BRANCH  21  22
ATOM     22  C   UNL     1       2.686   5.215  18.967  0.00  0.00    +0.000 A 
ATOM     23  C   UNL     1       1.457   4.533  18.784  0.00  0.00    +0.000 A 
ATOM     24  C   UNL     1       1.291   3.563  17.802  0.00  0.00    +0.000 A 
ATOM     25  C   UNL     1       2.352   3.236  16.982  0.00  0.00    +0.000 A 
ATOM     26  C   UNL     1       3.589   3.861  17.165  0.00  0.00    +0.000 A 
ATOM     27  C   UNL     1       3.805   4.861  18.148  0.00  0.00    +0.000 A 
BRANCH  27  28
ATOM     28  C   UNL     1       5.158   5.512  18.214  0.00  0.00    +0.000 A 
ATOM     29  C   UNL     1       5.499   6.577  17.352  0.00  0.00    +0.000 A 
ATOM     30  C   UNL     1       6.727   7.243  17.445  0.00  0.00    +0.000 A 
ATOM     31  C   UNL     1       7.634   6.874  18.423  0.00  0.00    +0.000 A 
ATOM     32  F   UNL     1       8.789   7.537  18.545  0.00  0.00    +0.000 F 
ATOM     33  C   UNL     1       7.362   5.810  19.263  0.00  0.00    +0.000 A 
ATOM     34  C   UNL     1       6.160   5.110  19.118  0.00  0.00    +0.000 A 
ENDBRANCH  27  28
ENDBRANCH  21  22
ENDBRANCH   9  21
TORSDOF 7
ENDMDL
MODEL 3
REMARK VINA RESULT:      -8.9      0.992      1.384
REMARK  Name = 
REMARK  7 active torsions:
REMARK  status: ('A' for Active; 'I' for Inactive)
REMARK    1  A    between atoms: N_2  and  C_4
REMARK    2  A    between atoms: C_7  and  C_8
REMARK    3  A    between atoms: C_8  and  S_9
REMARK    4  A    between atoms: S_9  and  C_10
REMARK    5  A    between atoms: N_18  and  C_19
REMARK    6  A    between atoms: C_19  and  C_20
REMARK    7  A    between atoms: C_25  and  C_26
REMARK                            x       y       z     vdW  Elec       q    Type
REMARK                         _______ _______ _______ _____ _____    ______ ____
ROOT
ATOM      1  C   UNL     1      -0.104  10.151  19.889  0.00  0.00    +0.000 A 
ATOM      2  N   UNL     1      -0.397  10.135  21.213  0.00  0.00    +0.000 NA
ATOM      3  C   UNL     1       0.252   9.235  21.991  0.00  0.00    +0.000 A 
ATOM      4  N   UNL     1       1.164   8.314  21.618  0.00  0.00    +0.000 NA
ATOM      5  C   UNL     1       1.415   8.381  20.304  0.00  0.00    +0.000 A 
ATOM      6  C   UNL     1       0.852   9.258  19.388  0.00  0.00    +0.000 A 
ATOM      7  N   UNL     1       1.356   9.038  18.124  0.00  0.00    +0.000 NA
ATOM      8  C   UNL     1       2.173   8.017  18.256  0.00  0.00    +0.000 A 
ATOM      9  N   UNL     1       2.225   7.577  19.551  0.00  0.00    +0.000 N 
ENDROOT
BRANCH   1  10
ATOM     10  S   UNL     1      -0.997  11.137  18.721  0.00  0.00    +0.000 S 
BRANCH  10  11
ATOM     11  C   UNL     1      -1.268  12.674  19.646  0.00  0.00    +0.000 C 
BRANCH  11  15
ATOM     12  C   UNL     1      -5.166  12.620  21.535  0.00  0.00    +0.000 A 
ATOM     13  C   UNL     1      -4.015  12.853  22.304  0.00  0.00    +0.000 A 
ATOM     14  C   UNL     1      -2.765  12.873  21.685  0.00  0.00    +0.000 A 
ATOM     15  C   UNL     1      -2.641  12.672  20.297  0.00  0.00    +0.000 A 
ATOM     16  C   UNL     1      -3.801  12.431  19.543  0.00  0.00    +0.000 A 
ATOM     17  C   UNL     1      -5.059  12.406  20.155  0.00  0.00    +0.000 A 
BRANCH  12  19
ATOM     18  O   UNL     1      -7.478  12.804  21.476  0.00  0.00    +0.000 OA
ATOM     19  N   UNL     1      -6.483  12.596  22.182  0.00  0.00    +0.000 N 
ATOM     20  O   UNL     1      -6.523  12.363  23.400  0.00  0.00    +0.000 OA
ENDBRANCH  12  19
ENDBRANCH  11  15
ENDBRANCH  10  11
ENDBRANCH   1  10
BRANCH   9  21
ATOM     21  C   UNL     1       2.887   6.346  19.968  0.00  0.00    +0.000 C 
BRANCH  21  22
ATOM     22  C   UNL     1       2.838   5.194  18.976  0.00  0.00    +0.000 A 
ATOM     23  C   UNL     1       1.633   4.459  18.833  0.00  0.00    +0.000 A 
ATOM     24  C   UNL     1       1.491   3.455  17.883  0.00  0.00    +0.000 A 
ATOM     25  C   UNL     1       2.551   3.145  17.056  0.00  0.00    +0.000 A 
ATOM     26  C   UNL     1       3.766   3.823  17.200  0.00  0.00    +0.000 A 
ATOM     27  C   UNL     1       3.957   4.859  18.149  0.00  0.00    +0.000 A 
BRANCH  27  28
ATOM     28  C   UNL     1       5.284   5.563  18.175  0.00  0.00    +0.000 A 
ATOM     29  C   UNL     1       5.558   6.636  17.298  0.00  0.00    +0.000 A 
ATOM     30  C   UNL     1       6.761   7.350  17.353  0.00  0.00    +0.000 A 
ATOM     31  C   UNL     1       7.709   7.025  18.307  0.00  0.00    +0.000 A 
ATOM     32  F   UNL     1       8.839   7.734  18.394  0.00  0.00    +0.000 F 
ATOM     33  C   UNL     1       7.502   5.956  19.161  0.00  0.00    +0.000 A 
ATOM     34  C   UNL     1       6.326   5.209  19.054  0.00  0.00    +0.000 A 
ENDBRANCH  27  28
ENDBRANCH  21  22
ENDBRANCH   9  21
TORSDOF 7
ENDMDL
MODEL 4
REMARK VINA RESULT:      -8.9      1.403      1.997
REMARK  Name = 
REMARK  7 active torsions:
REMARK  status: ('A' for Active; 'I' for Inactive)
REMARK    1  A    between atoms: N_2  and  C_4
REMARK    2  A    between atoms: C_7  and  C_8
REMARK    3  A    between atoms: C_8  and  S_9
REMARK    4  A    between atoms: S_9  and  C_10
REMARK    5  A    between atoms: N_18  and  C_19
REMARK    6  A    between atoms: C_19  and  C_20
REMARK    7  A    between atoms: C_25  and  C_26
REMARK                            x       y       z     vdW  Elec       q    Type
REMARK                         _______ _______ _______ _____ _____    ______ ____
ROOT
ATOM      1  C   UNL     1       0.159   9.874  19.582  0.00  0.00    +0.000 A 
ATOM      2  N   UNL     1      -0.134   9.908  20.906  0.00  0.00    +0.000 NA
ATOM      3  C   UNL     1       0.529   9.052  21.721  0.00  0.00    +0.000 A 
ATOM      4  N   UNL     1       1.456   8.131  21.388  0.00  0.00    +0.000 NA
ATOM      5  C   UNL     1       1.708   8.149  20.072  0.00  0.00    +0.000 A 
ATOM      6  C   UNL     1       1.131   8.977  19.120  0.00  0.00    +0.000 A 
ATOM      7  N   UNL     1       1.641   8.712  17.866  0.00  0.00    +0.000 NA
ATOM      8  C   UNL     1       2.474   7.712  18.041  0.00  0.00    +0.000 A 
ATOM      9  N   UNL     1       2.532   7.327  19.354  0.00  0.00    +0.000 N 
ENDROOT
BRANCH   1  10
ATOM     10  S   UNL     1      -0.748  10.794  18.375  0.00  0.00    +0.000 S 
BRANCH  10  11
ATOM     11  C   UNL     1      -1.137  12.323  19.271  0.00  0.00    +0.000 C 
BRANCH  11  15
ATOM     12  C   UNL     1      -5.297  12.350  20.479  0.00  0.00    +0.000 A 
ATOM     13  C   UNL     1      -4.303  12.781  21.370  0.00  0.00    +0.000 A 
ATOM     14  C   UNL     1      -2.967  12.773  20.970  0.00  0.00    +0.000 A 
ATOM     15  C   UNL     1      -2.600  12.346  19.680  0.00  0.00    +0.000 A 
ATOM     16  C   UNL     1      -3.606  11.909  18.801  0.00  0.00    +0.000 A 
ATOM     17  C   UNL     1      -4.948  11.911  19.194  0.00  0.00    +0.000 A 
BRANCH  12  19
ATOM     18  O   UNL     1      -7.409  13.309  20.544  0.00  0.00    +0.000 OA
ATOM     19  N   UNL     1      -6.704  12.354  20.896  0.00  0.00    +0.000 N 
ATOM     20  O   UNL     1      -7.106  11.397  21.575  0.00  0.00    +0.000 OA
ENDBRANCH  12  19
ENDBRANCH  11  15
ENDBRANCH  10  11
ENDBRANCH   1  10
BRANCH   9  21
ATOM     21  C   UNL     1       3.214   6.126  19.822  0.00  0.00    +0.000 C 
BRANCH  21  22
ATOM     22  C   UNL     1       2.536   4.804  19.497  0.00  0.00    +0.000 A 
ATOM     23  C   UNL     1       1.353   4.448  20.192  0.00  0.00    +0.000 A 
ATOM     24  C   UNL     1       0.633   3.300  19.882  0.00  0.00    +0.000 A 
ATOM     25  C   UNL     1       1.080   2.467  18.877  0.00  0.00    +0.000 A 
ATOM     26  C   UNL     1       2.267   2.768  18.201  0.00  0.00    +0.000 A 
ATOM     27  C   UNL     1       3.032   3.931  18.477  0.00  0.00    +0.000 A 
BRANCH  27  28
ATOM     28  C   UNL     1       4.256   4.189  17.645  0.00  0.00    +0.000 A 
ATOM     29  C   UNL     1       5.526   4.338  18.243  0.00  0.00    +0.000 A 
ATOM     30  C   UNL     1       6.689   4.510  17.482  0.00  0.00    +0.000 A 
ATOM     31  C   UNL     1       6.611   4.510  16.101  0.00  0.00    +0.000 A 
ATOM     32  F   UNL     1       7.724   4.626  15.370  0.00  0.00    +0.000 F 
ATOM     33  C   UNL     1       5.384   4.408  15.471  0.00  0.00    +0.000 A 
ATOM     34  C   UNL     1       4.223   4.303  16.242  0.00  0.00    +0.000 A 
ENDBRANCH  27  28
ENDBRANCH  21  22
ENDBRANCH   9  21
TORSDOF 7
ENDMDL
MODEL 5
REMARK VINA RESULT:      -8.7      1.499      1.907
REMARK  Name = 
REMARK  7 active torsions:
REMARK  status: ('A' for Active; 'I' for Inactive)
REMARK    1  A    between atoms: N_2  and  C_4
REMARK    2  A    between atoms: C_7  and  C_8
REMARK    3  A    between atoms: C_8  and  S_9
REMARK    4  A    between atoms: S_9  and  C_10
REMARK    5  A    between atoms: N_18  and  C_19
REMARK    6  A    between atoms: C_19  and  C_20
REMARK    7  A    between atoms: C_25  and  C_26
REMARK                            x       y       z     vdW  Elec       q    Type
REMARK                         _______ _______ _______ _____ _____    ______ ____
ROOT
ATOM      1  C   UNL     1       0.148   9.822  19.636  0.00  0.00    +0.000 A 
ATOM      2  N   UNL     1      -0.160   9.779  20.957  0.00  0.00    +0.000 NA
ATOM      3  C   UNL     1       0.516   8.896  21.733  0.00  0.00    +0.000 A 
ATOM      4  N   UNL     1       1.468   8.017  21.361  0.00  0.00    +0.000 NA
ATOM      5  C   UNL     1       1.732   8.110  20.052  0.00  0.00    +0.000 A 
ATOM      6  C   UNL     1       1.146   8.974  19.138  0.00  0.00    +0.000 A 
ATOM      7  N   UNL     1       1.674   8.788  17.878  0.00  0.00    +0.000 NA
ATOM      8  C   UNL     1       2.529   7.800  18.009  0.00  0.00    +0.000 A 
ATOM      9  N   UNL     1       2.583   7.347  19.300  0.00  0.00    +0.000 N 
ENDROOT
BRANCH   1  10
ATOM     10  S   UNL     1      -0.769  10.784  18.469  0.00  0.00    +0.000 S 
BRANCH  10  11
ATOM     11  C   UNL     1      -1.001  12.348  19.359  0.00  0.00    +0.000 C 
BRANCH  11  15
ATOM     12  C   UNL     1      -4.929  12.534  21.176  0.00  0.00    +0.000 A 
ATOM     13  C   UNL     1      -4.802  12.303  19.798  0.00  0.00    +0.000 A 
ATOM     14  C   UNL     1      -3.532  12.239  19.223  0.00  0.00    +0.000 A 
ATOM     15  C   UNL     1      -2.374  12.396  20.007  0.00  0.00    +0.000 A 
ATOM     16  C   UNL     1      -2.517  12.636  21.384  0.00  0.00    +0.000 A 
ATOM     17  C   UNL     1      -3.787  12.704  21.969  0.00  0.00    +0.000 A 
BRANCH  12  19
ATOM     18  O   UNL     1      -6.346  12.467  23.012  0.00  0.00    +0.000 OA
ATOM     19  N   UNL     1      -6.262  12.604  21.784  0.00  0.00    +0.000 N 
ATOM     20  O   UNL     1      -7.229  12.802  21.033  0.00  0.00    +0.000 OA
ENDBRANCH  12  19
ENDBRANCH  11  15
ENDBRANCH  10  11
ENDBRANCH   1  10
BRANCH   9  21
ATOM     21  C   UNL     1       3.289   6.139  19.711  0.00  0.00    +0.000 C 
BRANCH  21  22
ATOM     22  C   UNL     1       2.594   4.822  19.401  0.00  0.00    +0.000 A 
ATOM     23  C   UNL     1       1.409   4.486  20.103  0.00  0.00    +0.000 A 
ATOM     24  C   UNL     1       0.675   3.345  19.805  0.00  0.00    +0.000 A 
ATOM     25  C   UNL     1       1.109   2.496  18.807  0.00  0.00    +0.000 A 
ATOM     26  C   UNL     1       2.298   2.777  18.125  0.00  0.00    +0.000 A 
ATOM     27  C   UNL     1       3.077   3.933  18.388  0.00  0.00    +0.000 A 
BRANCH  27  28
ATOM     28  C   UNL     1       4.302   4.169  17.551  0.00  0.00    +0.000 A 
ATOM     29  C   UNL     1       4.216   4.282  16.146  0.00  0.00    +0.000 A 
ATOM     30  C   UNL     1       5.335   4.572  15.356  0.00  0.00    +0.000 A 
ATOM     31  C   UNL     1       6.563   4.782  15.956  0.00  0.00    +0.000 A 
ATOM     32  F   UNL     1       7.625   5.104  15.210  0.00  0.00    +0.000 F 
ATOM     33  C   UNL     1       6.705   4.641  17.325  0.00  0.00    +0.000 A 
ATOM     34  C   UNL     1       5.595   4.288  18.098  0.00  0.00    +0.000 A 
ENDBRANCH  27  28
ENDBRANCH  21  22
ENDBRANCH   9  21
TORSDOF 7
ENDMDL
MODEL 6
REMARK VINA RESULT:      -8.7      0.552      1.367
REMARK  Name = 
REMARK  7 active torsions:
REMARK  status: ('A' for Active; 'I' for Inactive)
REMARK    1  A    between atoms: N_2  and  C_4
REMARK    2  A    between atoms: C_7  and  C_8
REMARK    3  A    between atoms: C_8  and  S_9
REMARK    4  A    between atoms: S_9  and  C_10
REMARK    5  A    between atoms: N_18  and  C_19
REMARK    6  A    between atoms: C_19  and  C_20
REMARK    7  A    between atoms: C_25  and  C_26
REMARK                            x       y       z     vdW  Elec       q    Type
REMARK                         _______ _______ _______ _____ _____    ______ ____
ROOT
ATOM      1  C   UNL     1       0.537  10.315  19.755  0.00  0.00    +0.000 A 
ATOM      2  N   UNL     1       0.275  10.470  21.077  0.00  0.00    +0.000 NA
ATOM      3  C   UNL     1       0.731   9.517  21.925  0.00  0.00    +0.000 A 
ATOM      4  N   UNL     1       1.417   8.394  21.629  0.00  0.00    +0.000 NA
ATOM      5  C   UNL     1       1.650   8.299  20.313  0.00  0.00    +0.000 A 
ATOM      6  C   UNL     1       1.270   9.200  19.328  0.00  0.00    +0.000 A 
ATOM      7  N   UNL     1       1.690   8.774  18.086  0.00  0.00    +0.000 NA
ATOM      8  C   UNL     1       2.271   7.616  18.301  0.00  0.00    +0.000 A 
ATOM      9  N   UNL     1       2.253   7.282  19.628  0.00  0.00    +0.000 N 
ENDROOT
BRANCH   1  10
ATOM     10  S   UNL     1      -0.147  11.372  18.511  0.00  0.00    +0.000 S 
BRANCH  10  11
ATOM     11  C   UNL     1      -1.160  12.512  19.493  0.00  0.00    +0.000 C 
BRANCH  11  15
ATOM     12  C   UNL     1      -5.376  11.674  18.951  0.00  0.00    +0.000 A 
ATOM     13  C   UNL     1      -4.945  12.429  20.052  0.00  0.00    +0.000 A 
ATOM     14  C   UNL     1      -3.586  12.698  20.215  0.00  0.00    +0.000 A 
ATOM     15  C   UNL     1      -2.639  12.229  19.285  0.00  0.00    +0.000 A 
ATOM     16  C   UNL     1      -3.084  11.467  18.192  0.00  0.00    +0.000 A 
ATOM     17  C   UNL     1      -4.445  11.190  18.022  0.00  0.00    +0.000 A 
BRANCH  12  19
ATOM     18  O   UNL     1      -7.145  10.202  18.661  0.00  0.00    +0.000 OA
ATOM     19  N   UNL     1      -6.804  11.387  18.777  0.00  0.00    +0.000 N 
ATOM     20  O   UNL     1      -7.588  12.348  18.760  0.00  0.00    +0.000 OA
ENDBRANCH  12  19
ENDBRANCH  11  15
ENDBRANCH  10  11
ENDBRANCH   1  10
BRANCH   9  21
ATOM     21  C   UNL     1       2.645   5.975  20.144  0.00  0.00    +0.000 C 
BRANCH  21  22
ATOM     22  C   UNL     1       2.672   4.839  19.133  0.00  0.00    +0.000 A 
ATOM     23  C   UNL     1       1.522   4.024  18.982  0.00  0.00    +0.000 A 
ATOM     24  C   UNL     1       1.446   3.029  18.015  0.00  0.00    +0.000 A 
ATOM     25  C   UNL     1       2.522   2.808  17.179  0.00  0.00    +0.000 A 
ATOM     26  C   UNL     1       3.687   3.567  17.330  0.00  0.00    +0.000 A 
ATOM     27  C   UNL     1       3.809   4.598  18.297  0.00  0.00    +0.000 A 
BRANCH  27  28
ATOM     28  C   UNL     1       5.083   5.393  18.331  0.00  0.00    +0.000 A 
ATOM     29  C   UNL     1       6.079   5.136  19.299  0.00  0.00    +0.000 A 
ATOM     30  C   UNL     1       7.302   5.818  19.304  0.00  0.00    +0.000 A 
ATOM     31  C   UNL     1       7.568   6.756  18.322  0.00  0.00    +0.000 A 
ATOM     32  F   UNL     1       8.753   7.376  18.295  0.00  0.00    +0.000 F 
ATOM     33  C   UNL     1       6.608   7.071  17.378  0.00  0.00    +0.000 A 
ATOM     34  C   UNL     1       5.366   6.431  17.422  0.00  0.00    +0.000 A 
ENDBRANCH  27  28
ENDBRANCH  21  22
ENDBRANCH   9  21
TORSDOF 7
ENDMDL
MODEL 7
REMARK VINA RESULT:      -8.7      1.919      2.448
REMARK  Name = 
REMARK  7 active torsions:
REMARK  status: ('A' for Active; 'I' for Inactive)
REMARK    1  A    between atoms: N_2  and  C_4
REMARK    2  A    between atoms: C_7  and  C_8
REMARK    3  A    between atoms: C_8  and  S_9
REMARK    4  A    between atoms: S_9  and  C_10
REMARK    5  A    between atoms: N_18  and  C_19
REMARK    6  A    between atoms: C_19  and  C_20
REMARK    7  A    between atoms: C_25  and  C_26
REMARK                            x       y       z     vdW  Elec       q    Type
REMARK                         _______ _______ _______ _____ _____    ______ ____
ROOT
ATOM      1  C   UNL     1       0.161   9.767  19.659  0.00  0.00    +0.000 A 
ATOM      2  N   UNL     1      -0.166   9.708  20.975  0.00  0.00    +0.000 NA
ATOM      3  C   UNL     1       0.496   8.815  21.749  0.00  0.00    +0.000 A 
ATOM      4  N   UNL     1       1.452   7.938  21.381  0.00  0.00    +0.000 NA
ATOM      5  C   UNL     1       1.736   8.046  20.077  0.00  0.00    +0.000 A 
ATOM      6  C   UNL     1       1.164   8.923  19.165  0.00  0.00    +0.000 A 
ATOM      7  N   UNL     1       1.710   8.751  17.911  0.00  0.00    +0.000 NA
ATOM      8  C   UNL     1       2.561   7.760  18.042  0.00  0.00    +0.000 A 
ATOM      9  N   UNL     1       2.595   7.291  19.328  0.00  0.00    +0.000 N 
ENDROOT
BRANCH   1  10
ATOM     10  S   UNL     1      -0.737  10.745  18.491  0.00  0.00    +0.000 S 
BRANCH  10  11
ATOM     11  C   UNL     1      -0.706  12.387  19.262  0.00  0.00    +0.000 C 
BRANCH  11  15
ATOM     12  C   UNL     1      -4.015  12.875  22.015  0.00  0.00    +0.000 A 
ATOM     13  C   UNL     1      -4.261  12.571  20.667  0.00  0.00    +0.000 A 
ATOM     14  C   UNL     1      -3.188  12.411  19.790  0.00  0.00    +0.000 A 
ATOM     15  C   UNL     1      -1.860  12.542  20.238  0.00  0.00    +0.000 A 
ATOM     16  C   UNL     1      -1.631  12.855  21.588  0.00  0.00    +0.000 A 
ATOM     17  C   UNL     1      -2.700  13.020  22.475  0.00  0.00    +0.000 A 
BRANCH  12  19
ATOM     18  O   UNL     1      -5.195  12.303  23.929  0.00  0.00    +0.000 OA
ATOM     19  N   UNL     1      -5.140  13.046  22.941  0.00  0.00    +0.000 N 
ATOM     20  O   UNL     1      -5.971  13.931  22.682  0.00  0.00    +0.000 OA
ENDBRANCH  12  19
ENDBRANCH  11  15
ENDBRANCH  10  11
ENDBRANCH   1  10
BRANCH   9  21
ATOM     21  C   UNL     1       3.293   6.076  19.734  0.00  0.00    +0.000 C 
BRANCH  21  22
ATOM     22  C   UNL     1       2.610   4.764  19.378  0.00  0.00    +0.000 A 
ATOM     23  C   UNL     1       1.430   4.392  20.070  0.00  0.00    +0.000 A 
ATOM     24  C   UNL     1       0.706   3.254  19.734  0.00  0.00    +0.000 A 
ATOM     25  C   UNL     1       1.147   2.446  18.705  0.00  0.00    +0.000 A 
ATOM     26  C   UNL     1       2.331   2.763  18.031  0.00  0.00    +0.000 A 
ATOM     27  C   UNL     1       3.099   3.917  18.333  0.00  0.00    +0.000 A 
BRANCH  27  28
ATOM     28  C   UNL     1       4.320   4.195  17.503  0.00  0.00    +0.000 A 
ATOM     29  C   UNL     1       5.593   4.328  18.099  0.00  0.00    +0.000 A 
ATOM     30  C   UNL     1       6.753   4.517  17.337  0.00  0.00    +0.000 A 
ATOM     31  C   UNL     1       6.668   4.551  15.957  0.00  0.00    +0.000 A 
ATOM     32  F   UNL     1       7.778   4.685  15.223  0.00  0.00    +0.000 F 
ATOM     33  C   UNL     1       5.438   4.467  15.330  0.00  0.00    +0.000 A 
ATOM     34  C   UNL     1       4.280   4.344  16.103  0.00  0.00    +0.000 A 
ENDBRANCH  27  28
ENDBRANCH  21  22
ENDBRANCH   9  21
TORSDOF 7
ENDMDL
MODEL 8
REMARK VINA RESULT:      -8.6      0.452      1.036
REMARK  Name = 
REMARK  7 active torsions:
REMARK  status: ('A' for Active; 'I' for Inactive)
REMARK    1  A    between atoms: N_2  and  C_4
REMARK    2  A    between atoms: C_7  and  C_8
REMARK    3  A    between atoms: C_8  and  S_9
REMARK    4  A    between atoms: S_9  and  C_10
REMARK    5  A    between atoms: N_18  and  C_19
REMARK    6  A    between atoms: C_19  and  C_20
REMARK    7  A    between atoms: C_25  and  C_26
REMARK                            x       y       z     vdW  Elec       q    Type
REMARK                         _______ _______ _______ _____ _____    ______ ____
ROOT
ATOM      1  C   UNL     1       0.288  10.335  19.947  0.00  0.00    +0.000 A 
ATOM      2  N   UNL     1       0.012  10.410  21.273  0.00  0.00    +0.000 NA
ATOM      3  C   UNL     1       0.528   9.451  22.079  0.00  0.00    +0.000 A 
ATOM      4  N   UNL     1       1.286   8.390  21.735  0.00  0.00    +0.000 NA
ATOM      5  C   UNL     1       1.529   8.373  20.418  0.00  0.00    +0.000 A 
ATOM      6  C   UNL     1       1.093   9.291  19.473  0.00  0.00    +0.000 A 
ATOM      7  N   UNL     1       1.544   8.953  18.215  0.00  0.00    +0.000 NA
ATOM      8  C   UNL     1       2.200   7.826  18.379  0.00  0.00    +0.000 A 
ATOM      9  N   UNL     1       2.200   7.430  19.689  0.00  0.00    +0.000 N 
ENDROOT
BRANCH   1  10
ATOM     10  S   UNL     1      -0.460  11.402  18.750  0.00  0.00    +0.000 S 
BRANCH  10  11
ATOM     11  C   UNL     1      -1.190  12.695  19.791  0.00  0.00    +0.000 C 
BRANCH  11  15
ATOM     12  C   UNL     1      -5.477  12.169  20.112  0.00  0.00    +0.000 A 
ATOM     13  C   UNL     1      -4.810  11.801  18.934  0.00  0.00    +0.000 A 
ATOM     14  C   UNL     1      -3.428  11.969  18.843  0.00  0.00    +0.000 A 
ATOM     15  C   UNL     1      -2.691  12.497  19.919  0.00  0.00    +0.000 A 
ATOM     16  C   UNL     1      -3.374  12.870  21.089  0.00  0.00    +0.000 A 
ATOM     17  C   UNL     1      -4.760  12.707  21.189  0.00  0.00    +0.000 A 
BRANCH  12  19
ATOM     18  O   UNL     1      -7.427  11.908  21.343  0.00  0.00    +0.000 OA
ATOM     19  N   UNL     1      -6.931  11.996  20.212  0.00  0.00    +0.000 N 
ATOM     20  O   UNL     1      -7.581  11.954  19.155  0.00  0.00    +0.000 OA
ENDBRANCH  12  19
ENDBRANCH  11  15
ENDBRANCH  10  11
ENDBRANCH   1  10
BRANCH   9  21
ATOM     21  C   UNL     1       2.675   6.129  20.147  0.00  0.00    +0.000 C 
BRANCH  21  22
ATOM     22  C   UNL     1       2.669   5.015  19.112  0.00  0.00    +0.000 A 
ATOM     23  C   UNL     1       1.497   4.233  18.947  0.00  0.00    +0.000 A 
ATOM     24  C   UNL     1       1.392   3.261  17.960  0.00  0.00    +0.000 A 
ATOM     25  C   UNL     1       2.459   3.031  17.114  0.00  0.00    +0.000 A 
ATOM     26  C   UNL     1       3.644   3.756  17.277  0.00  0.00    +0.000 A 
ATOM     27  C   UNL     1       3.796   4.762  18.266  0.00  0.00    +0.000 A 
BRANCH  27  28
ATOM     28  C   UNL     1       5.090   5.523  18.311  0.00  0.00    +0.000 A 
ATOM     29  C   UNL     1       6.085   5.216  19.265  0.00  0.00    +0.000 A 
ATOM     30  C   UNL     1       7.326   5.866  19.280  0.00  0.00    +0.000 A 
ATOM     31  C   UNL     1       7.610   6.821  18.321  0.00  0.00    +0.000 A 
ATOM     32  F   UNL     1       8.810   7.411  18.302  0.00  0.00    +0.000 F 
ATOM     33  C   UNL     1       6.653   7.185  17.391  0.00  0.00    +0.000 A 
ATOM     34  C   UNL     1       5.395   6.577  17.427  0.00  0.00    +0.000 A 
ENDBRANCH  27  28
ENDBRANCH  21  22
ENDBRANCH   9  21
TORSDOF 7
ENDMDL
MODEL 9
REMARK VINA RESULT:      -8.6      2.284      3.496
REMARK  Name = 
REMARK  7 active torsions:
REMARK  status: ('A' for Active; 'I' for Inactive)
REMARK    1  A    between atoms: N_2  and  C_4
REMARK    2  A    between atoms: C_7  and  C_8
REMARK    3  A    between atoms: C_8  and  S_9
REMARK    4  A    between atoms: S_9  and  C_10
REMARK    5  A    between atoms: N_18  and  C_19
REMARK    6  A    between atoms: C_19  and  C_20
REMARK    7  A    between atoms: C_25  and  C_26
REMARK                            x       y       z     vdW  Elec       q    Type
REMARK                         _______ _______ _______ _____ _____    ______ ____
ROOT
ATOM      1  C   UNL     1      -0.189   9.994  19.319  0.00  0.00    +0.000 A 
ATOM      2  N   UNL     1      -0.460   9.828  20.638  0.00  0.00    +0.000 NA
ATOM      3  C   UNL     1       0.372   9.036  21.358  0.00  0.00    +0.000 A 
ATOM      4  N   UNL     1       1.455   8.357  20.930  0.00  0.00    +0.000 NA
ATOM      5  C   UNL     1       1.676   8.565  19.626  0.00  0.00    +0.000 A 
ATOM      6  C   UNL     1       0.932   9.361  18.766  0.00  0.00    +0.000 A 
ATOM      7  N   UNL     1       1.462   9.337  17.494  0.00  0.00    +0.000 NA
ATOM      8  C   UNL     1       2.478   8.508  17.562  0.00  0.00    +0.000 A 
ATOM      9  N   UNL     1       2.633   8.003  18.826  0.00  0.00    +0.000 N 
ENDROOT
BRANCH   1  10
ATOM     10  S   UNL     1      -1.280  10.842  18.215  0.00  0.00    +0.000 S 
BRANCH  10  11
ATOM     11  C   UNL     1      -1.634  12.371  19.125  0.00  0.00    +0.000 C 
BRANCH  11  15
ATOM     12  C   UNL     1      -5.657  12.316  20.730  0.00  0.00    +0.000 A 
ATOM     13  C   UNL     1      -5.422  11.912  19.407  0.00  0.00    +0.000 A 
ATOM     14  C   UNL     1      -4.122  11.928  18.902  0.00  0.00    +0.000 A 
ATOM     15  C   UNL     1      -3.039  12.337  19.702  0.00  0.00    +0.000 A 
ATOM     16  C   UNL     1      -3.291  12.749  21.021  0.00  0.00    +0.000 A 
ATOM     17  C   UNL     1      -4.592  12.738  21.537  0.00  0.00    +0.000 A 
BRANCH  12  19
ATOM     18  O   UNL     1      -7.729  13.301  21.073  0.00  0.00    +0.000 OA
ATOM     19  N   UNL     1      -7.023  12.303  21.266  0.00  0.00    +0.000 N 
ATOM     20  O   UNL     1      -7.393  11.289  21.877  0.00  0.00    +0.000 OA
ENDBRANCH  12  19
ENDBRANCH  11  15
ENDBRANCH  10  11
ENDBRANCH   1  10
BRANCH   9  21
ATOM     21  C   UNL     1       3.545   6.917  19.163  0.00  0.00    +0.000 C 
BRANCH  21  22
ATOM     22  C   UNL     1       3.924   5.985  18.023  0.00  0.00    +0.000 A 
ATOM     23  C   UNL     1       4.678   6.497  16.937  0.00  0.00    +0.000 A 
ATOM     24  C   UNL     1       5.136   5.683  15.908  0.00  0.00    +0.000 A 
ATOM     25  C   UNL     1       4.843   4.334  15.925  0.00  0.00    +0.000 A 
ATOM     26  C   UNL     1       4.065   3.805  16.961  0.00  0.00    +0.000 A 
ATOM     27  C   UNL     1       3.582   4.595  18.036  0.00  0.00    +0.000 A 
BRANCH  27  28
ATOM     28  C   UNL     1       2.809   3.912  19.128  0.00  0.00    +0.000 A 
ATOM     29  C   UNL     1       3.470   3.209  20.160  0.00  0.00    +0.000 A 
ATOM     30  C   UNL     1       2.772   2.626  21.224  0.00  0.00    +0.000 A 
ATOM     31  C   UNL     1       1.396   2.754  21.295  0.00  0.00    +0.000 A 
ATOM     32  F   UNL     1       0.731   2.239  22.334  0.00  0.00    +0.000 F 
ATOM     33  C   UNL     1       0.702   3.398  20.287  0.00  0.00    +0.000 A 
ATOM     34  C   UNL     1       1.402   3.920  19.196  0.00  0.00    +0.000 A 
ENDBRANCH  27  28
ENDBRANCH  21  22
ENDBRANCH   9  21
TORSDOF 7
ENDMDL
