MODEL 1
REMARK VINA RESULT:      -7.2      0.000      0.000
REMARK  Name = 
REMARK  2 active torsions:
REMARK  status: ('A' for Active; 'I' for Inactive)
REMARK    1  A    between atoms: C_2  and  C_3
REMARK    2  A    between atoms: C_11  and  N_12
REMARK                            x       y       z     vdW  Elec       q    Type
REMARK                         _______ _______ _______ _____ _____    ______ ____
ROOT
ATOM      1  O   UNL     1       3.792   7.124  17.712  0.00  0.00    +0.000 OA
ATOM      2  C   UNL     1       3.766   5.894  17.696  0.00  0.00    +0.000 C 
ATOM      3  N   UNL     1       4.651   5.243  16.811  0.00  0.00    +0.000 N 
ATOM      4  C   UNL     1       5.338   5.784  15.743  0.00  0.00    +0.000 A 
ATOM      5  C   UNL     1       6.080   4.761  15.196  0.00  0.00    +0.000 A 
ATOM      6  C   UNL     1       5.812   3.644  15.999  0.00  0.00    +0.000 A 
ATOM      7  N   UNL     1       4.928   3.914  16.962  0.00  0.00    +0.000 NA
ENDROOT
BRANCH   2   8
ATOM      8  C   UNL     1       2.806   5.171  18.567  0.00  0.00    +0.000 A 
ATOM      9  C   UNL     1       2.873   5.327  19.959  0.00  0.00    +0.000 A 
ATOM     10  C   UNL     1       1.991   4.633  20.782  0.00  0.00    +0.000 A 
ATOM     11  C   UNL     1       1.044   3.777  20.224  0.00  0.00    +0.000 A 
ATOM     12  C   UNL     1       0.986   3.605  18.838  0.00  0.00    +0.000 A 
ATOM     13  C   UNL     1       1.874   4.294  18.010  0.00  0.00    +0.000 A 
ENDBRANCH   2   8
BRANCH   5  14
ATOM     14  N   UNL     1       6.932   4.817  14.051  0.00  0.00    +0.000 N 
ATOM     15  O   UNL     1       7.883   5.607  14.094  0.00  0.00    +0.000 OA
ATOM     16  O   UNL     1       6.638   4.078  13.105  0.00  0.00    +0.000 OA
ENDBRANCH   5  14
TORSDOF 2
ENDMDL
MODEL 2
REMARK VINA RESULT:      -7.2      0.160      1.446
REMARK  Name = 
REMARK  2 active torsions:
REMARK  status: ('A' for Active; 'I' for Inactive)
REMARK    1  A    between atoms: C_2  and  C_3
REMARK    2  A    between atoms: C_11  and  N_12
REMARK                            x       y       z     vdW  Elec       q    Type
REMARK                         _______ _______ _______ _____ _____    ______ ____
ROOT
ATOM      1  O   UNL     1       3.597   7.040  17.745  0.00  0.00    +0.000 OA
ATOM      2  C   UNL     1       3.631   5.810  17.750  0.00  0.00    +0.000 C 
ATOM      3  N   UNL     1       4.552   5.188  16.882  0.00  0.00    +0.000 N 
ATOM      4  C   UNL     1       5.219   5.743  15.808  0.00  0.00    +0.000 A 
ATOM      5  C   UNL     1       6.014   4.748  15.283  0.00  0.00    +0.000 A 
ATOM      6  C   UNL     1       5.795   3.634  16.105  0.00  0.00    +0.000 A 
ATOM      7  N   UNL     1       4.893   3.877  17.058  0.00  0.00    +0.000 NA
ENDROOT
BRANCH   2   8
ATOM      8  C   UNL     1       2.702   5.057  18.629  0.00  0.00    +0.000 A 
ATOM      9  C   UNL     1       1.815   4.124  18.070  0.00  0.00    +0.000 A 
ATOM     10  C   UNL     1       0.924   3.433  18.885  0.00  0.00    +0.000 A 
ATOM     11  C   UNL     1       0.907   3.671  20.257  0.00  0.00    +0.000 A 
ATOM     12  C   UNL     1       1.775   4.614  20.815  0.00  0.00    +0.000 A 
ATOM     13  C   UNL     1       2.666   5.314  20.000  0.00  0.00    +0.000 A 
ENDBRANCH   2   8
BRANCH   5  14
ATOM     14  N   UNL     1       6.869   4.826  14.143  0.00  0.00    +0.000 N 
ATOM     15  O   UNL     1       6.588   4.107  13.176  0.00  0.00    +0.000 OA
ATOM     16  O   UNL     1       7.829   5.600  14.222  0.00  0.00    +0.000 OA
ENDBRANCH   5  14
TORSDOF 2
ENDMDL
MODEL 3
REMARK VINA RESULT:      -7.0      1.584      1.824
REMARK  Name = 
REMARK  2 active torsions:
REMARK  status: ('A' for Active; 'I' for Inactive)
REMARK    1  A    between atoms: C_2  and  C_3
REMARK    2  A    between atoms: C_11  and  N_12
REMARK                            x       y       z     vdW  Elec       q    Type
REMARK                         _______ _______ _______ _____ _____    ______ ____
ROOT
ATOM      1  O   UNL     1       6.152   4.759  19.763  0.00  0.00    +0.000 OA
ATOM      2  C   UNL     1       5.178   4.466  19.070  0.00  0.00    +0.000 C 
ATOM      3  N   UNL     1       5.382   4.375  17.677  0.00  0.00    +0.000 N 
ATOM      4  C   UNL     1       6.447   4.853  16.940  0.00  0.00    +0.000 A 
ATOM      5  C   UNL     1       6.201   4.511  15.629  0.00  0.00    +0.000 A 
ATOM      6  C   UNL     1       4.989   3.808  15.656  0.00  0.00    +0.000 A 
ATOM      7  N   UNL     1       4.469   3.742  16.884  0.00  0.00    +0.000 NA
ENDROOT
BRANCH   2   8
ATOM      8  C   UNL     1       3.858   4.257  19.716  0.00  0.00    +0.000 A 
ATOM      9  C   UNL     1       3.477   2.972  20.127  0.00  0.00    +0.000 A 
ATOM     10  C   UNL     1       2.231   2.765  20.710  0.00  0.00    +0.000 A 
ATOM     11  C   UNL     1       1.356   3.835  20.880  0.00  0.00    +0.000 A 
ATOM     12  C   UNL     1       1.723   5.115  20.455  0.00  0.00    +0.000 A 
ATOM     13  C   UNL     1       2.970   5.324  19.862  0.00  0.00    +0.000 A 
ENDBRANCH   2   8
BRANCH   5  14
ATOM     14  N   UNL     1       6.999   4.814  14.484  0.00  0.00    +0.000 N 
ATOM     15  O   UNL     1       7.904   5.644  14.631  0.00  0.00    +0.000 OA
ATOM     16  O   UNL     1       6.708   4.227  13.436  0.00  0.00    +0.000 OA
ENDBRANCH   5  14
TORSDOF 2
ENDMDL
MODEL 4
REMARK VINA RESULT:      -7.0      2.143      2.734
REMARK  Name = 
REMARK  2 active torsions:
REMARK  status: ('A' for Active; 'I' for Inactive)
REMARK    1  A    between atoms: C_2  and  C_3
REMARK    2  A    between atoms: C_11  and  N_12
REMARK                            x       y       z     vdW  Elec       q    Type
REMARK                         _______ _______ _______ _____ _____    ______ ____
ROOT
ATOM      1  O   UNL     1       3.800   2.007  17.310  0.00  0.00    +0.000 OA
ATOM      2  C   UNL     1       3.739   2.986  18.053  0.00  0.00    +0.000 C 
ATOM      3  N   UNL     1       4.547   4.095  17.725  0.00  0.00    +0.000 N 
ATOM      4  C   UNL     1       5.620   4.139  16.857  0.00  0.00    +0.000 A 
ATOM      5  C   UNL     1       6.073   5.440  16.861  0.00  0.00    +0.000 A 
ATOM      6  C   UNL     1       5.211   6.124  17.729  0.00  0.00    +0.000 A 
ATOM      7  N   UNL     1       4.302   5.318  18.280  0.00  0.00    +0.000 NA
ENDROOT
BRANCH   2   8
ATOM      8  C   UNL     1       2.862   2.942  19.249  0.00  0.00    +0.000 A 
ATOM      9  C   UNL     1       1.504   3.271  19.131  0.00  0.00    +0.000 A 
ATOM     10  C   UNL     1       0.681   3.256  20.254  0.00  0.00    +0.000 A 
ATOM     11  C   UNL     1       1.208   2.920  21.498  0.00  0.00    +0.000 A 
ATOM     12  C   UNL     1       2.565   2.610  21.624  0.00  0.00    +0.000 A 
ATOM     13  C   UNL     1       3.395   2.632  20.501  0.00  0.00    +0.000 A 
ENDBRANCH   2   8
BRANCH   5  14
ATOM     14  N   UNL     1       7.185   5.978  16.146  0.00  0.00    +0.000 N 
ATOM     15  O   UNL     1       7.716   6.995  16.608  0.00  0.00    +0.000 OA
ATOM     16  O   UNL     1       7.517   5.386  15.112  0.00  0.00    +0.000 OA
ENDBRANCH   5  14
TORSDOF 2
ENDMDL
MODEL 5
REMARK VINA RESULT:      -6.9      2.134      2.640
REMARK  Name = 
REMARK  2 active torsions:
REMARK  status: ('A' for Active; 'I' for Inactive)
REMARK    1  A    between atoms: C_2  and  C_3
REMARK    2  A    between atoms: C_11  and  N_12
REMARK                            x       y       z     vdW  Elec       q    Type
REMARK                         _______ _______ _______ _____ _____    ______ ____
ROOT
ATOM      1  O   UNL     1       3.844   2.005  17.383  0.00  0.00    +0.000 OA
ATOM      2  C   UNL     1       3.756   3.010  18.088  0.00  0.00    +0.000 C 
ATOM      3  N   UNL     1       4.549   4.120  17.729  0.00  0.00    +0.000 N 
ATOM      4  C   UNL     1       5.633   4.150  16.875  0.00  0.00    +0.000 A 
ATOM      5  C   UNL     1       6.064   5.457  16.835  0.00  0.00    +0.000 A 
ATOM      6  C   UNL     1       5.180   6.159  17.664  0.00  0.00    +0.000 A 
ATOM      7  N   UNL     1       4.276   5.359  18.233  0.00  0.00    +0.000 NA
ENDROOT
BRANCH   2   8
ATOM      8  C   UNL     1       2.862   2.996  19.273  0.00  0.00    +0.000 A 
ATOM      9  C   UNL     1       3.378   2.655  20.532  0.00  0.00    +0.000 A 
ATOM     10  C   UNL     1       2.541   2.616  21.643  0.00  0.00    +0.000 A 
ATOM     11  C   UNL     1       1.187   2.909  21.504  0.00  0.00    +0.000 A 
ATOM     12  C   UNL     1       0.664   3.231  20.248  0.00  0.00    +0.000 A 
ATOM     13  C   UNL     1       1.500   3.264  19.130  0.00  0.00    +0.000 A 
ENDBRANCH   2   8
BRANCH   5  14
ATOM     14  N   UNL     1       7.178   5.987  16.115  0.00  0.00    +0.000 N 
ATOM     15  O   UNL     1       7.514   5.396  15.081  0.00  0.00    +0.000 OA
ATOM     16  O   UNL     1       7.722   6.988  16.594  0.00  0.00    +0.000 OA
ENDBRANCH   5  14
TORSDOF 2
ENDMDL
MODEL 6
REMARK VINA RESULT:      -6.9      1.709      1.913
REMARK  Name = 
REMARK  2 active torsions:
REMARK  status: ('A' for Active; 'I' for Inactive)
REMARK    1  A    between atoms: C_2  and  C_3
REMARK    2  A    between atoms: C_11  and  N_12
REMARK                            x       y       z     vdW  Elec       q    Type
REMARK                         _______ _______ _______ _____ _____    ______ ____
ROOT
ATOM      1  O   UNL     1       2.637   6.998  18.812  0.00  0.00    +0.000 OA
ATOM      2  C   UNL     1       3.114   5.867  18.888  0.00  0.00    +0.000 C 
ATOM      3  N   UNL     1       4.399   5.671  18.340  0.00  0.00    +0.000 N 
ATOM      4  C   UNL     1       5.084   6.490  17.465  0.00  0.00    +0.000 A 
ATOM      5  C   UNL     1       6.298   5.883  17.230  0.00  0.00    +0.000 A 
ATOM      6  C   UNL     1       6.284   4.722  18.014  0.00  0.00    +0.000 A 
ATOM      7  N   UNL     1       5.132   4.567  18.669  0.00  0.00    +0.000 NA
ENDROOT
BRANCH   2   8
ATOM      8  C   UNL     1       2.321   4.779  19.513  0.00  0.00    +0.000 A 
ATOM      9  C   UNL     1       2.408   4.557  20.895  0.00  0.00    +0.000 A 
ATOM     10  C   UNL     1       1.686   3.523  21.483  0.00  0.00    +0.000 A 
ATOM     11  C   UNL     1       0.879   2.703  20.698  0.00  0.00    +0.000 A 
ATOM     12  C   UNL     1       0.804   2.909  19.318  0.00  0.00    +0.000 A 
ATOM     13  C   UNL     1       1.533   3.941  18.723  0.00  0.00    +0.000 A 
ENDBRANCH   2   8
BRANCH   5  14
ATOM     14  N   UNL     1       7.344   6.330  16.366  0.00  0.00    +0.000 N 
ATOM     15  O   UNL     1       7.908   7.390  16.664  0.00  0.00    +0.000 OA
ATOM     16  O   UNL     1       7.589   5.624  15.382  0.00  0.00    +0.000 OA
ENDBRANCH   5  14
TORSDOF 2
ENDMDL
MODEL 7
REMARK VINA RESULT:      -6.9      2.691      3.213
REMARK  Name = 
REMARK  2 active torsions:
REMARK  status: ('A' for Active; 'I' for Inactive)
REMARK    1  A    between atoms: C_2  and  C_3
REMARK    2  A    between atoms: C_11  and  N_12
REMARK                            x       y       z     vdW  Elec       q    Type
REMARK                         _______ _______ _______ _____ _____    ______ ____
ROOT
ATOM      1  O   UNL     1       5.241   2.842  19.956  0.00  0.00    +0.000 OA
ATOM      2  C   UNL     1       4.496   3.631  19.375  0.00  0.00    +0.000 C 
ATOM      3  N   UNL     1       5.100   4.726  18.723  0.00  0.00    +0.000 N 
ATOM      4  C   UNL     1       6.382   5.211  18.885  0.00  0.00    +0.000 A 
ATOM      5  C   UNL     1       6.507   6.280  18.024  0.00  0.00    +0.000 A 
ATOM      6  C   UNL     1       5.276   6.362  17.361  0.00  0.00    +0.000 A 
ATOM      7  N   UNL     1       4.406   5.446  17.794  0.00  0.00    +0.000 NA
ENDROOT
BRANCH   2   8
ATOM      8  C   UNL     1       3.028   3.413  19.415  0.00  0.00    +0.000 A 
ATOM      9  C   UNL     1       2.249   4.080  20.371  0.00  0.00    +0.000 A 
ATOM     10  C   UNL     1       0.876   3.861  20.430  0.00  0.00    +0.000 A 
ATOM     11  C   UNL     1       0.274   2.974  19.542  0.00  0.00    +0.000 A 
ATOM     12  C   UNL     1       1.050   2.292  18.599  0.00  0.00    +0.000 A 
ATOM     13  C   UNL     1       2.429   2.504  18.543  0.00  0.00    +0.000 A 
ENDBRANCH   2   8
BRANCH   5  14
ATOM     14  N   UNL     1       7.641   7.130  17.850  0.00  0.00    +0.000 N 
ATOM     15  O   UNL     1       7.740   7.724  16.770  0.00  0.00    +0.000 OA
ATOM     16  O   UNL     1       8.437   7.192  18.794  0.00  0.00    +0.000 OA
ENDBRANCH   5  14
TORSDOF 2
ENDMDL
MODEL 8
REMARK VINA RESULT:      -6.9      1.551      1.677
REMARK  Name = 
REMARK  2 active torsions:
REMARK  status: ('A' for Active; 'I' for Inactive)
REMARK    1  A    between atoms: C_2  and  C_3
REMARK    2  A    between atoms: C_11  and  N_12
REMARK                            x       y       z     vdW  Elec       q    Type
REMARK                         _______ _______ _______ _____ _____    ______ ____
ROOT
ATOM      1  O   UNL     1       6.248   4.681  19.550  0.00  0.00    +0.000 OA
ATOM      2  C   UNL     1       5.253   4.483  18.853  0.00  0.00    +0.000 C 
ATOM      3  N   UNL     1       5.447   4.423  17.457  0.00  0.00    +0.000 N 
ATOM      4  C   UNL     1       6.542   4.846  16.731  0.00  0.00    +0.000 A 
ATOM      5  C   UNL     1       6.269   4.566  15.410  0.00  0.00    +0.000 A 
ATOM      6  C   UNL     1       5.008   3.954  15.421  0.00  0.00    +0.000 A 
ATOM      7  N   UNL     1       4.488   3.886  16.648  0.00  0.00    +0.000 NA
ENDROOT
BRANCH   2   8
ATOM      8  C   UNL     1       3.923   4.351  19.498  0.00  0.00    +0.000 A 
ATOM      9  C   UNL     1       3.118   5.485  19.677  0.00  0.00    +0.000 A 
ATOM     10  C   UNL     1       1.881   5.372  20.303  0.00  0.00    +0.000 A 
ATOM     11  C   UNL     1       1.443   4.132  20.760  0.00  0.00    +0.000 A 
ATOM     12  C   UNL     1       2.250   3.002  20.601  0.00  0.00    +0.000 A 
ATOM     13  C   UNL     1       3.495   3.113  19.980  0.00  0.00    +0.000 A 
ENDBRANCH   2   8
BRANCH   5  14
ATOM     14  N   UNL     1       7.084   4.847  14.273  0.00  0.00    +0.000 N 
ATOM     15  O   UNL     1       8.015   5.646  14.429  0.00  0.00    +0.000 OA
ATOM     16  O   UNL     1       6.781   4.276  13.219  0.00  0.00    +0.000 OA
ENDBRANCH   5  14
TORSDOF 2
ENDMDL
MODEL 9
REMARK VINA RESULT:      -6.9      1.934      2.485
REMARK  Name = 
REMARK  2 active torsions:
REMARK  status: ('A' for Active; 'I' for Inactive)
REMARK    1  A    between atoms: C_2  and  C_3
REMARK    2  A    between atoms: C_11  and  N_12
REMARK                            x       y       z     vdW  Elec       q    Type
REMARK                         _______ _______ _______ _____ _____    ______ ____
ROOT
ATOM      1  O   UNL     1       2.592   6.951  19.100  0.00  0.00    +0.000 OA
ATOM      2  C   UNL     1       3.122   5.841  19.136  0.00  0.00    +0.000 C 
ATOM      3  N   UNL     1       4.416   5.727  18.585  0.00  0.00    +0.000 N 
ATOM      4  C   UNL     1       5.063   6.610  17.745  0.00  0.00    +0.000 A 
ATOM      5  C   UNL     1       6.305   6.070  17.492  0.00  0.00    +0.000 A 
ATOM      6  C   UNL     1       6.344   4.881  18.232  0.00  0.00    +0.000 A 
ATOM      7  N   UNL     1       5.199   4.647  18.876  0.00  0.00    +0.000 NA
ENDROOT
BRANCH   2   8
ATOM      8  C   UNL     1       2.379   4.695  19.716  0.00  0.00    +0.000 A 
ATOM      9  C   UNL     1       1.585   3.887  18.889  0.00  0.00    +0.000 A 
ATOM     10  C   UNL     1       0.866   2.826  19.431  0.00  0.00    +0.000 A 
ATOM     11  C   UNL     1       0.929   2.569  20.798  0.00  0.00    +0.000 A 
ATOM     12  C   UNL     1       1.704   3.383  21.630  0.00  0.00    +0.000 A 
ATOM     13  C   UNL     1       2.420   4.453  21.090  0.00  0.00    +0.000 A 
ENDBRANCH   2   8
BRANCH   5  14
ATOM     14  N   UNL     1       7.330   6.598  16.650  0.00  0.00    +0.000 N 
ATOM     15  O   UNL     1       7.805   7.698  16.960  0.00  0.00    +0.000 OA
ATOM     16  O   UNL     1       7.649   5.914  15.671  0.00  0.00    +0.000 OA
ENDBRANCH   5  14
TORSDOF 2
ENDMDL
