MODEL 1
REMARK VINA RESULT:      -7.5      0.000      0.000
REMARK  Name = 
REMARK  6 active torsions:
REMARK  status: ('A' for Active; 'I' for Inactive)
REMARK    1  A    between atoms: C_1  and  C_2
REMARK    2  A    between atoms: C_2  and  O_3
REMARK    3  A    between atoms: O_3  and  C_4
REMARK    4  A    between atoms: C_9  and  N_10
REMARK    5  A    between atoms: N_10  and  C_11
REMARK    6  A    between atoms: C_11  and  C_12
REMARK                            x       y       z     vdW  Elec       q    Type
REMARK                         _______ _______ _______ _____ _____    ______ ____
ROOT
ATOM      1  N   UNL     1       4.124   5.107  18.951  0.00  0.00    +0.000 NA
ATOM      2  H   UNL     1       4.263   4.121  18.727  0.00  0.00    +0.000 HD
ENDROOT
BRANCH   1   8
ATOM      3  C   UNL     1       6.694   5.108  14.910  0.00  0.00    +0.000 C 
ATOM      4  O   UNL     1       7.877   5.124  14.613  0.00  0.00    +0.000 OA
ATOM      5  N   UNL     1       6.172   5.755  16.006  0.00  0.00    +0.000 N 
ATOM      6  C   UNL     1       7.057   6.291  17.009  0.00  0.00    +0.000 C 
ATOM      7  C   UNL     1       6.455   5.747  18.287  0.00  0.00    +0.000 C 
ATOM      8  C   UNL     1       4.951   5.922  18.047  0.00  0.00    +0.000 C 
ATOM      9  C   UNL     1       4.826   5.566  16.542  0.00  0.00    +0.000 C 
BRANCH   3  10
ATOM     10  O   UNL     1       5.743   4.415  14.221  0.00  0.00    +0.000 OA
BRANCH  10  12
ATOM     11  C   UNL     1       5.132   3.419  12.097  0.00  0.00    +0.000 C 
ATOM     12  C   UNL     1       6.236   3.658  13.109  0.00  0.00    +0.000 C 
ENDBRANCH  10  12
ENDBRANCH   3  10
ENDBRANCH   1   8
BRANCH   1  13
ATOM     13  C   UNL     1       2.664   5.416  18.893  0.00  0.00    +0.000 C 
ATOM     14  C   UNL     1       1.830   4.583  17.939  0.00  0.00    +0.000 C 
ATOM     15  C   UNL     1       1.700   4.365  19.411  0.00  0.00    +0.000 C 
BRANCH  13  16
ATOM     16  C   UNL     1       2.339   6.894  19.078  0.00  0.00    +0.000 A 
ATOM     17  C   UNL     1       2.216   7.752  17.967  0.00  0.00    +0.000 A 
ATOM     18  C   UNL     1       1.608   9.003  18.069  0.00  0.00    +0.000 A 
ATOM     19  C   UNL     1       1.147   9.444  19.305  0.00  0.00    +0.000 A 
ATOM     20  C   UNL     1       1.357   8.659  20.436  0.00  0.00    +0.000 A 
ATOM     21 CL   UNL     1       0.791   9.206  21.966  0.00  0.00    +0.000 Cl
ATOM     22  C   UNL     1       1.963   7.406  20.331  0.00  0.00    +0.000 A 
ENDBRANCH  13  16
ENDBRANCH   1  13
TORSDOF 5
ENDMDL
MODEL 2
REMARK VINA RESULT:      -7.4      1.547      2.159
REMARK  Name = 
REMARK  6 active torsions:
REMARK  status: ('A' for Active; 'I' for Inactive)
REMARK    1  A    between atoms: C_1  and  C_2
REMARK    2  A    between atoms: C_2  and  O_3
REMARK    3  A    between atoms: O_3  and  C_4
REMARK    4  A    between atoms: C_9  and  N_10
REMARK    5  A    between atoms: N_10  and  C_11
REMARK    6  A    between atoms: C_11  and  C_12
REMARK                            x       y       z     vdW  Elec       q    Type
REMARK                         _______ _______ _______ _____ _____    ______ ____
ROOT
ATOM      1  N   UNL     1       4.711   3.561  18.527  0.00  0.00    +0.000 NA
ATOM      2  H   UNL     1       5.057   2.691  18.119  0.00  0.00    +0.000 HD
ENDROOT
BRANCH   1   8
ATOM      3  C   UNL     1       6.799   4.861  14.417  0.00  0.00    +0.000 C 
ATOM      4  O   UNL     1       7.908   5.225  14.064  0.00  0.00    +0.000 OA
ATOM      5  N   UNL     1       6.245   5.170  15.638  0.00  0.00    +0.000 N 
ATOM      6  C   UNL     1       7.067   5.747  16.671  0.00  0.00    +0.000 C 
ATOM      7  C   UNL     1       6.742   4.872  17.862  0.00  0.00    +0.000 C 
ATOM      8  C   UNL     1       5.225   4.693  17.739  0.00  0.00    +0.000 C 
ATOM      9  C   UNL     1       5.044   4.561  16.204  0.00  0.00    +0.000 C 
BRANCH   3  10
ATOM     10  O   UNL     1       5.981   4.068  13.669  0.00  0.00    +0.000 OA
BRANCH  10  12
ATOM     11  C   UNL     1       5.605   2.660  11.731  0.00  0.00    +0.000 C 
ATOM     12  C   UNL     1       6.534   3.643  12.416  0.00  0.00    +0.000 C 
ENDBRANCH  10  12
ENDBRANCH   3  10
ENDBRANCH   1   8
BRANCH   1  13
ATOM     13  C   UNL     1       3.221   3.496  18.610  0.00  0.00    +0.000 C 
ATOM     14  C   UNL     1       2.520   2.617  17.592  0.00  0.00    +0.000 C 
ATOM     15  C   UNL     1       2.594   2.177  19.018  0.00  0.00    +0.000 C 
BRANCH  13  16
ATOM     16  C   UNL     1       2.571   4.806  19.042  0.00  0.00    +0.000 A 
ATOM     17  C   UNL     1       2.159   5.004  20.375  0.00  0.00    +0.000 A 
ATOM     18  C   UNL     1       1.874   6.275  20.874  0.00  0.00    +0.000 A 
ATOM     19  C   UNL     1       1.953   7.378  20.031  0.00  0.00    +0.000 A 
ATOM     20  C   UNL     1       2.252   7.193  18.684  0.00  0.00    +0.000 A 
ATOM     21 CL   UNL     1       2.346   8.556  17.639  0.00  0.00    +0.000 Cl
ATOM     22  C   UNL     1       2.539   5.920  18.186  0.00  0.00    +0.000 A 
ENDBRANCH  13  16
ENDBRANCH   1  13
TORSDOF 5
ENDMDL
MODEL 3
REMARK VINA RESULT:      -7.3      4.099      7.380
REMARK  Name = 
REMARK  6 active torsions:
REMARK  status: ('A' for Active; 'I' for Inactive)
REMARK    1  A    between atoms: C_1  and  C_2
REMARK    2  A    between atoms: C_2  and  O_3
REMARK    3  A    between atoms: O_3  and  C_4
REMARK    4  A    between atoms: C_9  and  N_10
REMARK    5  A    between atoms: N_10  and  C_11
REMARK    6  A    between atoms: C_11  and  C_12
REMARK                            x       y       z     vdW  Elec       q    Type
REMARK                         _______ _______ _______ _____ _____    ______ ____
ROOT
ATOM      1  N   UNL     1       5.059   4.620  16.723  0.00  0.00    +0.000 NA
ATOM      2  H   UNL     1       5.005   3.642  17.011  0.00  0.00    +0.000 HD
ENDROOT
BRANCH   1   8
ATOM      3  C   UNL     1       2.235   4.934  20.578  0.00  0.00    +0.000 C 
ATOM      4  O   UNL     1       1.207   5.518  20.878  0.00  0.00    +0.000 OA
ATOM      5  N   UNL     1       3.195   5.456  19.742  0.00  0.00    +0.000 N 
ATOM      6  C   UNL     1       2.909   6.640  18.974  0.00  0.00    +0.000 C 
ATOM      7  C   UNL     1       3.340   6.229  17.583  0.00  0.00    +0.000 C 
ATOM      8  C   UNL     1       4.645   5.471  17.850  0.00  0.00    +0.000 C 
ATOM      9  C   UNL     1       4.308   4.710  19.159  0.00  0.00    +0.000 C 
BRANCH   3  10
ATOM     10  O   UNL     1       2.548   3.675  20.997  0.00  0.00    +0.000 OA
BRANCH  10  12
ATOM     11  C   UNL     1       1.592   2.128  19.393  0.00  0.00    +0.000 C 
ATOM     12  C   UNL     1       1.518   2.699  20.796  0.00  0.00    +0.000 C 
ENDBRANCH  10  12
ENDBRANCH   3  10
ENDBRANCH   1   8
BRANCH   1  13
ATOM     13  C   UNL     1       6.436   4.899  16.215  0.00  0.00    +0.000 C 
ATOM     14  C   UNL     1       7.245   5.931  16.976  0.00  0.00    +0.000 C 
ATOM     15  C   UNL     1       7.606   4.486  17.085  0.00  0.00    +0.000 C 
BRANCH  13  16
ATOM     16  C   UNL     1       6.559   4.821  14.697  0.00  0.00    +0.000 A 
ATOM     17  C   UNL     1       7.560   5.540  14.014  0.00  0.00    +0.000 A 
ATOM     18  C   UNL     1       7.909   5.241  12.697  0.00  0.00    +0.000 A 
ATOM     19  C   UNL     1       7.226   4.240  12.015  0.00  0.00    +0.000 A 
ATOM     20  C   UNL     1       6.160   3.592  12.634  0.00  0.00    +0.000 A 
ATOM     21 CL   UNL     1       5.312   2.356  11.789  0.00  0.00    +0.000 Cl
ATOM     22  C   UNL     1       5.814   3.890  13.953  0.00  0.00    +0.000 A 
ENDBRANCH  13  16
ENDBRANCH   1  13
TORSDOF 5
ENDMDL
MODEL 4
REMARK VINA RESULT:      -7.2      4.169      7.245
REMARK  Name = 
REMARK  6 active torsions:
REMARK  status: ('A' for Active; 'I' for Inactive)
REMARK    1  A    between atoms: C_1  and  C_2
REMARK    2  A    between atoms: C_2  and  O_3
REMARK    3  A    between atoms: O_3  and  C_4
REMARK    4  A    between atoms: C_9  and  N_10
REMARK    5  A    between atoms: N_10  and  C_11
REMARK    6  A    between atoms: C_11  and  C_12
REMARK                            x       y       z     vdW  Elec       q    Type
REMARK                         _______ _______ _______ _____ _____    ______ ____
ROOT
ATOM      1  N   UNL     1       2.712   4.347  18.917  0.00  0.00    +0.000 NA
ATOM      2  H   UNL     1       2.276   4.099  19.806  0.00  0.00    +0.000 HD
ENDROOT
BRANCH   1   8
ATOM      3  C   UNL     1       1.166   8.731  20.070  0.00  0.00    +0.000 C 
ATOM      4  O   UNL     1       0.764   9.714  19.470  0.00  0.00    +0.000 OA
ATOM      5  N   UNL     1       2.136   7.884  19.585  0.00  0.00    +0.000 N 
ATOM      6  C   UNL     1       2.555   7.987  18.210  0.00  0.00    +0.000 C 
ATOM      7  C   UNL     1       2.472   6.550  17.744  0.00  0.00    +0.000 C 
ATOM      8  C   UNL     1       3.049   5.780  18.937  0.00  0.00    +0.000 C 
ATOM      9  C   UNL     1       2.472   6.574  20.138  0.00  0.00    +0.000 C 
BRANCH   3  10
ATOM     10  O   UNL     1       0.681   8.321  21.275  0.00  0.00    +0.000 OA
BRANCH  10  12
ATOM     11  C   UNL     1      -0.234   9.504  23.183  0.00  0.00    +0.000 C 
ATOM     12  C   UNL     1       1.008   9.174  22.380  0.00  0.00    +0.000 C 
ENDBRANCH  10  12
ENDBRANCH   3  10
ENDBRANCH   1   8
BRANCH   1  13
ATOM     13  C   UNL     1       3.879   3.444  18.682  0.00  0.00    +0.000 C 
ATOM     14  C   UNL     1       4.302   2.563  19.841  0.00  0.00    +0.000 C 
ATOM     15  C   UNL     1       3.621   1.950  18.661  0.00  0.00    +0.000 C 
BRANCH  13  16
ATOM     16  C   UNL     1       4.942   4.040  17.765  0.00  0.00    +0.000 A 
ATOM     17  C   UNL     1       6.156   4.529  18.288  0.00  0.00    +0.000 A 
ATOM     18  C   UNL     1       7.263   4.767  17.474  0.00  0.00    +0.000 A 
ATOM     19  C   UNL     1       7.163   4.563  16.102  0.00  0.00    +0.000 A 
ATOM     20  C   UNL     1       5.941   4.186  15.551  0.00  0.00    +0.000 A 
ATOM     21 CL   UNL     1       5.816   3.937  13.853  0.00  0.00    +0.000 Cl
ATOM     22  C   UNL     1       4.835   3.944  16.368  0.00  0.00    +0.000 A 
ENDBRANCH  13  16
ENDBRANCH   1  13
TORSDOF 5
ENDMDL
MODEL 5
REMARK VINA RESULT:      -7.0      1.838      3.020
REMARK  Name = 
REMARK  6 active torsions:
REMARK  status: ('A' for Active; 'I' for Inactive)
REMARK    1  A    between atoms: C_1  and  C_2
REMARK    2  A    between atoms: C_2  and  O_3
REMARK    3  A    between atoms: O_3  and  C_4
REMARK    4  A    between atoms: C_9  and  N_10
REMARK    5  A    between atoms: N_10  and  C_11
REMARK    6  A    between atoms: C_11  and  C_12
REMARK                            x       y       z     vdW  Elec       q    Type
REMARK                         _______ _______ _______ _____ _____    ______ ____
ROOT
ATOM      1  N   UNL     1       3.444   3.469  19.884  0.00  0.00    +0.000 NA
ATOM      2  H   UNL     1       3.219   2.524  20.198  0.00  0.00    +0.000 HD
ENDROOT
BRANCH   1   8
ATOM      3  C   UNL     1       6.050   5.961  16.731  0.00  0.00    +0.000 C 
ATOM      4  O   UNL     1       6.075   6.104  15.520  0.00  0.00    +0.000 OA
ATOM      5  N   UNL     1       5.719   4.779  17.354  0.00  0.00    +0.000 N 
ATOM      6  C   UNL     1       5.138   3.705  16.590  0.00  0.00    +0.000 C 
ATOM      7  C   UNL     1       3.936   3.331  17.429  0.00  0.00    +0.000 C 
ATOM      8  C   UNL     1       4.494   3.390  18.855  0.00  0.00    +0.000 C 
ATOM      9  C   UNL     1       5.432   4.623  18.778  0.00  0.00    +0.000 C 
BRANCH   3  10
ATOM     10  O   UNL     1       6.305   6.958  17.623  0.00  0.00    +0.000 OA
BRANCH  10  12
ATOM     11  C   UNL     1       8.012   8.679  17.696  0.00  0.00    +0.000 C 
ATOM     12  C   UNL     1       7.695   7.207  17.869  0.00  0.00    +0.000 C 
ENDBRANCH  10  12
ENDBRANCH   3  10
ENDBRANCH   1   8
BRANCH   1  13
ATOM     13  C   UNL     1       2.189   4.140  19.430  0.00  0.00    +0.000 C 
ATOM     14  C   UNL     1       1.385   3.428  18.360  0.00  0.00    +0.000 C 
ATOM     15  C   UNL     1       0.871   3.469  19.763  0.00  0.00    +0.000 C 
BRANCH  13  16
ATOM     16  C   UNL     1       2.278   5.663  19.413  0.00  0.00    +0.000 A 
ATOM     17  C   UNL     1       2.490   6.361  18.208  0.00  0.00    +0.000 A 
ATOM     18  C   UNL     1       2.249   7.731  18.101  0.00  0.00    +0.000 A 
ATOM     19  C   UNL     1       1.833   8.444  19.219  0.00  0.00    +0.000 A 
ATOM     20  C   UNL     1       1.724   7.795  20.446  0.00  0.00    +0.000 A 
ATOM     21 CL   UNL     1       1.212   8.678  21.832  0.00  0.00    +0.000 Cl
ATOM     22  C   UNL     1       1.961   6.424  20.551  0.00  0.00    +0.000 A 
ENDBRANCH  13  16
ENDBRANCH   1  13
TORSDOF 5
ENDMDL
MODEL 6
REMARK VINA RESULT:      -6.9      1.754      2.953
REMARK  Name = 
REMARK  6 active torsions:
REMARK  status: ('A' for Active; 'I' for Inactive)
REMARK    1  A    between atoms: C_1  and  C_2
REMARK    2  A    between atoms: C_2  and  O_3
REMARK    3  A    between atoms: O_3  and  C_4
REMARK    4  A    between atoms: C_9  and  N_10
REMARK    5  A    between atoms: N_10  and  C_11
REMARK    6  A    between atoms: C_11  and  C_12
REMARK                            x       y       z     vdW  Elec       q    Type
REMARK                         _______ _______ _______ _____ _____    ______ ____
ROOT
ATOM      1  N   UNL     1       2.538   4.989  18.194  0.00  0.00    +0.000 NA
ATOM      2  H   UNL     1       2.385   5.766  17.550  0.00  0.00    +0.000 HD
ENDROOT
BRANCH   1   8
ATOM      3  C   UNL     1       6.900   6.081  16.546  0.00  0.00    +0.000 C 
ATOM      4  O   UNL     1       7.603   5.741  15.609  0.00  0.00    +0.000 OA
ATOM      5  N   UNL     1       6.037   5.233  17.200  0.00  0.00    +0.000 N 
ATOM      6  C   UNL     1       5.740   3.939  16.638  0.00  0.00    +0.000 C 
ATOM      7  C   UNL     1       4.228   3.911  16.688  0.00  0.00    +0.000 C 
ATOM      8  C   UNL     1       3.928   4.526  18.060  0.00  0.00    +0.000 C 
ATOM      9  C   UNL     1       5.004   5.640  18.150  0.00  0.00    +0.000 C 
BRANCH   3  10
ATOM     10  O   UNL     1       6.847   7.350  17.040  0.00  0.00    +0.000 OA
BRANCH  10  12
ATOM     11  C   UNL     1       8.161   9.192  17.911  0.00  0.00    +0.000 C 
ATOM     12  C   UNL     1       7.915   7.696  17.931  0.00  0.00    +0.000 C 
ENDBRANCH  10  12
ENDBRANCH   3  10
ENDBRANCH   1   8
BRANCH   1  13
ATOM     13  C   UNL     1       2.165   5.423  19.574  0.00  0.00    +0.000 C 
ATOM     14  C   UNL     1       1.273   4.485  20.364  0.00  0.00    +0.000 C 
ATOM     15  C   UNL     1       2.713   4.621  20.738  0.00  0.00    +0.000 C 
BRANCH  13  16
ATOM     16  C   UNL     1       1.981   6.930  19.716  0.00  0.00    +0.000 A 
ATOM     17  C   UNL     1       2.178   7.790  18.617  0.00  0.00    +0.000 A 
ATOM     18  C   UNL     1       1.707   9.103  18.618  0.00  0.00    +0.000 A 
ATOM     19  C   UNL     1       1.064   9.601  19.746  0.00  0.00    +0.000 A 
ATOM     20  C   UNL     1       0.957   8.804  20.883  0.00  0.00    +0.000 A 
ATOM     21 CL   UNL     1       0.165   9.422  22.280  0.00  0.00    +0.000 Cl
ATOM     22  C   UNL     1       1.425   7.489  20.879  0.00  0.00    +0.000 A 
ENDBRANCH  13  16
ENDBRANCH   1  13
TORSDOF 5
ENDMDL
MODEL 7
REMARK VINA RESULT:      -6.9      4.013      7.005
REMARK  Name = 
REMARK  6 active torsions:
REMARK  status: ('A' for Active; 'I' for Inactive)
REMARK    1  A    between atoms: C_1  and  C_2
REMARK    2  A    between atoms: C_2  and  O_3
REMARK    3  A    between atoms: O_3  and  C_4
REMARK    4  A    between atoms: C_9  and  N_10
REMARK    5  A    between atoms: N_10  and  C_11
REMARK    6  A    between atoms: C_11  and  C_12
REMARK                            x       y       z     vdW  Elec       q    Type
REMARK                         _______ _______ _______ _____ _____    ______ ____
ROOT
ATOM      1  N   UNL     1       1.981   4.763  18.906  0.00  0.00    +0.000 NA
ATOM      2  H   UNL     1       1.226   4.644  19.583  0.00  0.00    +0.000 HD
ENDROOT
BRANCH   1   8
ATOM      3  C   UNL     1       0.936   9.337  19.870  0.00  0.00    +0.000 C 
ATOM      4  O   UNL     1       0.817  10.371  19.234  0.00  0.00    +0.000 OA
ATOM      5  N   UNL     1       1.840   8.347  19.558  0.00  0.00    +0.000 N 
ATOM      6  C   UNL     1       2.533   8.383  18.296  0.00  0.00    +0.000 C 
ATOM      7  C   UNL     1       2.322   6.977  17.778  0.00  0.00    +0.000 C 
ATOM      8  C   UNL     1       2.526   6.125  19.036  0.00  0.00    +0.000 C 
ATOM      9  C   UNL     1       1.852   7.001  20.125  0.00  0.00    +0.000 C 
BRANCH   3  10
ATOM     10  O   UNL     1       0.164   9.008  20.944  0.00  0.00    +0.000 OA
BRANCH  10  12
ATOM     11  C   UNL     1      -0.117   9.558  23.289  0.00  0.00    +0.000 C 
ATOM     12  C   UNL     1      -0.074  10.080  21.866  0.00  0.00    +0.000 C 
ENDBRANCH  10  12
ENDBRANCH   3  10
ENDBRANCH   1   8
BRANCH   1  13
ATOM     13  C   UNL     1       2.987   3.678  19.107  0.00  0.00    +0.000 C 
ATOM     14  C   UNL     1       3.058   3.064  20.491  0.00  0.00    +0.000 C 
ATOM     15  C   UNL     1       2.469   2.276  19.367  0.00  0.00    +0.000 C 
BRANCH  13  16
ATOM     16  C   UNL     1       4.270   3.872  18.306  0.00  0.00    +0.000 A 
ATOM     17  C   UNL     1       4.271   3.757  16.902  0.00  0.00    +0.000 A 
ATOM     18  C   UNL     1       5.323   4.244  16.126  0.00  0.00    +0.000 A 
ATOM     19  C   UNL     1       6.426   4.820  16.747  0.00  0.00    +0.000 A 
ATOM     20  C   UNL     1       6.496   4.844  18.138  0.00  0.00    +0.000 A 
ATOM     21 CL   UNL     1       7.862   5.552  18.907  0.00  0.00    +0.000 Cl
ATOM     22  C   UNL     1       5.440   4.359  18.913  0.00  0.00    +0.000 A 
ENDBRANCH  13  16
ENDBRANCH   1  13
TORSDOF 5
ENDMDL
MODEL 8
REMARK VINA RESULT:      -6.8      4.421      7.510
REMARK  Name = 
REMARK  6 active torsions:
REMARK  status: ('A' for Active; 'I' for Inactive)
REMARK    1  A    between atoms: C_1  and  C_2
REMARK    2  A    between atoms: C_2  and  O_3
REMARK    3  A    between atoms: O_3  and  C_4
REMARK    4  A    between atoms: C_9  and  N_10
REMARK    5  A    between atoms: N_10  and  C_11
REMARK    6  A    between atoms: C_11  and  C_12
REMARK                            x       y       z     vdW  Elec       q    Type
REMARK                         _______ _______ _______ _____ _____    ______ ____
ROOT
ATOM      1  N   UNL     1       5.249   3.635  16.913  0.00  0.00    +0.000 NA
ATOM      2  H   UNL     1       5.513   3.194  17.795  0.00  0.00    +0.000 HD
ENDROOT
BRANCH   1   8
ATOM      3  C   UNL     1       1.646   4.522  19.941  0.00  0.00    +0.000 C 
ATOM      4  O   UNL     1       0.474   4.198  20.042  0.00  0.00    +0.000 OA
ATOM      5  N   UNL     1       2.283   4.716  18.737  0.00  0.00    +0.000 N 
ATOM      6  C   UNL     1       1.647   4.299  17.514  0.00  0.00    +0.000 C 
ATOM      7  C   UNL     1       2.746   3.509  16.837  0.00  0.00    +0.000 C 
ATOM      8  C   UNL     1       3.987   4.368  17.106  0.00  0.00    +0.000 C 
ATOM      9  C   UNL     1       3.726   4.857  18.555  0.00  0.00    +0.000 C 
BRANCH   3  10
ATOM     10  O   UNL     1       2.485   4.694  21.001  0.00  0.00    +0.000 OA
BRANCH  10  12
ATOM     11  C   UNL     1       2.818   2.308  21.277  0.00  0.00    +0.000 C 
ATOM     12  C   UNL     1       2.481   3.623  21.953  0.00  0.00    +0.000 C 
ENDBRANCH  10  12
ENDBRANCH   3  10
ENDBRANCH   1   8
BRANCH   1  13
ATOM     13  C   UNL     1       6.383   4.482  16.436  0.00  0.00    +0.000 C 
ATOM     14  C   UNL     1       6.725   5.697  17.276  0.00  0.00    +0.000 C 
ATOM     15  C   UNL     1       7.641   4.516  17.283  0.00  0.00    +0.000 C 
BRANCH  13  16
ATOM     16  C   UNL     1       6.493   4.565  14.917  0.00  0.00    +0.000 A 
ATOM     17  C   UNL     1       7.424   5.428  14.306  0.00  0.00    +0.000 A 
ATOM     18  C   UNL     1       7.779   5.293  12.964  0.00  0.00    +0.000 A 
ATOM     19  C   UNL     1       7.171   4.312  12.188  0.00  0.00    +0.000 A 
ATOM     20  C   UNL     1       6.169   3.520  12.743  0.00  0.00    +0.000 A 
ATOM     21 CL   UNL     1       5.414   2.309  11.783  0.00  0.00    +0.000 Cl
ATOM     22  C   UNL     1       5.817   3.655  14.087  0.00  0.00    +0.000 A 
ENDBRANCH  13  16
ENDBRANCH   1  13
TORSDOF 5
ENDMDL
MODEL 9
REMARK VINA RESULT:      -6.7      1.176      1.411
REMARK  Name = 
REMARK  6 active torsions:
REMARK  status: ('A' for Active; 'I' for Inactive)
REMARK    1  A    between atoms: C_1  and  C_2
REMARK    2  A    between atoms: C_2  and  O_3
REMARK    3  A    between atoms: O_3  and  C_4
REMARK    4  A    between atoms: C_9  and  N_10
REMARK    5  A    between atoms: N_10  and  C_11
REMARK    6  A    between atoms: C_11  and  C_12
REMARK                            x       y       z     vdW  Elec       q    Type
REMARK                         _______ _______ _______ _____ _____    ______ ____
ROOT
ATOM      1  N   UNL     1       2.785   5.163  18.655  0.00  0.00    +0.000 NA
ATOM      2  H   UNL     1       2.268   5.541  17.859  0.00  0.00    +0.000 HD
ENDROOT
BRANCH   1   8
ATOM      3  C   UNL     1       6.855   4.995  16.136  0.00  0.00    +0.000 C 
ATOM      4  O   UNL     1       7.944   4.458  16.249  0.00  0.00    +0.000 OA
ATOM      5  N   UNL     1       6.115   5.454  17.202  0.00  0.00    +0.000 N 
ATOM      6  C   UNL     1       6.494   5.094  18.545  0.00  0.00    +0.000 C 
ATOM      7  C   UNL     1       5.184   4.607  19.124  0.00  0.00    +0.000 C 
ATOM      8  C   UNL     1       4.179   5.629  18.582  0.00  0.00    +0.000 C 
ATOM      9  C   UNL     1       4.716   5.871  17.147  0.00  0.00    +0.000 C 
BRANCH   3  10
ATOM     10  O   UNL     1       6.211   5.173  14.949  0.00  0.00    +0.000 OA
BRANCH  10  12
ATOM     11  C   UNL     1       6.085   3.645  13.071  0.00  0.00    +0.000 C 
ATOM     12  C   UNL     1       6.915   4.682  13.801  0.00  0.00    +0.000 C 
ENDBRANCH  10  12
ENDBRANCH   3  10
ENDBRANCH   1   8
BRANCH   1  13
ATOM     13  C   UNL     1       2.076   5.541  19.915  0.00  0.00    +0.000 C 
ATOM     14  C   UNL     1       1.033   4.567  20.426  0.00  0.00    +0.000 C 
ATOM     15  C   UNL     1       2.334   4.698  21.149  0.00  0.00    +0.000 C 
BRANCH  13  16
ATOM     16  C   UNL     1       1.837   7.040  20.060  0.00  0.00    +0.000 A 
ATOM     17  C   UNL     1       2.025   7.912  18.969  0.00  0.00    +0.000 A 
ATOM     18  C   UNL     1       1.509   9.207  18.968  0.00  0.00    +0.000 A 
ATOM     19  C   UNL     1       0.829   9.677  20.086  0.00  0.00    +0.000 A 
ATOM     20  C   UNL     1       0.728   8.872  21.218  0.00  0.00    +0.000 A 
ATOM     21 CL   UNL     1      -0.109   9.454  22.603  0.00  0.00    +0.000 Cl
ATOM     22  C   UNL     1       1.242   7.574  21.216  0.00  0.00    +0.000 A 
ENDBRANCH  13  16
ENDBRANCH   1  13
TORSDOF 5
ENDMDL
