MODEL 1
REMARK VINA RESULT:      -6.3      0.000      0.000
REMARK  Name = 
REMARK  7 active torsions:
REMARK  status: ('A' for Active; 'I' for Inactive)
REMARK    1  A    between atoms: C_1  and  C_2
REMARK    2  A    between atoms: C_2  and  C_4
REMARK    3  A    between atoms: C_4  and  C_5
REMARK    4  A    between atoms: C_7  and  O_8
REMARK    5  A    between atoms: C_9  and  C_10
REMARK    6  A    between atoms: C_11  and  O_12
REMARK    7  A    between atoms: C_13  and  C_14
REMARK                            x       y       z     vdW  Elec       q    Type
REMARK                         _______ _______ _______ _____ _____    ______ ____
ROOT
ATOM      1  C   UNL     1       4.116   3.649  17.451  0.00  0.00    +0.000 A 
ATOM      2  C   UNL     1       4.476   4.368  16.301  0.00  0.00    +0.000 A 
ATOM      3  C   UNL     1       5.510   5.307  16.339  0.00  0.00    +0.000 A 
ATOM      4  C   UNL     1       6.224   5.562  17.515  0.00  0.00    +0.000 A 
ATOM      5  C   UNL     1       7.302   6.610  17.540  0.00  0.00    +0.000 C 
ATOM      6  C   UNL     1       5.880   4.827  18.664  0.00  0.00    +0.000 A 
ATOM      7  C   UNL     1       4.832   3.884  18.641  0.00  0.00    +0.000 A 
ENDROOT
BRANCH   3   8
ATOM      8  O   UNL     1       5.826   6.001  15.205  0.00  0.00    +0.000 OA
ATOM      9  H   UNL     1       6.771   6.224  15.221  0.00  0.00    +0.000 HD
ENDBRANCH   3   8
BRANCH   6  10
ATOM     10  O   UNL     1       6.537   5.025  19.852  0.00  0.00    +0.000 OA
ATOM     11  H   UNL     1       6.463   4.234  20.410  0.00  0.00    +0.000 HD
ENDBRANCH   6  10
BRANCH   7  12
ATOM     12  C   UNL     1       4.515   3.172  19.905  0.00  0.00    +0.000 C 
ATOM     13  O   UNL     1       5.117   2.171  20.278  0.00  0.00    +0.000 OA
ENDBRANCH   7  12
BRANCH   1  14
ATOM     14  C   UNL     1       2.934   2.710  17.362  0.00  0.00    +0.000 C 
BRANCH  14  16
ATOM     15  C   UNL     1       0.915   2.617  18.957  0.00  0.00    +0.000 C 
ATOM     16  C   UNL     1       1.648   3.344  17.863  0.00  0.00    +0.000 C 
ATOM     17  O   UNL     1       1.163   4.354  17.342  0.00  0.00    +0.000 OA
ENDBRANCH  14  16
ENDBRANCH   1  14
TORSDOF 5
ENDMDL
MODEL 2
REMARK VINA RESULT:      -6.0      1.915      2.050
REMARK  Name = 
REMARK  7 active torsions:
REMARK  status: ('A' for Active; 'I' for Inactive)
REMARK    1  A    between atoms: C_1  and  C_2
REMARK    2  A    between atoms: C_2  and  C_4
REMARK    3  A    between atoms: C_4  and  C_5
REMARK    4  A    between atoms: C_7  and  O_8
REMARK    5  A    between atoms: C_9  and  C_10
REMARK    6  A    between atoms: C_11  and  O_12
REMARK    7  A    between atoms: C_13  and  C_14
REMARK                            x       y       z     vdW  Elec       q    Type
REMARK                         _______ _______ _______ _____ _____    ______ ____
ROOT
ATOM      1  C   UNL     1       2.909   4.333  18.499  0.00  0.00    +0.000 A 
ATOM      2  C   UNL     1       2.798   5.632  17.978  0.00  0.00    +0.000 A 
ATOM      3  C   UNL     1       3.935   6.363  17.629  0.00  0.00    +0.000 A 
ATOM      4  C   UNL     1       5.221   5.831  17.779  0.00  0.00    +0.000 A 
ATOM      5  C   UNL     1       6.432   6.655  17.437  0.00  0.00    +0.000 C 
ATOM      6  C   UNL     1       5.335   4.521  18.280  0.00  0.00    +0.000 A 
ATOM      7  C   UNL     1       4.195   3.778  18.646  0.00  0.00    +0.000 A 
ENDROOT
BRANCH   3   8
ATOM      8  O   UNL     1       3.792   7.630  17.139  0.00  0.00    +0.000 OA
ATOM      9  H   UNL     1       4.331   8.240  17.670  0.00  0.00    +0.000 HD
ENDBRANCH   3   8
BRANCH   6  10
ATOM     10  O   UNL     1       6.565   3.937  18.454  0.00  0.00    +0.000 OA
ATOM     11  H   UNL     1       7.232   4.400  17.922  0.00  0.00    +0.000 HD
ENDBRANCH   6  10
BRANCH   7  12
ATOM     12  C   UNL     1       4.405   2.413  19.193  0.00  0.00    +0.000 C 
ATOM     13  O   UNL     1       4.945   2.201  20.273  0.00  0.00    +0.000 OA
ENDBRANCH   7  12
BRANCH   1  14
ATOM     14  C   UNL     1       1.643   3.631  18.936  0.00  0.00    +0.000 C 
BRANCH  14  16
ATOM     15  C   UNL     1       1.326   2.747  21.333  0.00  0.00    +0.000 C 
ATOM     16  C   UNL     1       1.291   3.915  20.385  0.00  0.00    +0.000 C 
ATOM     17  O   UNL     1       0.896   5.022  20.764  0.00  0.00    +0.000 OA
ENDBRANCH  14  16
ENDBRANCH   1  14
TORSDOF 5
ENDMDL
MODEL 3
REMARK VINA RESULT:      -6.0      2.031      4.941
REMARK  Name = 
REMARK  7 active torsions:
REMARK  status: ('A' for Active; 'I' for Inactive)
REMARK    1  A    between atoms: C_1  and  C_2
REMARK    2  A    between atoms: C_2  and  C_4
REMARK    3  A    between atoms: C_4  and  C_5
REMARK    4  A    between atoms: C_7  and  O_8
REMARK    5  A    between atoms: C_9  and  C_10
REMARK    6  A    between atoms: C_11  and  O_12
REMARK    7  A    between atoms: C_13  and  C_14
REMARK                            x       y       z     vdW  Elec       q    Type
REMARK                         _______ _______ _______ _____ _____    ______ ____
ROOT
ATOM      1  C   UNL     1       4.447   5.054  16.956  0.00  0.00    +0.000 A 
ATOM      2  C   UNL     1       4.525   3.653  16.990  0.00  0.00    +0.000 A 
ATOM      3  C   UNL     1       3.781   2.917  17.915  0.00  0.00    +0.000 A 
ATOM      4  C   UNL     1       2.931   3.543  18.834  0.00  0.00    +0.000 A 
ATOM      5  C   UNL     1       2.174   2.730  19.847  0.00  0.00    +0.000 C 
ATOM      6  C   UNL     1       2.833   4.945  18.787  0.00  0.00    +0.000 A 
ATOM      7  C   UNL     1       3.587   5.700  17.866  0.00  0.00    +0.000 A 
ENDROOT
BRANCH   3   8
ATOM      8  O   UNL     1       3.892   1.555  17.931  0.00  0.00    +0.000 OA
ATOM      9  H   UNL     1       4.562   1.282  17.282  0.00  0.00    +0.000 HD
ENDBRANCH   3   8
BRANCH   6  10
ATOM     10  O   UNL     1       2.019   5.626  19.658  0.00  0.00    +0.000 OA
ATOM     11  H   UNL     1       1.314   6.080  19.169  0.00  0.00    +0.000 HD
ENDBRANCH   6  10
BRANCH   7  12
ATOM     12  C   UNL     1       3.446   7.178  17.902  0.00  0.00    +0.000 C 
ATOM     13  O   UNL     1       2.370   7.751  17.773  0.00  0.00    +0.000 OA
ENDBRANCH   7  12
BRANCH   1  14
ATOM     14  C   UNL     1       5.343   5.793  15.988  0.00  0.00    +0.000 C 
BRANCH  14  16
ATOM     15  C   UNL     1       7.315   6.705  17.368  0.00  0.00    +0.000 C 
ATOM     16  C   UNL     1       6.810   5.702  16.367  0.00  0.00    +0.000 C 
ATOM     17  O   UNL     1       7.587   4.914  15.817  0.00  0.00    +0.000 OA
ENDBRANCH  14  16
ENDBRANCH   1  14
TORSDOF 5
ENDMDL
MODEL 4
REMARK VINA RESULT:      -6.0      1.473      4.441
REMARK  Name = 
REMARK  7 active torsions:
REMARK  status: ('A' for Active; 'I' for Inactive)
REMARK    1  A    between atoms: C_1  and  C_2
REMARK    2  A    between atoms: C_2  and  C_4
REMARK    3  A    between atoms: C_4  and  C_5
REMARK    4  A    between atoms: C_7  and  O_8
REMARK    5  A    between atoms: C_9  and  C_10
REMARK    6  A    between atoms: C_11  and  O_12
REMARK    7  A    between atoms: C_13  and  C_14
REMARK                            x       y       z     vdW  Elec       q    Type
REMARK                         _______ _______ _______ _____ _____    ______ ____
ROOT
ATOM      1  C   UNL     1       4.052   5.614  18.056  0.00  0.00    +0.000 A 
ATOM      2  C   UNL     1       2.743   5.241  17.711  0.00  0.00    +0.000 A 
ATOM      3  C   UNL     1       2.238   3.990  18.070  0.00  0.00    +0.000 A 
ATOM      4  C   UNL     1       3.009   3.067  18.786  0.00  0.00    +0.000 A 
ATOM      5  C   UNL     1       2.456   1.710  19.122  0.00  0.00    +0.000 C 
ATOM      6  C   UNL     1       4.313   3.447  19.152  0.00  0.00    +0.000 A 
ATOM      7  C   UNL     1       4.838   4.703  18.787  0.00  0.00    +0.000 A 
ENDROOT
BRANCH   3   8
ATOM      8  O   UNL     1       0.965   3.653  17.706  0.00  0.00    +0.000 OA
ATOM      9  H   UNL     1       0.355   3.889  18.425  0.00  0.00    +0.000 HD
ENDBRANCH   3   8
BRANCH   6  10
ATOM     10  O   UNL     1       5.126   2.592  19.855  0.00  0.00    +0.000 OA
ATOM     11  H   UNL     1       6.023   2.604  19.482  0.00  0.00    +0.000 HD
ENDBRANCH   6  10
BRANCH   7  12
ATOM     12  C   UNL     1       6.234   5.012  19.189  0.00  0.00    +0.000 C 
ATOM     13  O   UNL     1       7.212   4.475  18.681  0.00  0.00    +0.000 OA
ENDBRANCH   7  12
BRANCH   1  14
ATOM     14  C   UNL     1       4.565   6.949  17.563  0.00  0.00    +0.000 C 
BRANCH  14  16
ATOM     15  C   UNL     1       5.367   5.877  15.364  0.00  0.00    +0.000 C 
ATOM     16  C   UNL     1       5.653   6.802  16.514  0.00  0.00    +0.000 C 
ATOM     17  O   UNL     1       6.763   7.332  16.636  0.00  0.00    +0.000 OA
ENDBRANCH  14  16
ENDBRANCH   1  14
TORSDOF 5
ENDMDL
MODEL 5
REMARK VINA RESULT:      -6.0      2.277      2.836
REMARK  Name = 
REMARK  7 active torsions:
REMARK  status: ('A' for Active; 'I' for Inactive)
REMARK    1  A    between atoms: C_1  and  C_2
REMARK    2  A    between atoms: C_2  and  C_4
REMARK    3  A    between atoms: C_4  and  C_5
REMARK    4  A    between atoms: C_7  and  O_8
REMARK    5  A    between atoms: C_9  and  C_10
REMARK    6  A    between atoms: C_11  and  O_12
REMARK    7  A    between atoms: C_13  and  C_14
REMARK                            x       y       z     vdW  Elec       q    Type
REMARK                         _______ _______ _______ _____ _____    ______ ____
ROOT
ATOM      1  C   UNL     1       2.384   4.394  18.523  0.00  0.00    +0.000 A 
ATOM      2  C   UNL     1       2.550   5.779  18.364  0.00  0.00    +0.000 A 
ATOM      3  C   UNL     1       3.599   6.291  17.598  0.00  0.00    +0.000 A 
ATOM      4  C   UNL     1       4.518   5.449  16.960  0.00  0.00    +0.000 A 
ATOM      5  C   UNL     1       5.665   6.026  16.177  0.00  0.00    +0.000 C 
ATOM      6  C   UNL     1       4.341   4.061  17.099  0.00  0.00    +0.000 A 
ATOM      7  C   UNL     1       3.292   3.532  17.878  0.00  0.00    +0.000 A 
ENDROOT
BRANCH   3   8
ATOM      8  O   UNL     1       3.741   7.644  17.475  0.00  0.00    +0.000 OA
ATOM      9  H   UNL     1       4.533   7.928  17.961  0.00  0.00    +0.000 HD
ENDBRANCH   3   8
BRANCH   6  10
ATOM     10  O   UNL     1       5.204   3.176  16.502  0.00  0.00    +0.000 OA
ATOM     11  H   UNL     1       5.982   3.036  17.068  0.00  0.00    +0.000 HD
ENDBRANCH   6  10
BRANCH   7  12
ATOM     12  C   UNL     1       3.194   2.055  17.996  0.00  0.00    +0.000 C 
ATOM     13  O   UNL     1       3.907   1.395  18.744  0.00  0.00    +0.000 OA
ENDBRANCH   7  12
BRANCH   1  14
ATOM     14  C   UNL     1       1.278   3.910  19.434  0.00  0.00    +0.000 C 
BRANCH  14  16
ATOM     15  C   UNL     1       1.424   2.527  21.600  0.00  0.00    +0.000 C 
ATOM     16  C   UNL     1       1.719   3.816  20.884  0.00  0.00    +0.000 C 
ATOM     17  O   UNL     1       2.206   4.776  21.489  0.00  0.00    +0.000 OA
ENDBRANCH  14  16
ENDBRANCH   1  14
TORSDOF 5
ENDMDL
MODEL 6
REMARK VINA RESULT:      -6.0      1.692      4.492
REMARK  Name = 
REMARK  7 active torsions:
REMARK  status: ('A' for Active; 'I' for Inactive)
REMARK    1  A    between atoms: C_1  and  C_2
REMARK    2  A    between atoms: C_2  and  C_4
REMARK    3  A    between atoms: C_4  and  C_5
REMARK    4  A    between atoms: C_7  and  O_8
REMARK    5  A    between atoms: C_9  and  C_10
REMARK    6  A    between atoms: C_11  and  O_12
REMARK    7  A    between atoms: C_13  and  C_14
REMARK                            x       y       z     vdW  Elec       q    Type
REMARK                         _______ _______ _______ _____ _____    ______ ____
ROOT
ATOM      1  C   UNL     1       5.087   4.916  16.487  0.00  0.00    +0.000 A 
ATOM      2  C   UNL     1       4.189   3.836  16.501  0.00  0.00    +0.000 A 
ATOM      3  C   UNL     1       3.945   3.125  17.677  0.00  0.00    +0.000 A 
ATOM      4  C   UNL     1       4.578   3.459  18.880  0.00  0.00    +0.000 A 
ATOM      5  C   UNL     1       4.331   2.649  20.123  0.00  0.00    +0.000 C 
ATOM      6  C   UNL     1       5.461   4.554  18.874  0.00  0.00    +0.000 A 
ATOM      7  C   UNL     1       5.723   5.274  17.691  0.00  0.00    +0.000 A 
ENDROOT
BRANCH   3   8
ATOM      8  O   UNL     1       3.076   2.070  17.653  0.00  0.00    +0.000 OA
ATOM      9  H   UNL     1       3.440   1.345  18.188  0.00  0.00    +0.000 HD
ENDBRANCH   3   8
BRANCH   6  10
ATOM     10  O   UNL     1       6.117   4.939  20.017  0.00  0.00    +0.000 OA
ATOM     11  H   UNL     1       6.915   5.444  19.789  0.00  0.00    +0.000 HD
ENDBRANCH   6  10
BRANCH   7  12
ATOM     12  C   UNL     1       6.690   6.399  17.765  0.00  0.00    +0.000 C 
ATOM     13  O   UNL     1       7.868   6.250  18.072  0.00  0.00    +0.000 OA
ENDBRANCH   7  12
BRANCH   1  14
ATOM     14  C   UNL     1       5.369   5.589  15.162  0.00  0.00    +0.000 C 
BRANCH  14  16
ATOM     15  C   UNL     1       6.211   3.827  13.485  0.00  0.00    +0.000 C 
ATOM     16  C   UNL     1       6.535   4.955  14.425  0.00  0.00    +0.000 C 
ATOM     17  O   UNL     1       7.708   5.272  14.648  0.00  0.00    +0.000 OA
ENDBRANCH  14  16
ENDBRANCH   1  14
TORSDOF 5
ENDMDL
MODEL 7
REMARK VINA RESULT:      -5.9      2.225      4.732
REMARK  Name = 
REMARK  7 active torsions:
REMARK  status: ('A' for Active; 'I' for Inactive)
REMARK    1  A    between atoms: C_1  and  C_2
REMARK    2  A    between atoms: C_2  and  C_4
REMARK    3  A    between atoms: C_4  and  C_5
REMARK    4  A    between atoms: C_7  and  O_8
REMARK    5  A    between atoms: C_9  and  C_10
REMARK    6  A    between atoms: C_11  and  O_12
REMARK    7  A    between atoms: C_13  and  C_14
REMARK                            x       y       z     vdW  Elec       q    Type
REMARK                         _______ _______ _______ _____ _____    ______ ____
ROOT
ATOM      1  C   UNL     1       4.545   5.015  16.838  0.00  0.00    +0.000 A 
ATOM      2  C   UNL     1       4.535   3.621  17.007  0.00  0.00    +0.000 A 
ATOM      3  C   UNL     1       4.006   3.045  18.164  0.00  0.00    +0.000 A 
ATOM      4  C   UNL     1       3.465   3.828  19.190  0.00  0.00    +0.000 A 
ATOM      5  C   UNL     1       2.941   3.186  20.444  0.00  0.00    +0.000 C 
ATOM      6  C   UNL     1       3.453   5.224  19.013  0.00  0.00    +0.000 A 
ATOM      7  C   UNL     1       3.993   5.818  17.854  0.00  0.00    +0.000 A 
ENDROOT
BRANCH   3   8
ATOM      8  O   UNL     1       4.026   1.686  18.304  0.00  0.00    +0.000 OA
ATOM      9  H   UNL     1       4.392   1.288  17.497  0.00  0.00    +0.000 HD
ENDBRANCH   3   8
BRANCH   6  10
ATOM     10  O   UNL     1       2.938   6.053  19.978  0.00  0.00    +0.000 OA
ATOM     11  H   UNL     1       2.340   6.704  19.573  0.00  0.00    +0.000 HD
ENDBRANCH   6  10
BRANCH   7  12
ATOM     12  C   UNL     1       3.966   7.300  17.760  0.00  0.00    +0.000 C 
ATOM     13  O   UNL     1       2.927   7.951  17.755  0.00  0.00    +0.000 OA
ENDBRANCH   7  12
BRANCH   1  14
ATOM     14  C   UNL     1       5.209   5.576  15.600  0.00  0.00    +0.000 C 
BRANCH  14  16
ATOM     15  C   UNL     1       6.268   3.901  13.958  0.00  0.00    +0.000 C 
ATOM     16  C   UNL     1       6.423   4.770  15.176  0.00  0.00    +0.000 C 
ATOM     17  O   UNL     1       7.463   4.740  15.843  0.00  0.00    +0.000 OA
ENDBRANCH  14  16
ENDBRANCH   1  14
TORSDOF 5
ENDMDL
MODEL 8
REMARK VINA RESULT:      -5.9      2.553      4.110
REMARK  Name = 
REMARK  7 active torsions:
REMARK  status: ('A' for Active; 'I' for Inactive)
REMARK    1  A    between atoms: C_1  and  C_2
REMARK    2  A    between atoms: C_2  and  C_4
REMARK    3  A    between atoms: C_4  and  C_5
REMARK    4  A    between atoms: C_7  and  O_8
REMARK    5  A    between atoms: C_9  and  C_10
REMARK    6  A    between atoms: C_11  and  O_12
REMARK    7  A    between atoms: C_13  and  C_14
REMARK                            x       y       z     vdW  Elec       q    Type
REMARK                         _______ _______ _______ _____ _____    ______ ____
ROOT
ATOM      1  C   UNL     1       4.493   5.179  17.433  0.00  0.00    +0.000 A 
ATOM      2  C   UNL     1       4.125   6.514  17.200  0.00  0.00    +0.000 A 
ATOM      3  C   UNL     1       3.285   7.189  18.088  0.00  0.00    +0.000 A 
ATOM      4  C   UNL     1       2.784   6.568  19.238  0.00  0.00    +0.000 A 
ATOM      5  C   UNL     1       1.846   7.303  20.155  0.00  0.00    +0.000 C 
ATOM      6  C   UNL     1       3.170   5.238  19.485  0.00  0.00    +0.000 A 
ATOM      7  C   UNL     1       4.009   4.542  18.591  0.00  0.00    +0.000 A 
ENDROOT
BRANCH   3   8
ATOM      8  O   UNL     1       2.934   8.483  17.824  0.00  0.00    +0.000 OA
ATOM      9  H   UNL     1       3.704   8.956  17.467  0.00  0.00    +0.000 HD
ENDBRANCH   3   8
BRANCH   6  10
ATOM     10  O   UNL     1       2.717   4.566  20.593  0.00  0.00    +0.000 OA
ATOM     11  H   UNL     1       1.824   4.870  20.825  0.00  0.00    +0.000 HD
ENDBRANCH   6  10
BRANCH   7  12
ATOM     12  C   UNL     1       4.344   3.131  18.913  0.00  0.00    +0.000 C 
ATOM     13  O   UNL     1       5.061   2.812  19.854  0.00  0.00    +0.000 OA
ENDBRANCH   7  12
BRANCH   1  14
ATOM     14  C   UNL     1       5.336   4.482  16.388  0.00  0.00    +0.000 C 
BRANCH  14  16
ATOM     15  C   UNL     1       7.573   4.618  17.655  0.00  0.00    +0.000 C 
ATOM     16  C   UNL     1       6.785   4.934  16.413  0.00  0.00    +0.000 C 
ATOM     17  O   UNL     1       7.279   5.616  15.510  0.00  0.00    +0.000 OA
ENDBRANCH  14  16
ENDBRANCH   1  14
TORSDOF 5
ENDMDL
MODEL 9
REMARK VINA RESULT:      -5.9      2.439      2.964
REMARK  Name = 
REMARK  7 active torsions:
REMARK  status: ('A' for Active; 'I' for Inactive)
REMARK    1  A    between atoms: C_1  and  C_2
REMARK    2  A    between atoms: C_2  and  C_4
REMARK    3  A    between atoms: C_4  and  C_5
REMARK    4  A    between atoms: C_7  and  O_8
REMARK    5  A    between atoms: C_9  and  C_10
REMARK    6  A    between atoms: C_11  and  O_12
REMARK    7  A    between atoms: C_13  and  C_14
REMARK                            x       y       z     vdW  Elec       q    Type
REMARK                         _______ _______ _______ _____ _____    ______ ____
ROOT
ATOM      1  C   UNL     1       3.039   4.923  19.908  0.00  0.00    +0.000 A 
ATOM      2  C   UNL     1       2.713   6.167  19.345  0.00  0.00    +0.000 A 
ATOM      3  C   UNL     1       3.338   6.608  18.177  0.00  0.00    +0.000 A 
ATOM      4  C   UNL     1       4.302   5.833  17.524  0.00  0.00    +0.000 A 
ATOM      5  C   UNL     1       4.991   6.350  16.292  0.00  0.00    +0.000 C 
ATOM      6  C   UNL     1       4.614   4.576  18.074  0.00  0.00    +0.000 A 
ATOM      7  C   UNL     1       3.998   4.123  19.258  0.00  0.00    +0.000 A 
ENDROOT
BRANCH   3   8
ATOM      8  O   UNL     1       3.008   7.831  17.663  0.00  0.00    +0.000 OA
ATOM      9  H   UNL     1       3.635   8.496  17.994  0.00  0.00    +0.000 HD
ENDBRANCH   3   8
BRANCH   6  10
ATOM     10  O   UNL     1       5.551   3.762  17.487  0.00  0.00    +0.000 OA
ATOM     11  H   UNL     1       5.163   3.304  16.723  0.00  0.00    +0.000 HD
ENDBRANCH   6  10
BRANCH   7  12
ATOM     12  C   UNL     1       4.406   2.797  19.787  0.00  0.00    +0.000 C 
ATOM     13  O   UNL     1       4.095   1.739  19.251  0.00  0.00    +0.000 OA
ENDBRANCH   7  12
BRANCH   1  14
ATOM     14  C   UNL     1       2.387   4.544  21.219  0.00  0.00    +0.000 C 
BRANCH  14  16
ATOM     15  C   UNL     1       0.678   3.169  19.871  0.00  0.00    +0.000 C 
ATOM     16  C   UNL     1       1.531   3.295  21.103  0.00  0.00    +0.000 C 
ATOM     17  O   UNL     1       1.452   2.462  22.012  0.00  0.00    +0.000 OA
ENDBRANCH  14  16
ENDBRANCH   1  14
TORSDOF 5
ENDMDL
