MODEL 1
REMARK VINA RESULT:      -7.0      0.000      0.000
REMARK  Name = 
REMARK  11 active torsions:
REMARK  status: ('A' for Active; 'I' for Inactive)
REMARK    1  A    between atoms: C_1  and  O_2
REMARK    2  A    between atoms: O_2  and  C_3
REMARK    3  A    between atoms: C_3  and  O_4
REMARK    4  A    between atoms: O_4  and  C_5
REMARK    5  A    between atoms: N_14  and  C_15
REMARK    6  A    between atoms: C_15  and  C_16
REMARK    7  A    between atoms: C_16  and  C_17
REMARK    8  A    between atoms: C_17  and  C_18
REMARK    9  A    between atoms: C_18  and  C_19
REMARK   10  A    between atoms: C_19  and  C_20
REMARK   11  A    between atoms: N_22  and  O_23
REMARK                            x       y       z     vdW  Elec       q    Type
REMARK                         _______ _______ _______ _____ _____    ______ ____
ROOT
ATOM      1  C   UNL     1       6.028   6.640  17.353  0.00  0.00    +0.000 C 
ATOM      2  C   UNL     1       4.611   6.964  17.826  0.00  0.00    +0.000 A 
ATOM      3  C   UNL     1       3.919   8.140  17.474  0.00  0.00    +0.000 A 
ATOM      4  C   UNL     1       2.681   8.456  18.037  0.00  0.00    +0.000 A 
ATOM      5  C   UNL     1       2.071   7.573  18.921  0.00  0.00    +0.000 A 
ATOM      6  C   UNL     1       2.690   6.359  19.204  0.00  0.00    +0.000 A 
ATOM      7  C   UNL     1       3.936   6.060  18.640  0.00  0.00    +0.000 A 
ATOM      8  C   UNL     1       4.426   4.678  18.781  0.00  0.00    +0.000 C 
ATOM      9  O   UNL     1       4.509   4.194  19.903  0.00  0.00    +0.000 OA
ATOM     10  N   UNL     1       4.400   3.949  17.585  0.00  0.00    +0.000 N 
ATOM     11  C   UNL     1       5.248   4.288  16.447  0.00  0.00    +0.000 A 
ATOM     12  C   UNL     1       5.406   3.325  15.417  0.00  0.00    +0.000 A 
ATOM     13  C   UNL     1       6.228   3.519  14.304  0.00  0.00    +0.000 A 
ATOM     14  C   UNL     1       6.939   4.694  14.175  0.00  0.00    +0.000 A 
ATOM     15  C   UNL     1       6.817   5.669  15.158  0.00  0.00    +0.000 A 
ATOM     16  C   UNL     1       5.984   5.503  16.305  0.00  0.00    +0.000 A 
ENDROOT
BRANCH   1  18
ATOM     17  C   UNL     1       7.602   8.493  17.561  0.00  0.00    +0.000 C 
ATOM     18  O   UNL     1       6.590   7.852  16.777  0.00  0.00    +0.000 OA
ENDBRANCH   1  18
BRANCH   1  19
ATOM     19  O   UNL     1       6.845   6.228  18.467  0.00  0.00    +0.000 OA
ATOM     20  C   UNL     1       7.798   5.206  18.167  0.00  0.00    +0.000 C 
ENDBRANCH   1  19
BRANCH  10  21
ATOM     21  C   UNL     1       3.753   2.625  17.661  0.00  0.00    +0.000 C 
BRANCH  21  22
ATOM     22  C   UNL     1       2.336   2.533  17.049  0.00  0.00    +0.000 C 
BRANCH  22  23
ATOM     23  C   UNL     1       1.297   3.395  17.783  0.00  0.00    +0.000 C 
BRANCH  23  24
ATOM     24  C   UNL     1       0.721   2.682  19.007  0.00  0.00    +0.000 C 
BRANCH  24  25
ATOM     25  C   UNL     1       0.800   3.527  20.276  0.00  0.00    +0.000 C 
BRANCH  25  26
ATOM     26  C   UNL     1       1.558   2.795  21.365  0.00  0.00    +0.000 C 
ATOM     27  O   UNL     1       1.107   2.535  22.477  0.00  0.00    +0.000 OA
ATOM     28  N   UNL     1       2.831   2.425  21.000  0.00  0.00    +0.000 N 
ATOM     29  H   UNL     1       3.349   2.902  20.269  0.00  0.00    +0.000 HD
BRANCH  28  30
ATOM     30  O   UNL     1       3.602   1.843  22.036  0.00  0.00    +0.000 OA
ATOM     31  H   UNL     1       2.912   1.417  22.595  0.00  0.00    +0.000 HD
ENDBRANCH  28  30
ENDBRANCH  25  26
ENDBRANCH  24  25
ENDBRANCH  23  24
ENDBRANCH  22  23
ENDBRANCH  21  22
ENDBRANCH  10  21
TORSDOF 9
ENDMDL
MODEL 2
REMARK VINA RESULT:      -6.2      0.910      1.016
REMARK  Name = 
REMARK  11 active torsions:
REMARK  status: ('A' for Active; 'I' for Inactive)
REMARK    1  A    between atoms: C_1  and  O_2
REMARK    2  A    between atoms: O_2  and  C_3
REMARK    3  A    between atoms: C_3  and  O_4
REMARK    4  A    between atoms: O_4  and  C_5
REMARK    5  A    between atoms: N_14  and  C_15
REMARK    6  A    between atoms: C_15  and  C_16
REMARK    7  A    between atoms: C_16  and  C_17
REMARK    8  A    between atoms: C_17  and  C_18
REMARK    9  A    between atoms: C_18  and  C_19
REMARK   10  A    between atoms: C_19  and  C_20
REMARK   11  A    between atoms: N_22  and  O_23
REMARK                            x       y       z     vdW  Elec       q    Type
REMARK                         _______ _______ _______ _____ _____    ______ ____
ROOT
ATOM      1  C   UNL     1       6.076   6.522  17.129  0.00  0.00    +0.000 C 
ATOM      2  C   UNL     1       4.657   6.930  17.523  0.00  0.00    +0.000 A 
ATOM      3  C   UNL     1       4.098   8.191  17.236  0.00  0.00    +0.000 A 
ATOM      4  C   UNL     1       2.848   8.567  17.733  0.00  0.00    +0.000 A 
ATOM      5  C   UNL     1       2.095   7.668  18.479  0.00  0.00    +0.000 A 
ATOM      6  C   UNL     1       2.585   6.382  18.690  0.00  0.00    +0.000 A 
ATOM      7  C   UNL     1       3.844   6.023  18.194  0.00  0.00    +0.000 A 
ATOM      8  C   UNL     1       4.203   4.595  18.238  0.00  0.00    +0.000 C 
ATOM      9  O   UNL     1       4.152   4.006  19.312  0.00  0.00    +0.000 OA
ATOM     10  N   UNL     1       4.216   3.981  16.979  0.00  0.00    +0.000 N 
ATOM     11  C   UNL     1       5.181   4.341  15.945  0.00  0.00    +0.000 A 
ATOM     12  C   UNL     1       5.342   3.464  14.842  0.00  0.00    +0.000 A 
ATOM     13  C   UNL     1       6.267   3.680  13.818  0.00  0.00    +0.000 A 
ATOM     14  C   UNL     1       7.082   4.792  13.856  0.00  0.00    +0.000 A 
ATOM     15  C   UNL     1       6.961   5.683  14.916  0.00  0.00    +0.000 A 
ATOM     16  C   UNL     1       6.025   5.492  15.976  0.00  0.00    +0.000 A 
ENDROOT
BRANCH   1  18
ATOM     17  C   UNL     1       7.725   8.240  17.664  0.00  0.00    +0.000 C 
ATOM     18  O   UNL     1       6.784   7.724  16.716  0.00  0.00    +0.000 OA
ENDBRANCH   1  18
BRANCH   1  19
ATOM     19  O   UNL     1       6.761   5.940  18.256  0.00  0.00    +0.000 OA
ATOM     20  C   UNL     1       7.649   4.868  17.931  0.00  0.00    +0.000 C 
ENDBRANCH   1  19
BRANCH  10  21
ATOM     21  C   UNL     1       3.456   2.719  16.879  0.00  0.00    +0.000 C 
BRANCH  21  22
ATOM     22  C   UNL     1       3.452   1.834  18.148  0.00  0.00    +0.000 C 
BRANCH  22  23
ATOM     23  C   UNL     1       2.041   1.430  18.604  0.00  0.00    +0.000 C 
BRANCH  23  24
ATOM     24  C   UNL     1       1.093   2.628  18.667  0.00  0.00    +0.000 C 
BRANCH  24  25
ATOM     25  C   UNL     1       0.351   2.727  19.997  0.00  0.00    +0.000 C 
BRANCH  25  26
ATOM     26  C   UNL     1       1.282   3.190  21.100  0.00  0.00    +0.000 C 
ATOM     27  O   UNL     1       1.530   2.551  22.119  0.00  0.00    +0.000 OA
ATOM     28  N   UNL     1       1.853   4.418  20.863  0.00  0.00    +0.000 N 
ATOM     29  H   UNL     1       1.431   5.106  20.249  0.00  0.00    +0.000 HD
BRANCH  28  30
ATOM     30  O   UNL     1       2.635   4.926  21.929  0.00  0.00    +0.000 OA
ATOM     31  H   UNL     1       2.837   5.839  21.623  0.00  0.00    +0.000 HD
ENDBRANCH  28  30
ENDBRANCH  25  26
ENDBRANCH  24  25
ENDBRANCH  23  24
ENDBRANCH  22  23
ENDBRANCH  21  22
ENDBRANCH  10  21
TORSDOF 9
ENDMDL
MODEL 3
REMARK VINA RESULT:      -6.0      5.305      8.639
REMARK  Name = 
REMARK  11 active torsions:
REMARK  status: ('A' for Active; 'I' for Inactive)
REMARK    1  A    between atoms: C_1  and  O_2
REMARK    2  A    between atoms: O_2  and  C_3
REMARK    3  A    between atoms: C_3  and  O_4
REMARK    4  A    between atoms: O_4  and  C_5
REMARK    5  A    between atoms: N_14  and  C_15
REMARK    6  A    between atoms: C_15  and  C_16
REMARK    7  A    between atoms: C_16  and  C_17
REMARK    8  A    between atoms: C_17  and  C_18
REMARK    9  A    between atoms: C_18  and  C_19
REMARK   10  A    between atoms: C_19  and  C_20
REMARK   11  A    between atoms: N_22  and  O_23
REMARK                            x       y       z     vdW  Elec       q    Type
REMARK                         _______ _______ _______ _____ _____    ______ ____
ROOT
ATOM      1  C   UNL     1      -1.403  12.050  20.203  0.00  0.00    +0.000 C 
ATOM      2  C   UNL     1      -0.683  11.069  21.127  0.00  0.00    +0.000 A 
ATOM      3  C   UNL     1      -1.210  10.621  22.356  0.00  0.00    +0.000 A 
ATOM      4  C   UNL     1      -0.459   9.831  23.229  0.00  0.00    +0.000 A 
ATOM      5  C   UNL     1       0.817   9.415  22.869  0.00  0.00    +0.000 A 
ATOM      6  C   UNL     1       1.319   9.762  21.618  0.00  0.00    +0.000 A 
ATOM      7  C   UNL     1       0.558  10.563  20.757  0.00  0.00    +0.000 A 
ATOM      8  C   UNL     1       1.031  10.697  19.368  0.00  0.00    +0.000 C 
ATOM      9  O   UNL     1       2.175  11.088  19.170  0.00  0.00    +0.000 OA
ATOM     10  N   UNL     1       0.236  10.016  18.438  0.00  0.00    +0.000 N 
ATOM     11  C   UNL     1      -1.144  10.402  18.159  0.00  0.00    +0.000 A 
ATOM     12  C   UNL     1      -1.762   9.889  16.990  0.00  0.00    +0.000 A 
ATOM     13  C   UNL     1      -3.060  10.226  16.598  0.00  0.00    +0.000 A 
ATOM     14  C   UNL     1      -3.800  11.103  17.361  0.00  0.00    +0.000 A 
ATOM     15  C   UNL     1      -3.238  11.632  18.517  0.00  0.00    +0.000 A 
ATOM     16  C   UNL     1      -1.917  11.307  18.947  0.00  0.00    +0.000 A 
ENDROOT
BRANCH   1  18
ATOM     17  C   UNL     1      -2.251  13.908  21.539  0.00  0.00    +0.000 C 
ATOM     18  O   UNL     1      -2.510  12.630  20.949  0.00  0.00    +0.000 OA
ENDBRANCH   1  18
BRANCH   1  19
ATOM     19  O   UNL     1      -0.508  13.105  19.798  0.00  0.00    +0.000 OA
ATOM     20  C   UNL     1      -0.691  13.566  18.458  0.00  0.00    +0.000 C 
ENDBRANCH   1  19
BRANCH  10  21
ATOM     21  C   UNL     1       0.964   9.135  17.503  0.00  0.00    +0.000 C 
BRANCH  21  22
ATOM     22  C   UNL     1       1.610   7.877  18.129  0.00  0.00    +0.000 C 
BRANCH  22  23
ATOM     23  C   UNL     1       3.146   7.909  18.112  0.00  0.00    +0.000 C 
BRANCH  23  24
ATOM     24  C   UNL     1       3.741   6.621  17.540  0.00  0.00    +0.000 C 
BRANCH  24  25
ATOM     25  C   UNL     1       5.266   6.602  17.584  0.00  0.00    +0.000 C 
BRANCH  25  26
ATOM     26  C   UNL     1       5.842   6.355  16.204  0.00  0.00    +0.000 C 
ATOM     27  O   UNL     1       5.241   6.551  15.150  0.00  0.00    +0.000 OA
ATOM     28  N   UNL     1       7.134   5.885  16.219  0.00  0.00    +0.000 N 
ATOM     29  H   UNL     1       7.526   5.395  17.016  0.00  0.00    +0.000 HD
BRANCH  28  30
ATOM     30  O   UNL     1       7.656   5.537  14.949  0.00  0.00    +0.000 OA
ATOM     31  H   UNL     1       8.091   4.673  15.132  0.00  0.00    +0.000 HD
ENDBRANCH  28  30
ENDBRANCH  25  26
ENDBRANCH  24  25
ENDBRANCH  23  24
ENDBRANCH  22  23
ENDBRANCH  21  22
ENDBRANCH  10  21
TORSDOF 9
ENDMDL
MODEL 4
REMARK VINA RESULT:      -6.0      5.393      8.175
REMARK  Name = 
REMARK  11 active torsions:
REMARK  status: ('A' for Active; 'I' for Inactive)
REMARK    1  A    between atoms: C_1  and  O_2
REMARK    2  A    between atoms: O_2  and  C_3
REMARK    3  A    between atoms: C_3  and  O_4
REMARK    4  A    between atoms: O_4  and  C_5
REMARK    5  A    between atoms: N_14  and  C_15
REMARK    6  A    between atoms: C_15  and  C_16
REMARK    7  A    between atoms: C_16  and  C_17
REMARK    8  A    between atoms: C_17  and  C_18
REMARK    9  A    between atoms: C_18  and  C_19
REMARK   10  A    between atoms: C_19  and  C_20
REMARK   11  A    between atoms: N_22  and  O_23
REMARK                            x       y       z     vdW  Elec       q    Type
REMARK                         _______ _______ _______ _____ _____    ______ ____
ROOT
ATOM      1  C   UNL     1      -1.492  12.145  20.112  0.00  0.00    +0.000 C 
ATOM      2  C   UNL     1      -0.837  11.201  21.120  0.00  0.00    +0.000 A 
ATOM      3  C   UNL     1      -1.444  10.805  22.328  0.00  0.00    +0.000 A 
ATOM      4  C   UNL     1      -0.754  10.050  23.280  0.00  0.00    +0.000 A 
ATOM      5  C   UNL     1       0.542   9.618  23.020  0.00  0.00    +0.000 A 
ATOM      6  C   UNL     1       1.124   9.913  21.791  0.00  0.00    +0.000 A 
ATOM      7  C   UNL     1       0.424  10.679  20.851  0.00  0.00    +0.000 A 
ATOM      8  C   UNL     1       0.985  10.755  19.491  0.00  0.00    +0.000 C 
ATOM      9  O   UNL     1       2.141  11.137  19.351  0.00  0.00    +0.000 OA
ATOM     10  N   UNL     1       0.249  10.038  18.540  0.00  0.00    +0.000 N 
ATOM     11  C   UNL     1      -1.108  10.415  18.158  0.00  0.00    +0.000 A 
ATOM     12  C   UNL     1      -1.652   9.855  16.973  0.00  0.00    +0.000 A 
ATOM     13  C   UNL     1      -2.920  10.177  16.484  0.00  0.00    +0.000 A 
ATOM     14  C   UNL     1      -3.705  11.086  17.162  0.00  0.00    +0.000 A 
ATOM     15  C   UNL     1      -3.217  11.661  18.329  0.00  0.00    +0.000 A 
ATOM     16  C   UNL     1      -1.927  11.352  18.857  0.00  0.00    +0.000 A 
ENDROOT
BRANCH   1  18
ATOM     17  C   UNL     1      -2.415  14.055  21.319  0.00  0.00    +0.000 C 
ATOM     18  O   UNL     1      -2.642  12.756  20.760  0.00  0.00    +0.000 OA
ENDBRANCH   1  18
BRANCH   1  19
ATOM     19  O   UNL     1      -0.569  13.181  19.722  0.00  0.00    +0.000 OA
ATOM     20  C   UNL     1      -0.646  13.570  18.349  0.00  0.00    +0.000 C 
ENDBRANCH   1  19
BRANCH  10  21
ATOM     21  C   UNL     1       1.032   9.119  17.690  0.00  0.00    +0.000 C 
BRANCH  21  22
ATOM     22  C   UNL     1       1.759   7.972  18.432  0.00  0.00    +0.000 C 
BRANCH  22  23
ATOM     23  C   UNL     1       3.038   7.501  17.722  0.00  0.00    +0.000 C 
BRANCH  23  24
ATOM     24  C   UNL     1       3.641   6.264  18.388  0.00  0.00    +0.000 C 
BRANCH  24  25
ATOM     25  C   UNL     1       3.305   4.971  17.651  0.00  0.00    +0.000 C 
BRANCH  25  26
ATOM     26  C   UNL     1       1.979   4.409  18.125  0.00  0.00    +0.000 C 
ATOM     27  O   UNL     1       1.042   4.111  17.388  0.00  0.00    +0.000 OA
ATOM     28  N   UNL     1       1.902   4.248  19.488  0.00  0.00    +0.000 N 
ATOM     29  H   UNL     1       2.475   4.781  20.133  0.00  0.00    +0.000 HD
BRANCH  28  30
ATOM     30  O   UNL     1       0.635   3.835  19.968  0.00  0.00    +0.000 OA
ATOM     31  H   UNL     1       0.045   4.553  19.644  0.00  0.00    +0.000 HD
ENDBRANCH  28  30
ENDBRANCH  25  26
ENDBRANCH  24  25
ENDBRANCH  23  24
ENDBRANCH  22  23
ENDBRANCH  21  22
ENDBRANCH  10  21
TORSDOF 9
ENDMDL
MODEL 5
REMARK VINA RESULT:      -5.9      5.666      8.751
REMARK  Name = 
REMARK  11 active torsions:
REMARK  status: ('A' for Active; 'I' for Inactive)
REMARK    1  A    between atoms: C_1  and  O_2
REMARK    2  A    between atoms: O_2  and  C_3
REMARK    3  A    between atoms: C_3  and  O_4
REMARK    4  A    between atoms: O_4  and  C_5
REMARK    5  A    between atoms: N_14  and  C_15
REMARK    6  A    between atoms: C_15  and  C_16
REMARK    7  A    between atoms: C_16  and  C_17
REMARK    8  A    between atoms: C_17  and  C_18
REMARK    9  A    between atoms: C_18  and  C_19
REMARK   10  A    between atoms: C_19  and  C_20
REMARK   11  A    between atoms: N_22  and  O_23
REMARK                            x       y       z     vdW  Elec       q    Type
REMARK                         _______ _______ _______ _____ _____    ______ ____
ROOT
ATOM      1  C   UNL     1      -0.191  13.000  21.459  0.00  0.00    +0.000 C 
ATOM      2  C   UNL     1       1.001  13.380  20.581  0.00  0.00    +0.000 A 
ATOM      3  C   UNL     1       2.160  14.016  21.070  0.00  0.00    +0.000 A 
ATOM      4  C   UNL     1       3.165  14.465  20.210  0.00  0.00    +0.000 A 
ATOM      5  C   UNL     1       3.067  14.235  18.843  0.00  0.00    +0.000 A 
ATOM      6  C   UNL     1       1.979  13.520  18.350  0.00  0.00    +0.000 A 
ATOM      7  C   UNL     1       0.974  13.085  19.223  0.00  0.00    +0.000 A 
ATOM      8  C   UNL     1      -0.019  12.137  18.688  0.00  0.00    +0.000 C 
ATOM      9  O   UNL     1      -0.644  12.444  17.680  0.00  0.00    +0.000 OA
ATOM     10  N   UNL     1       0.122  10.836  19.187  0.00  0.00    +0.000 N 
ATOM     11  C   UNL     1      -0.108  10.510  20.591  0.00  0.00    +0.000 A 
ATOM     12  C   UNL     1      -0.269   9.146  20.946  0.00  0.00    +0.000 A 
ATOM     13  C   UNL     1      -0.539   8.719  22.248  0.00  0.00    +0.000 A 
ATOM     14  C   UNL     1      -0.667   9.647  23.260  0.00  0.00    +0.000 A 
ATOM     15  C   UNL     1      -0.517  10.996  22.963  0.00  0.00    +0.000 A 
ATOM     16  C   UNL     1      -0.238  11.465  21.644  0.00  0.00    +0.000 A 
ENDROOT
BRANCH   1  18
ATOM     17  C   UNL     1      -0.505  15.020  22.793  0.00  0.00    +0.000 C 
ATOM     18  O   UNL     1      -0.030  13.670  22.740  0.00  0.00    +0.000 OA
ENDBRANCH   1  18
BRANCH   1  19
ATOM     19  O   UNL     1      -1.422  13.442  20.851  0.00  0.00    +0.000 OA
ATOM     20  C   UNL     1      -2.597  12.786  21.329  0.00  0.00    +0.000 C 
ENDBRANCH   1  19
BRANCH  10  21
ATOM     21  C   UNL     1       0.156   9.765  18.172  0.00  0.00    +0.000 C 
BRANCH  21  22
ATOM     22  C   UNL     1       1.564   9.287  17.745  0.00  0.00    +0.000 C 
BRANCH  22  23
ATOM     23  C   UNL     1       2.196   8.292  18.731  0.00  0.00    +0.000 C 
BRANCH  23  24
ATOM     24  C   UNL     1       2.490   6.943  18.075  0.00  0.00    +0.000 C 
BRANCH  24  25
ATOM     25  C   UNL     1       3.946   6.801  17.640  0.00  0.00    +0.000 C 
BRANCH  25  26
ATOM     26  C   UNL     1       4.394   5.354  17.719  0.00  0.00    +0.000 C 
ATOM     27  O   UNL     1       3.931   4.441  17.040  0.00  0.00    +0.000 OA
ATOM     28  N   UNL     1       5.395   5.135  18.635  0.00  0.00    +0.000 N 
ATOM     29  H   UNL     1       5.553   5.747  19.428  0.00  0.00    +0.000 HD
BRANCH  28  30
ATOM     30  O   UNL     1       5.752   3.775  18.812  0.00  0.00    +0.000 OA
ATOM     31  H   UNL     1       4.936   3.307  18.523  0.00  0.00    +0.000 HD
ENDBRANCH  28  30
ENDBRANCH  25  26
ENDBRANCH  24  25
ENDBRANCH  23  24
ENDBRANCH  22  23
ENDBRANCH  21  22
ENDBRANCH  10  21
TORSDOF 9
ENDMDL
MODEL 6
REMARK VINA RESULT:      -5.8      9.009     12.018
REMARK  Name = 
REMARK  11 active torsions:
REMARK  status: ('A' for Active; 'I' for Inactive)
REMARK    1  A    between atoms: C_1  and  O_2
REMARK    2  A    between atoms: O_2  and  C_3
REMARK    3  A    between atoms: C_3  and  O_4
REMARK    4  A    between atoms: O_4  and  C_5
REMARK    5  A    between atoms: N_14  and  C_15
REMARK    6  A    between atoms: C_15  and  C_16
REMARK    7  A    between atoms: C_16  and  C_17
REMARK    8  A    between atoms: C_17  and  C_18
REMARK    9  A    between atoms: C_18  and  C_19
REMARK   10  A    between atoms: C_19  and  C_20
REMARK   11  A    between atoms: N_22  and  O_23
REMARK                            x       y       z     vdW  Elec       q    Type
REMARK                         _______ _______ _______ _____ _____    ______ ____
ROOT
ATOM      1  C   UNL     1      -2.858  13.218  22.447  0.00  0.00    +0.000 C 
ATOM      2  C   UNL     1      -1.852  12.103  22.164  0.00  0.00    +0.000 A 
ATOM      3  C   UNL     1      -1.450  11.152  23.123  0.00  0.00    +0.000 A 
ATOM      4  C   UNL     1      -0.430  10.235  22.861  0.00  0.00    +0.000 A 
ATOM      5  C   UNL     1       0.174  10.204  21.609  0.00  0.00    +0.000 A 
ATOM      6  C   UNL     1      -0.277  11.067  20.614  0.00  0.00    +0.000 A 
ATOM      7  C   UNL     1      -1.294  11.988  20.896  0.00  0.00    +0.000 A 
ATOM      8  C   UNL     1      -1.891  12.702  19.754  0.00  0.00    +0.000 C 
ATOM      9  O   UNL     1      -1.154  13.327  19.000  0.00  0.00    +0.000 OA
ATOM     10  N   UNL     1      -3.194  12.288  19.452  0.00  0.00    +0.000 N 
ATOM     11  C   UNL     1      -4.313  12.510  20.363  0.00  0.00    +0.000 A 
ATOM     12  C   UNL     1      -5.630  12.367  19.855  0.00  0.00    +0.000 A 
ATOM     13  C   UNL     1      -6.776  12.599  20.619  0.00  0.00    +0.000 A 
ATOM     14  C   UNL     1      -6.654  12.994  21.934  0.00  0.00    +0.000 A 
ATOM     15  C   UNL     1      -5.384  13.147  22.478  0.00  0.00    +0.000 A 
ATOM     16  C   UNL     1      -4.194  12.915  21.726  0.00  0.00    +0.000 A 
ENDROOT
BRANCH   1  18
ATOM     17  C   UNL     1      -2.384  14.365  24.548  0.00  0.00    +0.000 C 
ATOM     18  O   UNL     1      -3.052  13.285  23.886  0.00  0.00    +0.000 OA
ENDBRANCH   1  18
BRANCH   1  19
ATOM     19  O   UNL     1      -2.346  14.484  21.983  0.00  0.00    +0.000 OA
ATOM     20  C   UNL     1      -3.343  15.467  21.697  0.00  0.00    +0.000 C 
ENDBRANCH   1  19
BRANCH  10  21
ATOM     21  C   UNL     1      -3.443  11.951  18.037  0.00  0.00    +0.000 C 
BRANCH  21  22
ATOM     22  C   UNL     1      -3.884  10.495  17.760  0.00  0.00    +0.000 C 
BRANCH  22  23
ATOM     23  C   UNL     1      -2.723   9.574  17.352  0.00  0.00    +0.000 C 
BRANCH  23  24
ATOM     24  C   UNL     1      -2.443   9.633  15.850  0.00  0.00    +0.000 C 
BRANCH  24  25
ATOM     25  C   UNL     1      -3.685   9.968  15.029  0.00  0.00    +0.000 C 
BRANCH  25  26
ATOM     26  C   UNL     1      -3.388   9.885  13.544  0.00  0.00    +0.000 C 
ATOM     27  O   UNL     1      -2.282   9.647  13.065  0.00  0.00    +0.000 OA
ATOM     28  N   UNL     1      -4.488  10.097  12.747  0.00  0.00    +0.000 N 
ATOM     29  H   UNL     1      -5.297  10.621  13.063  0.00  0.00    +0.000 HD
BRANCH  28  30
ATOM     30  O   UNL     1      -4.216  10.140  11.358  0.00  0.00    +0.000 OA
ATOM     31  H   UNL     1      -5.029  10.564  10.999  0.00  0.00    +0.000 HD
ENDBRANCH  28  30
ENDBRANCH  25  26
ENDBRANCH  24  25
ENDBRANCH  23  24
ENDBRANCH  22  23
ENDBRANCH  21  22
ENDBRANCH  10  21
TORSDOF 9
ENDMDL
MODEL 7
REMARK VINA RESULT:      -5.8      5.281      8.173
REMARK  Name = 
REMARK  11 active torsions:
REMARK  status: ('A' for Active; 'I' for Inactive)
REMARK    1  A    between atoms: C_1  and  O_2
REMARK    2  A    between atoms: O_2  and  C_3
REMARK    3  A    between atoms: C_3  and  O_4
REMARK    4  A    between atoms: O_4  and  C_5
REMARK    5  A    between atoms: N_14  and  C_15
REMARK    6  A    between atoms: C_15  and  C_16
REMARK    7  A    between atoms: C_16  and  C_17
REMARK    8  A    between atoms: C_17  and  C_18
REMARK    9  A    between atoms: C_18  and  C_19
REMARK   10  A    between atoms: C_19  and  C_20
REMARK   11  A    between atoms: N_22  and  O_23
REMARK                            x       y       z     vdW  Elec       q    Type
REMARK                         _______ _______ _______ _____ _____    ______ ____
ROOT
ATOM      1  C   UNL     1      -1.434  12.065  20.197  0.00  0.00    +0.000 C 
ATOM      2  C   UNL     1      -0.702  11.093  21.123  0.00  0.00    +0.000 A 
ATOM      3  C   UNL     1      -1.228  10.636  22.348  0.00  0.00    +0.000 A 
ATOM      4  C   UNL     1      -0.469   9.857  23.224  0.00  0.00    +0.000 A 
ATOM      5  C   UNL     1       0.815   9.461  22.870  0.00  0.00    +0.000 A 
ATOM      6  C   UNL     1       1.317   9.817  21.621  0.00  0.00    +0.000 A 
ATOM      7  C   UNL     1       0.548  10.607  20.758  0.00  0.00    +0.000 A 
ATOM      8  C   UNL     1       1.024  10.750  19.371  0.00  0.00    +0.000 C 
ATOM      9  O   UNL     1       2.163  11.159  19.178  0.00  0.00    +0.000 OA
ATOM     10  N   UNL     1       0.244  10.058  18.436  0.00  0.00    +0.000 N 
ATOM     11  C   UNL     1      -1.140  10.424  18.152  0.00  0.00    +0.000 A 
ATOM     12  C   UNL     1      -1.745   9.902  16.980  0.00  0.00    +0.000 A 
ATOM     13  C   UNL     1      -3.045  10.220  16.581  0.00  0.00    +0.000 A 
ATOM     14  C   UNL     1      -3.802  11.084  17.343  0.00  0.00    +0.000 A 
ATOM     15  C   UNL     1      -3.255  11.621  18.502  0.00  0.00    +0.000 A 
ATOM     16  C   UNL     1      -1.930  11.315  18.938  0.00  0.00    +0.000 A 
ENDROOT
BRANCH   1  18
ATOM     17  C   UNL     1      -2.759  14.033  20.769  0.00  0.00    +0.000 C 
ATOM     18  O   UNL     1      -2.552  12.626  20.938  0.00  0.00    +0.000 OA
ENDBRANCH   1  18
BRANCH   1  19
ATOM     19  O   UNL     1      -0.553  13.134  19.797  0.00  0.00    +0.000 OA
ATOM     20  C   UNL     1       0.175  13.743  20.864  0.00  0.00    +0.000 C 
ENDBRANCH   1  19
BRANCH  10  21
ATOM     21  C   UNL     1       0.990   9.190  17.504  0.00  0.00    +0.000 C 
BRANCH  21  22
ATOM     22  C   UNL     1       1.638   7.932  18.128  0.00  0.00    +0.000 C 
BRANCH  22  23
ATOM     23  C   UNL     1       3.143   7.816  17.843  0.00  0.00    +0.000 C 
BRANCH  23  24
ATOM     24  C   UNL     1       3.623   6.364  17.872  0.00  0.00    +0.000 C 
BRANCH  24  25
ATOM     25  C   UNL     1       3.641   5.774  19.280  0.00  0.00    +0.000 C 
BRANCH  25  26
ATOM     26  C   UNL     1       4.680   4.676  19.391  0.00  0.00    +0.000 C 
ATOM     27  O   UNL     1       5.892   4.848  19.295  0.00  0.00    +0.000 OA
ATOM     28  N   UNL     1       4.145   3.430  19.622  0.00  0.00    +0.000 N 
ATOM     29  H   UNL     1       3.193   3.189  19.367  0.00  0.00    +0.000 HD
BRANCH  28  30
ATOM     30  O   UNL     1       5.084   2.370  19.615  0.00  0.00    +0.000 OA
ATOM     31  H   UNL     1       5.019   2.027  20.536  0.00  0.00    +0.000 HD
ENDBRANCH  28  30
ENDBRANCH  25  26
ENDBRANCH  24  25
ENDBRANCH  23  24
ENDBRANCH  22  23
ENDBRANCH  21  22
ENDBRANCH  10  21
TORSDOF 9
ENDMDL
MODEL 8
REMARK VINA RESULT:      -5.7      3.169      7.744
REMARK  Name = 
REMARK  11 active torsions:
REMARK  status: ('A' for Active; 'I' for Inactive)
REMARK    1  A    between atoms: C_1  and  O_2
REMARK    2  A    between atoms: O_2  and  C_3
REMARK    3  A    between atoms: C_3  and  O_4
REMARK    4  A    between atoms: O_4  and  C_5
REMARK    5  A    between atoms: N_14  and  C_15
REMARK    6  A    between atoms: C_15  and  C_16
REMARK    7  A    between atoms: C_16  and  C_17
REMARK    8  A    between atoms: C_17  and  C_18
REMARK    9  A    between atoms: C_18  and  C_19
REMARK   10  A    between atoms: C_19  and  C_20
REMARK   11  A    between atoms: N_22  and  O_23
REMARK                            x       y       z     vdW  Elec       q    Type
REMARK                         _______ _______ _______ _____ _____    ______ ____
ROOT
ATOM      1  C   UNL     1       4.433   4.149  17.148  0.00  0.00    +0.000 C 
ATOM      2  C   UNL     1       5.242   4.247  15.855  0.00  0.00    +0.000 A 
ATOM      3  C   UNL     1       4.838   3.668  14.636  0.00  0.00    +0.000 A 
ATOM      4  C   UNL     1       5.672   3.667  13.515  0.00  0.00    +0.000 A 
ATOM      5  C   UNL     1       6.909   4.301  13.566  0.00  0.00    +0.000 A 
ATOM      6  C   UNL     1       7.285   4.966  14.730  0.00  0.00    +0.000 A 
ATOM      7  C   UNL     1       6.442   4.949  15.848  0.00  0.00    +0.000 A 
ATOM      8  C   UNL     1       6.776   5.860  16.957  0.00  0.00    +0.000 C 
ATOM      9  O   UNL     1       7.895   5.798  17.454  0.00  0.00    +0.000 OA
ATOM     10  N   UNL     1       5.895   6.942  17.079  0.00  0.00    +0.000 N 
ATOM     11  C   UNL     1       4.494   6.769  17.450  0.00  0.00    +0.000 A 
ATOM     12  C   UNL     1       3.766   7.912  17.871  0.00  0.00    +0.000 A 
ATOM     13  C   UNL     1       2.435   7.860  18.294  0.00  0.00    +0.000 A 
ATOM     14  C   UNL     1       1.772   6.652  18.320  0.00  0.00    +0.000 A 
ATOM     15  C   UNL     1       2.442   5.504  17.916  0.00  0.00    +0.000 A 
ATOM     16  C   UNL     1       3.800   5.522  17.476  0.00  0.00    +0.000 A 
ENDROOT
BRANCH   1  18
ATOM     17  C   UNL     1       3.512   1.981  17.784  0.00  0.00    +0.000 C 
ATOM     18  O   UNL     1       3.404   3.140  16.952  0.00  0.00    +0.000 OA
ENDBRANCH   1  18
BRANCH   1  19
ATOM     19  O   UNL     1       5.282   3.745  18.241  0.00  0.00    +0.000 OA
ATOM     20  C   UNL     1       4.931   4.298  19.511  0.00  0.00    +0.000 C 
ENDBRANCH   1  19
BRANCH  10  21
ATOM     21  C   UNL     1       6.530   8.271  17.171  0.00  0.00    +0.000 C 
BRANCH  21  22
ATOM     22  C   UNL     1       7.836   8.338  17.998  0.00  0.00    +0.000 C 
BRANCH  22  23
ATOM     23  C   UNL     1       8.571   9.681  17.869  0.00  0.00    +0.000 C 
BRANCH  23  24
ATOM     24  C   UNL     1       9.251  10.091  19.175  0.00  0.00    +0.000 C 
BRANCH  24  25
ATOM     25  C   UNL     1      10.233  11.246  18.996  0.00  0.00    +0.000 C 
BRANCH  25  26
ATOM     26  C   UNL     1       9.494  12.553  18.787  0.00  0.00    +0.000 C 
ATOM     27  O   UNL     1       8.805  13.110  19.638  0.00  0.00    +0.000 OA
ATOM     28  N   UNL     1       9.666  13.092  17.534  0.00  0.00    +0.000 N 
ATOM     29  H   UNL     1       9.914  12.529  16.728  0.00  0.00    +0.000 HD
BRANCH  28  30
ATOM     30  O   UNL     1       8.895  14.252  17.274  0.00  0.00    +0.000 OA
ATOM     31  H   UNL     1       9.079  14.416  16.322  0.00  0.00    +0.000 HD
ENDBRANCH  28  30
ENDBRANCH  25  26
ENDBRANCH  24  25
ENDBRANCH  23  24
ENDBRANCH  22  23
ENDBRANCH  21  22
ENDBRANCH  10  21
TORSDOF 9
ENDMDL
MODEL 9
REMARK VINA RESULT:      -5.7      5.929      9.219
REMARK  Name = 
REMARK  11 active torsions:
REMARK  status: ('A' for Active; 'I' for Inactive)
REMARK    1  A    between atoms: C_1  and  O_2
REMARK    2  A    between atoms: O_2  and  C_3
REMARK    3  A    between atoms: C_3  and  O_4
REMARK    4  A    between atoms: O_4  and  C_5
REMARK    5  A    between atoms: N_14  and  C_15
REMARK    6  A    between atoms: C_15  and  C_16
REMARK    7  A    between atoms: C_16  and  C_17
REMARK    8  A    between atoms: C_17  and  C_18
REMARK    9  A    between atoms: C_18  and  C_19
REMARK   10  A    between atoms: C_19  and  C_20
REMARK   11  A    between atoms: N_22  and  O_23
REMARK                            x       y       z     vdW  Elec       q    Type
REMARK                         _______ _______ _______ _____ _____    ______ ____
ROOT
ATOM      1  C   UNL     1      -0.519  13.101  21.644  0.00  0.00    +0.000 C 
ATOM      2  C   UNL     1       0.655  13.657  20.839  0.00  0.00    +0.000 A 
ATOM      3  C   UNL     1       1.722  14.380  21.410  0.00  0.00    +0.000 A 
ATOM      4  C   UNL     1       2.702  14.983  20.619  0.00  0.00    +0.000 A 
ATOM      5  C   UNL     1       2.677  14.826  19.238  0.00  0.00    +0.000 A 
ATOM      6  C   UNL     1       1.690  14.033  18.661  0.00  0.00    +0.000 A 
ATOM      7  C   UNL     1       0.708  13.442  19.466  0.00  0.00    +0.000 A 
ATOM      8  C   UNL     1      -0.158  12.430  18.838  0.00  0.00    +0.000 C 
ATOM      9  O   UNL     1      -0.777  12.730  17.824  0.00  0.00    +0.000 OA
ATOM     10  N   UNL     1       0.104  11.123  19.269  0.00  0.00    +0.000 N 
ATOM     11  C   UNL     1      -0.139  10.691  20.642  0.00  0.00    +0.000 A 
ATOM     12  C   UNL     1      -0.165   9.298  20.912  0.00  0.00    +0.000 A 
ATOM     13  C   UNL     1      -0.434   8.767  22.176  0.00  0.00    +0.000 A 
ATOM     14  C   UNL     1      -0.696   9.614  23.232  0.00  0.00    +0.000 A 
ATOM     15  C   UNL     1      -0.681  10.987  23.018  0.00  0.00    +0.000 A 
ATOM     16  C   UNL     1      -0.408  11.561  21.741  0.00  0.00    +0.000 A 
ENDROOT
BRANCH   1  18
ATOM     17  C   UNL     1      -1.184  14.942  23.101  0.00  0.00    +0.000 C 
ATOM     18  O   UNL     1      -0.475  13.706  22.966  0.00  0.00    +0.000 OA
ENDBRANCH   1  18
BRANCH   1  19
ATOM     19  O   UNL     1      -1.768  13.448  21.012  0.00  0.00    +0.000 OA
ATOM     20  C   UNL     1      -2.880  12.637  21.395  0.00  0.00    +0.000 C 
ENDBRANCH   1  19
BRANCH  10  21
ATOM     21  C   UNL     1       0.288  10.125  18.197  0.00  0.00    +0.000 C 
BRANCH  21  22
ATOM     22  C   UNL     1       1.735   9.618  17.991  0.00  0.00    +0.000 C 
BRANCH  22  23
ATOM     23  C   UNL     1       1.830   8.091  17.840  0.00  0.00    +0.000 C 
BRANCH  23  24
ATOM     24  C   UNL     1       3.243   7.575  18.111  0.00  0.00    +0.000 C 
BRANCH  24  25
ATOM     25  C   UNL     1       4.049   7.357  16.833  0.00  0.00    +0.000 C 
BRANCH  25  26
ATOM     26  C   UNL     1       5.328   6.596  17.125  0.00  0.00    +0.000 C 
ATOM     27  O   UNL     1       5.575   6.026  18.184  0.00  0.00    +0.000 OA
ATOM     28  N   UNL     1       6.217   6.587  16.077  0.00  0.00    +0.000 N 
ATOM     29  H   UNL     1       6.218   7.301  15.356  0.00  0.00    +0.000 HD
BRANCH  28  30
ATOM     30  O   UNL     1       7.467   5.983  16.363  0.00  0.00    +0.000 OA
ATOM     31  H   UNL     1       7.566   5.348  15.618  0.00  0.00    +0.000 HD
ENDBRANCH  28  30
ENDBRANCH  25  26
ENDBRANCH  24  25
ENDBRANCH  23  24
ENDBRANCH  22  23
ENDBRANCH  21  22
ENDBRANCH  10  21
TORSDOF 9
ENDMDL
