MODEL 1
REMARK VINA RESULT:      -7.9      0.000      0.000
REMARK  Name = 
REMARK  11 active torsions:
REMARK  status: ('A' for Active; 'I' for Inactive)
REMARK    1  A    between atoms: C_2  and  C_3
REMARK    2  A    between atoms: C_3  and  N_4
REMARK    3  A    between atoms: C_5  and  S_6
REMARK    4  A    between atoms: S_6  and  C_7
REMARK    5  A    between atoms: C_7  and  C_8
REMARK    6  A    between atoms: C_8  and  C_10
REMARK    7  A    between atoms: C_11  and  N_12
REMARK    8  A    between atoms: N_13  and  C_14
REMARK    9  A    between atoms: N_17  and  C_18
REMARK   10  A    between atoms: C_24  and  C_25
REMARK   11  A    between atoms: C_25  and  C_26
REMARK                            x       y       z     vdW  Elec       q    Type
REMARK                         _______ _______ _______ _____ _____    ______ ____
ROOT
ATOM      1  S   UNL     1       1.380   6.624  20.894  0.00  0.00    +0.000 S 
ENDROOT
BRANCH   1   3
ATOM      2  N   UNL     1       1.785   4.547  19.196  0.00  0.00    +0.000 N 
ATOM      3  C   UNL     1       2.241   5.816  19.583  0.00  0.00    +0.000 A 
ATOM      4  N   UNL     1       3.266   6.427  19.066  0.00  0.00    +0.000 NA
ATOM      5  C   UNL     1       3.888   5.762  18.062  0.00  0.00    +0.000 A 
ATOM      6  S   UNL     1       5.277   6.377  17.276  0.00  0.00    +0.000 S 
ATOM      7  C   UNL     1       5.376   5.023  16.223  0.00  0.00    +0.000 A 
ATOM      8  C   UNL     1       4.369   4.117  16.483  0.00  0.00    +0.000 A 
ATOM      9  C   UNL     1       3.515   4.550  17.540  0.00  0.00    +0.000 A 
ATOM     10  C   UNL     1       2.370   3.880  18.112  0.00  0.00    +0.000 A 
ATOM     11  O   UNL     1       1.985   2.801  17.668  0.00  0.00    +0.000 OA
BRANCH   7  12
ATOM     12  C   UNL     1       6.469   4.910  15.198  0.00  0.00    +0.000 C 
ATOM     13  C   UNL     1       6.085   3.998  14.041  0.00  0.00    +0.000 C 
ENDBRANCH   7  12
BRANCH   2  14
ATOM     14  C   UNL     1       0.757   3.787  19.909  0.00  0.00    +0.000 C 
BRANCH  14  16
ATOM     15  C   UNL     1       2.454   2.941  21.633  0.00  0.00    +0.000 C 
ATOM     16  C   UNL     1       1.292   2.864  20.971  0.00  0.00    +0.000 C 
ENDBRANCH  14  16
ENDBRANCH   2  14
ENDBRANCH   1   3
BRANCH   1  17
ATOM     17  C   UNL     1       1.418   8.369  20.369  0.00  0.00    +0.000 C 
BRANCH  17  18
ATOM     18  C   UNL     1       1.214   9.358  21.512  0.00  0.00    +0.000 C 
ATOM     19  O   UNL     1       1.808   9.244  22.591  0.00  0.00    +0.000 OA
BRANCH  18  20
ATOM     20  C   UNL     1       0.270  10.536  21.302  0.00  0.00    +0.000 A 
ATOM     21  C   UNL     1      -0.710  10.796  22.204  0.00  0.00    +0.000 A 
ATOM     22  N   UNL     1      -1.613  11.829  21.956  0.00  0.00    +0.000 N 
ATOM     23  C   UNL     1      -2.729  12.126  22.850  0.00  0.00    +0.000 C 
ATOM     24  C   UNL     1      -1.551  12.667  20.842  0.00  0.00    +0.000 A 
ATOM     25  O   UNL     1      -2.378  13.560  20.656  0.00  0.00    +0.000 OA
ATOM     26  N   UNL     1      -0.507  12.445  19.967  0.00  0.00    +0.000 N 
ATOM     27  C   UNL     1      -0.355  13.318  18.820  0.00  0.00    +0.000 C 
ATOM     28  C   UNL     1       0.419  11.434  20.132  0.00  0.00    +0.000 A 
ATOM     29  O   UNL     1       1.346  11.287  19.335  0.00  0.00    +0.000 OA
BRANCH  21  30
ATOM     30  N   UNL     1      -0.820  10.059  23.379  0.00  0.00    +0.000 N 
ATOM     31  H   UNL     1      -0.270  10.464  24.149  0.00  0.00    +0.000 HD
ATOM     32  H   UNL     1      -0.589   9.079  23.284  0.00  0.00    +0.000 HD
ENDBRANCH  21  30
ENDBRANCH  18  20
ENDBRANCH  17  18
ENDBRANCH   1  17
TORSDOF 8
ENDMDL
MODEL 2
REMARK VINA RESULT:      -7.7      1.654      2.489
REMARK  Name = 
REMARK  11 active torsions:
REMARK  status: ('A' for Active; 'I' for Inactive)
REMARK    1  A    between atoms: C_2  and  C_3
REMARK    2  A    between atoms: C_3  and  N_4
REMARK    3  A    between atoms: C_5  and  S_6
REMARK    4  A    between atoms: S_6  and  C_7
REMARK    5  A    between atoms: C_7  and  C_8
REMARK    6  A    between atoms: C_8  and  C_10
REMARK    7  A    between atoms: C_11  and  N_12
REMARK    8  A    between atoms: N_13  and  C_14
REMARK    9  A    between atoms: N_17  and  C_18
REMARK   10  A    between atoms: C_24  and  C_25
REMARK   11  A    between atoms: C_25  and  C_26
REMARK                            x       y       z     vdW  Elec       q    Type
REMARK                         _______ _______ _______ _____ _____    ______ ____
ROOT
ATOM      1  S   UNL     1       2.145   7.719  19.612  0.00  0.00    +0.000 S 
ENDROOT
BRANCH   1   3
ATOM      2  N   UNL     1       3.179   5.245  19.195  0.00  0.00    +0.000 N 
ATOM      3  C   UNL     1       3.107   6.555  18.698  0.00  0.00    +0.000 A 
ATOM      4  N   UNL     1       3.718   6.980  17.632  0.00  0.00    +0.000 NA
ATOM      5  C   UNL     1       4.440   6.045  16.969  0.00  0.00    +0.000 A 
ATOM      6  S   UNL     1       5.347   6.409  15.566  0.00  0.00    +0.000 S 
ATOM      7  C   UNL     1       5.878   4.784  15.392  0.00  0.00    +0.000 A 
ATOM      8  C   UNL     1       5.376   3.987  16.400  0.00  0.00    +0.000 A 
ATOM      9  C   UNL     1       4.547   4.719  17.302  0.00  0.00    +0.000 A 
ATOM     10  C   UNL     1       3.858   4.249  18.481  0.00  0.00    +0.000 A 
ATOM     11  O   UNL     1       3.909   3.067  18.812  0.00  0.00    +0.000 OA
BRANCH   7  12
ATOM     12  C   UNL     1       6.793   4.378  14.271  0.00  0.00    +0.000 C 
ATOM     13  C   UNL     1       6.049   3.673  13.145  0.00  0.00    +0.000 C 
ENDBRANCH   7  12
BRANCH   2  14
ATOM     14  C   UNL     1       2.649   4.825  20.493  0.00  0.00    +0.000 C 
BRANCH  14  16
ATOM     15  C   UNL     1       0.761   3.111  20.235  0.00  0.00    +0.000 C 
ATOM     16  C   UNL     1       1.221   4.350  20.456  0.00  0.00    +0.000 C 
ENDBRANCH  14  16
ENDBRANCH   2  14
ENDBRANCH   1   3
BRANCH   1  17
ATOM     17  C   UNL     1       1.286   8.637  18.292  0.00  0.00    +0.000 C 
BRANCH  17  18
ATOM     18  C   UNL     1       1.270  10.147  18.506  0.00  0.00    +0.000 C 
ATOM     19  O   UNL     1       2.195  10.874  18.121  0.00  0.00    +0.000 OA
BRANCH  18  20
ATOM     20  C   UNL     1       0.063  10.777  19.190  0.00  0.00    +0.000 A 
ATOM     21  C   UNL     1      -1.105  10.924  18.515  0.00  0.00    +0.000 A 
ATOM     22  N   UNL     1      -2.175  11.573  19.131  0.00  0.00    +0.000 N 
ATOM     23  C   UNL     1      -3.440  11.822  18.445  0.00  0.00    +0.000 C 
ATOM     24  C   UNL     1      -2.144  12.053  20.441  0.00  0.00    +0.000 A 
ATOM     25  O   UNL     1      -3.110  12.633  20.941  0.00  0.00    +0.000 OA
ATOM     26  N   UNL     1      -0.979  11.834  21.146  0.00  0.00    +0.000 N 
ATOM     27  C   UNL     1      -0.906  12.259  22.530  0.00  0.00    +0.000 C 
ATOM     28  C   UNL     1       0.130  11.213  20.605  0.00  0.00    +0.000 A 
ATOM     29  O   UNL     1       1.141  11.021  21.280  0.00  0.00    +0.000 OA
BRANCH  21  30
ATOM     30  N   UNL     1      -1.260  10.424  17.226  0.00  0.00    +0.000 N 
ATOM     31  H   UNL     1      -1.965  10.944  16.685  0.00  0.00    +0.000 HD
ATOM     32  H   UNL     1      -1.468   9.435  17.180  0.00  0.00    +0.000 HD
ENDBRANCH  21  30
ENDBRANCH  18  20
ENDBRANCH  17  18
ENDBRANCH   1  17
TORSDOF 8
ENDMDL
MODEL 3
REMARK VINA RESULT:      -7.6      1.587      2.654
REMARK  Name = 
REMARK  11 active torsions:
REMARK  status: ('A' for Active; 'I' for Inactive)
REMARK    1  A    between atoms: C_2  and  C_3
REMARK    2  A    between atoms: C_3  and  N_4
REMARK    3  A    between atoms: C_5  and  S_6
REMARK    4  A    between atoms: S_6  and  C_7
REMARK    5  A    between atoms: C_7  and  C_8
REMARK    6  A    between atoms: C_8  and  C_10
REMARK    7  A    between atoms: C_11  and  N_12
REMARK    8  A    between atoms: N_13  and  C_14
REMARK    9  A    between atoms: N_17  and  C_18
REMARK   10  A    between atoms: C_24  and  C_25
REMARK   11  A    between atoms: C_25  and  C_26
REMARK                            x       y       z     vdW  Elec       q    Type
REMARK                         _______ _______ _______ _____ _____    ______ ____
ROOT
ATOM      1  S   UNL     1       2.151   7.128  19.707  0.00  0.00    +0.000 S 
ENDROOT
BRANCH   1   3
ATOM      2  N   UNL     1       3.145   4.712  18.973  0.00  0.00    +0.000 N 
ATOM      3  C   UNL     1       3.106   6.079  18.657  0.00  0.00    +0.000 A 
ATOM      4  N   UNL     1       3.742   6.632  17.667  0.00  0.00    +0.000 NA
ATOM      5  C   UNL     1       4.457   5.780  16.893  0.00  0.00    +0.000 A 
ATOM      6  S   UNL     1       5.393   6.313  15.565  0.00  0.00    +0.000 S 
ATOM      7  C   UNL     1       5.897   4.716  15.179  0.00  0.00    +0.000 A 
ATOM      8  C   UNL     1       5.364   3.800  16.063  0.00  0.00    +0.000 A 
ATOM      9  C   UNL     1       4.534   4.420  17.044  0.00  0.00    +0.000 A 
ATOM     10  C   UNL     1       3.818   3.809  18.140  0.00  0.00    +0.000 A 
ATOM     11  O   UNL     1       3.841   2.592  18.307  0.00  0.00    +0.000 OA
BRANCH   7  12
ATOM     12  C   UNL     1       6.823   4.447  14.026  0.00  0.00    +0.000 C 
ATOM     13  C   UNL     1       6.146   3.656  12.915  0.00  0.00    +0.000 C 
ENDBRANCH   7  12
BRANCH   2  14
ATOM     14  C   UNL     1       2.587   4.131  20.194  0.00  0.00    +0.000 C 
BRANCH  14  16
ATOM     15  C   UNL     1       0.595   2.652  19.551  0.00  0.00    +0.000 C 
ATOM     16  C   UNL     1       1.134   3.753  20.093  0.00  0.00    +0.000 C 
ENDBRANCH  14  16
ENDBRANCH   2  14
ENDBRANCH   1   3
BRANCH   1  17
ATOM     17  C   UNL     1       2.351   8.758  18.917  0.00  0.00    +0.000 C 
BRANCH  17  18
ATOM     18  C   UNL     1       1.035   9.495  18.689  0.00  0.00    +0.000 C 
ATOM     19  O   UNL     1       0.306   9.249  17.720  0.00  0.00    +0.000 OA
BRANCH  18  20
ATOM     20  C   UNL     1       0.597  10.544  19.703  0.00  0.00    +0.000 A 
ATOM     21  C   UNL     1       0.816  11.861  19.462  0.00  0.00    +0.000 A 
ATOM     22  N   UNL     1       0.480  12.801  20.436  0.00  0.00    +0.000 N 
ATOM     23  C   UNL     1       0.743  14.228  20.271  0.00  0.00    +0.000 C 
ATOM     24  C   UNL     1      -0.124  12.480  21.652  0.00  0.00    +0.000 A 
ATOM     25  O   UNL     1      -0.393  13.342  22.490  0.00  0.00    +0.000 OA
ATOM     26  N   UNL     1      -0.412  11.147  21.859  0.00  0.00    +0.000 N 
ATOM     27  C   UNL     1      -1.092  10.756  23.079  0.00  0.00    +0.000 C 
ATOM     28  C   UNL     1      -0.099  10.153  20.952  0.00  0.00    +0.000 A 
ATOM     29  O   UNL     1      -0.394   8.978  21.172  0.00  0.00    +0.000 OA
BRANCH  21  30
ATOM     30  N   UNL     1       1.356  12.292  18.254  0.00  0.00    +0.000 N 
ATOM     31  H   UNL     1       1.586  11.509  17.626  0.00  0.00    +0.000 HD
ATOM     32  H   UNL     1       2.164  12.894  18.346  0.00  0.00    +0.000 HD
ENDBRANCH  21  30
ENDBRANCH  18  20
ENDBRANCH  17  18
ENDBRANCH   1  17
TORSDOF 8
ENDMDL
MODEL 4
REMARK VINA RESULT:      -7.6      1.023      1.023
REMARK  Name = 
REMARK  11 active torsions:
REMARK  status: ('A' for Active; 'I' for Inactive)
REMARK    1  A    between atoms: C_2  and  C_3
REMARK    2  A    between atoms: C_3  and  N_4
REMARK    3  A    between atoms: C_5  and  S_6
REMARK    4  A    between atoms: S_6  and  C_7
REMARK    5  A    between atoms: C_7  and  C_8
REMARK    6  A    between atoms: C_8  and  C_10
REMARK    7  A    between atoms: C_11  and  N_12
REMARK    8  A    between atoms: N_13  and  C_14
REMARK    9  A    between atoms: N_17  and  C_18
REMARK   10  A    between atoms: C_24  and  C_25
REMARK   11  A    between atoms: C_25  and  C_26
REMARK                            x       y       z     vdW  Elec       q    Type
REMARK                         _______ _______ _______ _____ _____    ______ ____
ROOT
ATOM      1  S   UNL     1       1.606   6.346  20.958  0.00  0.00    +0.000 S 
ENDROOT
BRANCH   1   3
ATOM      2  N   UNL     1       1.944   4.417  19.080  0.00  0.00    +0.000 N 
ATOM      3  C   UNL     1       2.448   5.626  19.584  0.00  0.00    +0.000 A 
ATOM      4  N   UNL     1       3.502   6.238  19.132  0.00  0.00    +0.000 NA
ATOM      5  C   UNL     1       4.107   5.641  18.076  0.00  0.00    +0.000 A 
ATOM      6  S   UNL     1       5.529   6.266  17.359  0.00  0.00    +0.000 S 
ATOM      7  C   UNL     1       5.583   5.010  16.187  0.00  0.00    +0.000 A 
ATOM      8  C   UNL     1       4.537   4.127  16.356  0.00  0.00    +0.000 A 
ATOM      9  C   UNL     1       3.690   4.498  17.443  0.00  0.00    +0.000 A 
ATOM     10  C   UNL     1       2.512   3.828  17.943  0.00  0.00    +0.000 A 
ATOM     11  O   UNL     1       2.088   2.811  17.400  0.00  0.00    +0.000 OA
BRANCH   7  12
ATOM     12  C   UNL     1       6.682   4.945  15.164  0.00  0.00    +0.000 C 
ATOM     13  C   UNL     1       6.266   4.174  13.919  0.00  0.00    +0.000 C 
ENDBRANCH   7  12
BRANCH   2  14
ATOM     14  C   UNL     1       0.878   3.640  19.713  0.00  0.00    +0.000 C 
BRANCH  14  16
ATOM     15  C   UNL     1       2.268   2.738  21.668  0.00  0.00    +0.000 C 
ATOM     16  C   UNL     1       1.363   2.602  20.689  0.00  0.00    +0.000 C 
ENDBRANCH  14  16
ENDBRANCH   2  14
ENDBRANCH   1   3
BRANCH   1  17
ATOM     17  C   UNL     1       1.521   8.105  20.484  0.00  0.00    +0.000 C 
BRANCH  17  18
ATOM     18  C   UNL     1       0.271   8.816  20.990  0.00  0.00    +0.000 C 
ATOM     19  O   UNL     1      -0.678   8.198  21.491  0.00  0.00    +0.000 OA
BRANCH  18  20
ATOM     20  C   UNL     1       0.206  10.336  20.901  0.00  0.00    +0.000 A 
ATOM     21  C   UNL     1      -0.265  11.063  21.945  0.00  0.00    +0.000 A 
ATOM     22  N   UNL     1      -0.391  12.445  21.817  0.00  0.00    +0.000 N 
ATOM     23  C   UNL     1      -0.948  13.283  22.875  0.00  0.00    +0.000 C 
ATOM     24  C   UNL     1      -0.013  13.159  20.678  0.00  0.00    +0.000 A 
ATOM     25  O   UNL     1      -0.154  14.381  20.603  0.00  0.00    +0.000 OA
ATOM     26  N   UNL     1       0.535  12.423  19.649  0.00  0.00    +0.000 N 
ATOM     27  C   UNL     1       1.001  13.113  18.462  0.00  0.00    +0.000 C 
ATOM     28  C   UNL     1       0.680  11.050  19.691  0.00  0.00    +0.000 A 
ATOM     29  O   UNL     1       1.194  10.437  18.755  0.00  0.00    +0.000 OA
BRANCH  21  30
ATOM     30  N   UNL     1      -0.611  10.454  23.148  0.00  0.00    +0.000 N 
ATOM     31  H   UNL     1       0.170  10.438  23.818  0.00  0.00    +0.000 HD
ATOM     32  H   UNL     1      -0.988   9.520  23.053  0.00  0.00    +0.000 HD
ENDBRANCH  21  30
ENDBRANCH  18  20
ENDBRANCH  17  18
ENDBRANCH   1  17
TORSDOF 8
ENDMDL
MODEL 5
REMARK VINA RESULT:      -7.6      1.146      2.279
REMARK  Name = 
REMARK  11 active torsions:
REMARK  status: ('A' for Active; 'I' for Inactive)
REMARK    1  A    between atoms: C_2  and  C_3
REMARK    2  A    between atoms: C_3  and  N_4
REMARK    3  A    between atoms: C_5  and  S_6
REMARK    4  A    between atoms: S_6  and  C_7
REMARK    5  A    between atoms: C_7  and  C_8
REMARK    6  A    between atoms: C_8  and  C_10
REMARK    7  A    between atoms: C_11  and  N_12
REMARK    8  A    between atoms: N_13  and  C_14
REMARK    9  A    between atoms: N_17  and  C_18
REMARK   10  A    between atoms: C_24  and  C_25
REMARK   11  A    between atoms: C_25  and  C_26
REMARK                            x       y       z     vdW  Elec       q    Type
REMARK                         _______ _______ _______ _____ _____    ______ ____
ROOT
ATOM      1  S   UNL     1       1.445   6.443  20.470  0.00  0.00    +0.000 S 
ENDROOT
BRANCH   1   3
ATOM      2  N   UNL     1       1.958   4.329  18.847  0.00  0.00    +0.000 N 
ATOM      3  C   UNL     1       2.366   5.622  19.208  0.00  0.00    +0.000 A 
ATOM      4  N   UNL     1       3.387   6.248  18.700  0.00  0.00    +0.000 NA
ATOM      5  C   UNL     1       4.056   5.572  17.735  0.00  0.00    +0.000 A 
ATOM      6  S   UNL     1       5.448   6.204  16.969  0.00  0.00    +0.000 S 
ATOM      7  C   UNL     1       5.616   4.823  15.961  0.00  0.00    +0.000 A 
ATOM      8  C   UNL     1       4.628   3.896  16.220  0.00  0.00    +0.000 A 
ATOM      9  C   UNL     1       3.733   4.335  17.240  0.00  0.00    +0.000 A 
ATOM     10  C   UNL     1       2.591   3.649  17.800  0.00  0.00    +0.000 A 
ATOM     11  O   UNL     1       2.251   2.546  17.379  0.00  0.00    +0.000 OA
BRANCH   7  12
ATOM     12  C   UNL     1       6.741   4.712  14.969  0.00  0.00    +0.000 C 
ATOM     13  C   UNL     1       6.328   3.966  13.709  0.00  0.00    +0.000 C 
ENDBRANCH   7  12
BRANCH   2  14
ATOM     14  C   UNL     1       0.932   3.561  19.554  0.00  0.00    +0.000 C 
BRANCH  14  16
ATOM     15  C   UNL     1       2.226   2.930  21.675  0.00  0.00    +0.000 C 
ATOM     16  C   UNL     1       1.470   2.632  20.609  0.00  0.00    +0.000 C 
ENDBRANCH  14  16
ENDBRANCH   2  14
ENDBRANCH   1   3
BRANCH   1  17
ATOM     17  C   UNL     1       2.089   8.146  20.378  0.00  0.00    +0.000 C 
BRANCH  17  18
ATOM     18  C   UNL     1       1.245   9.075  19.511  0.00  0.00    +0.000 C 
ATOM     19  O   UNL     1       1.008   8.826  18.322  0.00  0.00    +0.000 OA
BRANCH  18  20
ATOM     20  C   UNL     1       0.654  10.330  20.142  0.00  0.00    +0.000 A 
ATOM     21  C   UNL     1       0.883  11.546  19.587  0.00  0.00    +0.000 A 
ATOM     22  N   UNL     1       0.401  12.690  20.221  0.00  0.00    +0.000 N 
ATOM     23  C   UNL     1       0.662  14.036  19.716  0.00  0.00    +0.000 C 
ATOM     24  C   UNL     1      -0.362  12.670  21.389  0.00  0.00    +0.000 A 
ATOM     25  O   UNL     1      -0.757  13.707  21.923  0.00  0.00    +0.000 OA
ATOM     26  N   UNL     1      -0.655  11.425  21.907  0.00  0.00    +0.000 N 
ATOM     27  C   UNL     1      -1.491  11.335  23.088  0.00  0.00    +0.000 C 
ATOM     28  C   UNL     1      -0.203  10.246  21.348  0.00  0.00    +0.000 A 
ATOM     29  O   UNL     1      -0.508   9.156  21.834  0.00  0.00    +0.000 OA
BRANCH  21  30
ATOM     30  N   UNL     1       1.579  11.671  18.388  0.00  0.00    +0.000 N 
ATOM     31  H   UNL     1       2.534  11.289  18.447  0.00  0.00    +0.000 HD
ATOM     32  H   UNL     1       1.619  12.613  18.021  0.00  0.00    +0.000 HD
ENDBRANCH  21  30
ENDBRANCH  18  20
ENDBRANCH  17  18
ENDBRANCH   1  17
TORSDOF 8
ENDMDL
MODEL 6
REMARK VINA RESULT:      -7.6      1.258      2.037
REMARK  Name = 
REMARK  11 active torsions:
REMARK  status: ('A' for Active; 'I' for Inactive)
REMARK    1  A    between atoms: C_2  and  C_3
REMARK    2  A    between atoms: C_3  and  N_4
REMARK    3  A    between atoms: C_5  and  S_6
REMARK    4  A    between atoms: S_6  and  C_7
REMARK    5  A    between atoms: C_7  and  C_8
REMARK    6  A    between atoms: C_8  and  C_10
REMARK    7  A    between atoms: C_11  and  N_12
REMARK    8  A    between atoms: N_13  and  C_14
REMARK    9  A    between atoms: N_17  and  C_18
REMARK   10  A    between atoms: C_24  and  C_25
REMARK   11  A    between atoms: C_25  and  C_26
REMARK                            x       y       z     vdW  Elec       q    Type
REMARK                         _______ _______ _______ _____ _____    ______ ____
ROOT
ATOM      1  S   UNL     1       1.711   6.547  21.103  0.00  0.00    +0.000 S 
ENDROOT
BRANCH   1   3
ATOM      2  N   UNL     1       1.883   4.615  19.205  0.00  0.00    +0.000 N 
ATOM      3  C   UNL     1       2.451   5.806  19.682  0.00  0.00    +0.000 A 
ATOM      4  N   UNL     1       3.496   6.388  19.172  0.00  0.00    +0.000 NA
ATOM      5  C   UNL     1       4.022   5.778  18.082  0.00  0.00    +0.000 A 
ATOM      6  S   UNL     1       5.419   6.363  17.288  0.00  0.00    +0.000 S 
ATOM      7  C   UNL     1       5.369   5.111  16.112  0.00  0.00    +0.000 A 
ATOM      8  C   UNL     1       4.307   4.259  16.338  0.00  0.00    +0.000 A 
ATOM      9  C   UNL     1       3.535   4.651  17.472  0.00  0.00    +0.000 A 
ATOM     10  C   UNL     1       2.368   4.014  18.036  0.00  0.00    +0.000 A 
ATOM     11  O   UNL     1       1.883   3.012  17.515  0.00  0.00    +0.000 OA
BRANCH   7  12
ATOM     12  C   UNL     1       6.405   5.017  15.028  0.00  0.00    +0.000 C 
ATOM     13  C   UNL     1       6.026   4.009  13.951  0.00  0.00    +0.000 C 
ENDBRANCH   7  12
BRANCH   2  14
ATOM     14  C   UNL     1       0.831   3.868  19.895  0.00  0.00    +0.000 C 
BRANCH  14  16
ATOM     15  C   UNL     1       2.080   2.832  21.879  0.00  0.00    +0.000 C 
ATOM     16  C   UNL     1       1.335   2.750  20.768  0.00  0.00    +0.000 C 
ENDBRANCH  14  16
ENDBRANCH   2  14
ENDBRANCH   1   3
BRANCH   1  17
ATOM     17  C   UNL     1       1.344   8.233  20.517  0.00  0.00    +0.000 C 
BRANCH  17  18
ATOM     18  C   UNL     1       0.021   8.789  21.037  0.00  0.00    +0.000 C 
ATOM     19  O   UNL     1      -0.811   8.073  21.609  0.00  0.00    +0.000 OA
BRANCH  18  20
ATOM     20  C   UNL     1      -0.266  10.276  20.869  0.00  0.00    +0.000 A 
ATOM     21  C   UNL     1      -0.414  10.807  19.629  0.00  0.00    +0.000 A 
ATOM     22  N   UNL     1      -0.599  12.182  19.491  0.00  0.00    +0.000 N 
ATOM     23  C   UNL     1      -0.704  12.832  18.187  0.00  0.00    +0.000 C 
ATOM     24  C   UNL     1      -0.690  13.067  20.566  0.00  0.00    +0.000 A 
ATOM     25  O   UNL     1      -0.841  14.279  20.397  0.00  0.00    +0.000 OA
ATOM     26  N   UNL     1      -0.614  12.510  21.825  0.00  0.00    +0.000 N 
ATOM     27  C   UNL     1      -0.760  13.370  22.984  0.00  0.00    +0.000 C 
ATOM     28  C   UNL     1      -0.417  11.161  22.048  0.00  0.00    +0.000 A 
ATOM     29  O   UNL     1      -0.376  10.706  23.191  0.00  0.00    +0.000 OA
BRANCH  21  30
ATOM     30  N   UNL     1      -0.402  10.002  18.494  0.00  0.00    +0.000 N 
ATOM     31  H   UNL     1      -1.350   9.756  18.177  0.00  0.00    +0.000 HD
ATOM     32  H   UNL     1       0.149   9.158  18.583  0.00  0.00    +0.000 HD
ENDBRANCH  21  30
ENDBRANCH  18  20
ENDBRANCH  17  18
ENDBRANCH   1  17
TORSDOF 8
ENDMDL
MODEL 7
REMARK VINA RESULT:      -7.5      1.767      2.734
REMARK  Name = 
REMARK  11 active torsions:
REMARK  status: ('A' for Active; 'I' for Inactive)
REMARK    1  A    between atoms: C_2  and  C_3
REMARK    2  A    between atoms: C_3  and  N_4
REMARK    3  A    between atoms: C_5  and  S_6
REMARK    4  A    between atoms: S_6  and  C_7
REMARK    5  A    between atoms: C_7  and  C_8
REMARK    6  A    between atoms: C_8  and  C_10
REMARK    7  A    between atoms: C_11  and  N_12
REMARK    8  A    between atoms: N_13  and  C_14
REMARK    9  A    between atoms: N_17  and  C_18
REMARK   10  A    between atoms: C_24  and  C_25
REMARK   11  A    between atoms: C_25  and  C_26
REMARK                            x       y       z     vdW  Elec       q    Type
REMARK                         _______ _______ _______ _____ _____    ______ ____
ROOT
ATOM      1  S   UNL     1       1.839   7.676  19.559  0.00  0.00    +0.000 S 
ENDROOT
BRANCH   1   3
ATOM      2  N   UNL     1       2.338   5.104  18.853  0.00  0.00    +0.000 N 
ATOM      3  C   UNL     1       2.693   6.443  18.629  0.00  0.00    +0.000 A 
ATOM      4  N   UNL     1       3.620   6.839  17.807  0.00  0.00    +0.000 NA
ATOM      5  C   UNL     1       4.240   5.851  17.118  0.00  0.00    +0.000 A 
ATOM      6  S   UNL     1       5.512   6.159  16.017  0.00  0.00    +0.000 S 
ATOM      7  C   UNL     1       5.677   4.495  15.621  0.00  0.00    +0.000 A 
ATOM      8  C   UNL     1       4.780   3.724  16.332  0.00  0.00    +0.000 A 
ATOM      9  C   UNL     1       3.955   4.512  17.189  0.00  0.00    +0.000 A 
ATOM     10  C   UNL     1       2.917   4.078  18.095  0.00  0.00    +0.000 A 
ATOM     11  O   UNL     1       2.612   2.891  18.182  0.00  0.00    +0.000 OA
BRANCH   7  12
ATOM     12  C   UNL     1       6.711   4.026  14.636  0.00  0.00    +0.000 C 
ATOM     13  C   UNL     1       6.105   3.683  13.282  0.00  0.00    +0.000 C 
ENDBRANCH   7  12
BRANCH   2  14
ATOM     14  C   UNL     1       1.434   4.657  19.913  0.00  0.00    +0.000 C 
BRANCH  14  16
ATOM     15  C   UNL     1       2.302   3.048  21.711  0.00  0.00    +0.000 C 
ATOM     16  C   UNL     1       2.123   4.272  21.195  0.00  0.00    +0.000 C 
ENDBRANCH  14  16
ENDBRANCH   2  14
ENDBRANCH   1   3
BRANCH   1  17
ATOM     17  C   UNL     1       1.996   9.147  18.493  0.00  0.00    +0.000 C 
BRANCH  17  18
ATOM     18  C   UNL     1       0.765  10.048  18.509  0.00  0.00    +0.000 C 
ATOM     19  O   UNL     1      -0.203   9.848  17.764  0.00  0.00    +0.000 OA
BRANCH  18  20
ATOM     20  C   UNL     1       0.721  11.211  19.492  0.00  0.00    +0.000 A 
ATOM     21  C   UNL     1       1.438  12.338  19.251  0.00  0.00    +0.000 A 
ATOM     22  N   UNL     1       1.447  13.360  20.199  0.00  0.00    +0.000 N 
ATOM     23  C   UNL     1       2.245  14.573  20.036  0.00  0.00    +0.000 C 
ATOM     24  C   UNL     1       0.716  13.326  21.387  0.00  0.00    +0.000 A 
ATOM     25  O   UNL     1       0.764  14.248  22.204  0.00  0.00    +0.000 OA
ATOM     26  N   UNL     1      -0.069  12.211  21.591  0.00  0.00    +0.000 N 
ATOM     27  C   UNL     1      -0.897  12.142  22.780  0.00  0.00    +0.000 C 
ATOM     28  C   UNL     1      -0.123  11.149  20.709  0.00  0.00    +0.000 A 
ATOM     29  O   UNL     1      -0.855  10.183  20.924  0.00  0.00    +0.000 OA
BRANCH  21  30
ATOM     30  N   UNL     1       2.152  12.497  18.067  0.00  0.00    +0.000 N 
ATOM     31  H   UNL     1       1.757  11.944  17.294  0.00  0.00    +0.000 HD
ATOM     32  H   UNL     1       3.142  12.304  18.144  0.00  0.00    +0.000 HD
ENDBRANCH  21  30
ENDBRANCH  18  20
ENDBRANCH  17  18
ENDBRANCH   1  17
TORSDOF 8
ENDMDL
MODEL 8
REMARK VINA RESULT:      -7.4      1.356      2.142
REMARK  Name = 
REMARK  11 active torsions:
REMARK  status: ('A' for Active; 'I' for Inactive)
REMARK    1  A    between atoms: C_2  and  C_3
REMARK    2  A    between atoms: C_3  and  N_4
REMARK    3  A    between atoms: C_5  and  S_6
REMARK    4  A    between atoms: S_6  and  C_7
REMARK    5  A    between atoms: C_7  and  C_8
REMARK    6  A    between atoms: C_8  and  C_10
REMARK    7  A    between atoms: C_11  and  N_12
REMARK    8  A    between atoms: N_13  and  C_14
REMARK    9  A    between atoms: N_17  and  C_18
REMARK   10  A    between atoms: C_24  and  C_25
REMARK   11  A    between atoms: C_25  and  C_26
REMARK                            x       y       z     vdW  Elec       q    Type
REMARK                         _______ _______ _______ _____ _____    ______ ____
ROOT
ATOM      1  S   UNL     1       1.347   6.843  20.344  0.00  0.00    +0.000 S 
ENDROOT
BRANCH   1   3
ATOM      2  N   UNL     1       1.965   4.548  19.035  0.00  0.00    +0.000 N 
ATOM      3  C   UNL     1       2.302   5.900  19.198  0.00  0.00    +0.000 A 
ATOM      4  N   UNL     1       3.281   6.501  18.588  0.00  0.00    +0.000 NA
ATOM      5  C   UNL     1       3.979   5.731  17.718  0.00  0.00    +0.000 A 
ATOM      6  S   UNL     1       5.325   6.321  16.845  0.00  0.00    +0.000 S 
ATOM      7  C   UNL     1       5.563   4.819  16.044  0.00  0.00    +0.000 A 
ATOM      8  C   UNL     1       4.632   3.886  16.452  0.00  0.00    +0.000 A 
ATOM      9  C   UNL     1       3.722   4.418  17.413  0.00  0.00    +0.000 A 
ATOM     10  C   UNL     1       2.627   3.759  18.086  0.00  0.00    +0.000 A 
ATOM     11  O   UNL     1       2.347   2.589  17.835  0.00  0.00    +0.000 OA
BRANCH   7  12
ATOM     12  C   UNL     1       6.682   4.628  15.060  0.00  0.00    +0.000 C 
ATOM     13  C   UNL     1       6.218   3.942  13.783  0.00  0.00    +0.000 C 
ENDBRANCH   7  12
BRANCH   2  14
ATOM     14  C   UNL     1       0.992   3.835  19.864  0.00  0.00    +0.000 C 
BRANCH  14  16
ATOM     15  C   UNL     1       2.551   2.623  21.498  0.00  0.00    +0.000 C 
ATOM     16  C   UNL     1       1.512   3.421  21.214  0.00  0.00    +0.000 C 
ENDBRANCH  14  16
ENDBRANCH   2  14
ENDBRANCH   1   3
BRANCH   1  17
ATOM     17  C   UNL     1       2.013   8.525  20.115  0.00  0.00    +0.000 C 
BRANCH  17  18
ATOM     18  C   UNL     1       1.268   9.341  19.063  0.00  0.00    +0.000 C 
ATOM     19  O   UNL     1       1.548   9.269  17.859  0.00  0.00    +0.000 OA
BRANCH  18  20
ATOM     20  C   UNL     1       0.128  10.247  19.511  0.00  0.00    +0.000 A 
ATOM     21  C   UNL     1      -0.931  10.468  18.692  0.00  0.00    +0.000 A 
ATOM     22  N   UNL     1      -1.926  11.361  19.086  0.00  0.00    +0.000 N 
ATOM     23  C   UNL     1      -3.062  11.696  18.231  0.00  0.00    +0.000 C 
ATOM     24  C   UNL     1      -1.935  12.026  20.313  0.00  0.00    +0.000 A 
ATOM     25  O   UNL     1      -2.830  12.818  20.615  0.00  0.00    +0.000 OA
ATOM     26  N   UNL     1      -0.894  11.739  21.172  0.00  0.00    +0.000 N 
ATOM     27  C   UNL     1      -0.877  12.353  22.485  0.00  0.00    +0.000 C 
ATOM     28  C   UNL     1       0.138  10.879  20.852  0.00  0.00    +0.000 A 
ATOM     29  O   UNL     1       1.035  10.637  21.660  0.00  0.00    +0.000 OA
BRANCH  21  30
ATOM     30  N   UNL     1      -1.049   9.807  17.473  0.00  0.00    +0.000 N 
ATOM     31  H   UNL     1      -0.343   9.067  17.359  0.00  0.00    +0.000 HD
ATOM     32  H   UNL     1      -1.032  10.413  16.663  0.00  0.00    +0.000 HD
ENDBRANCH  21  30
ENDBRANCH  18  20
ENDBRANCH  17  18
ENDBRANCH   1  17
TORSDOF 8
ENDMDL
MODEL 9
REMARK VINA RESULT:      -7.2      1.658      1.809
REMARK  Name = 
REMARK  11 active torsions:
REMARK  status: ('A' for Active; 'I' for Inactive)
REMARK    1  A    between atoms: C_2  and  C_3
REMARK    2  A    between atoms: C_3  and  N_4
REMARK    3  A    between atoms: C_5  and  S_6
REMARK    4  A    between atoms: S_6  and  C_7
REMARK    5  A    between atoms: C_7  and  C_8
REMARK    6  A    between atoms: C_8  and  C_10
REMARK    7  A    between atoms: C_11  and  N_12
REMARK    8  A    between atoms: N_13  and  C_14
REMARK    9  A    between atoms: N_17  and  C_18
REMARK   10  A    between atoms: C_24  and  C_25
REMARK   11  A    between atoms: C_25  and  C_26
REMARK                            x       y       z     vdW  Elec       q    Type
REMARK                         _______ _______ _______ _____ _____    ______ ____
ROOT
ATOM      1  S   UNL     1       2.086   7.367  19.652  0.00  0.00    +0.000 S 
ENDROOT
BRANCH   1   3
ATOM      2  N   UNL     1       2.532   4.907  18.596  0.00  0.00    +0.000 N 
ATOM      3  C   UNL     1       2.909   6.258  18.552  0.00  0.00    +0.000 A 
ATOM      4  N   UNL     1       3.836   6.747  17.782  0.00  0.00    +0.000 NA
ATOM      5  C   UNL     1       4.432   5.852  16.957  0.00  0.00    +0.000 A 
ATOM      6  S   UNL     1       5.700   6.285  15.895  0.00  0.00    +0.000 S 
ATOM      7  C   UNL     1       5.831   4.689  15.275  0.00  0.00    +0.000 A 
ATOM      8  C   UNL     1       4.926   3.844  15.883  0.00  0.00    +0.000 A 
ATOM      9  C   UNL     1       4.123   4.520  16.848  0.00  0.00    +0.000 A 
ATOM     10  C   UNL     1       3.085   3.985  17.698  0.00  0.00    +0.000 A 
ATOM     11  O   UNL     1       2.759   2.802  17.626  0.00  0.00    +0.000 OA
BRANCH   7  12
ATOM     12  C   UNL     1       6.847   4.341  14.223  0.00  0.00    +0.000 C 
ATOM     13  C   UNL     1       6.218   3.667  13.012  0.00  0.00    +0.000 C 
ENDBRANCH   7  12
BRANCH   2  14
ATOM     14  C   UNL     1       1.629   4.335  19.595  0.00  0.00    +0.000 C 
BRANCH  14  16
ATOM     15  C   UNL     1       1.790   3.020  21.789  0.00  0.00    +0.000 C 
ATOM     16  C   UNL     1       2.324   3.722  20.781  0.00  0.00    +0.000 C 
ENDBRANCH  14  16
ENDBRANCH   2  14
ENDBRANCH   1   3
BRANCH   1  17
ATOM     17  C   UNL     1       2.206   8.955  18.765  0.00  0.00    +0.000 C 
BRANCH  17  18
ATOM     18  C   UNL     1       0.892   9.728  18.712  0.00  0.00    +0.000 C 
ATOM     19  O   UNL     1       0.014   9.472  17.878  0.00  0.00    +0.000 OA
BRANCH  18  20
ATOM     20  C   UNL     1       0.647  10.828  19.737  0.00  0.00    +0.000 A 
ATOM     21  C   UNL     1      -0.078  10.572  20.855  0.00  0.00    +0.000 A 
ATOM     22  N   UNL     1      -0.358  11.609  21.743  0.00  0.00    +0.000 N 
ATOM     23  C   UNL     1      -1.183  11.421  22.934  0.00  0.00    +0.000 C 
ATOM     24  C   UNL     1       0.105  12.916  21.585  0.00  0.00    +0.000 A 
ATOM     25  O   UNL     1      -0.178  13.806  22.389  0.00  0.00    +0.000 OA
ATOM     26  N   UNL     1       0.904  13.153  20.486  0.00  0.00    +0.000 N 
ATOM     27  C   UNL     1       1.464  14.477  20.296  0.00  0.00    +0.000 C 
ATOM     28  C   UNL     1       1.216  12.184  19.552  0.00  0.00    +0.000 A 
ATOM     29  O   UNL     1       1.950  12.438  18.596  0.00  0.00    +0.000 OA
BRANCH  21  30
ATOM     30  N   UNL     1      -0.534   9.288  21.139  0.00  0.00    +0.000 N 
ATOM     31  H   UNL     1      -1.489   9.125  20.791  0.00  0.00    +0.000 HD
ATOM     32  H   UNL     1      -0.487   9.031  22.116  0.00  0.00    +0.000 HD
ENDBRANCH  21  30
ENDBRANCH  18  20
ENDBRANCH  17  18
ENDBRANCH   1  17
TORSDOF 8
ENDMDL
