MODEL 1
REMARK VINA RESULT:      -8.9      0.000      0.000
REMARK  Name = 
REMARK  4 active torsions:
REMARK  status: ('A' for Active; 'I' for Inactive)
REMARK    1  A    between atoms: C_1  and  N_2
REMARK    2  A    between atoms: C_5  and  N_6
REMARK    3  A    between atoms: N_9  and  C_10
REMARK    4  A    between atoms: C_18  and  C_19
REMARK                            x       y       z     vdW  Elec       q    Type
REMARK                         _______ _______ _______ _____ _____    ______ ____
ROOT
ATOM      1  C   UNL     1       2.109  13.917  19.461  0.00  0.00    +0.000 C 
ATOM      2  N   UNL     1       1.418  12.631  19.465  0.00  0.00    +0.000 N 
ATOM      3  C   UNL     1       1.882  11.638  18.585  0.00  0.00    +0.000 C 
ATOM      4  O   UNL     1       2.798  11.849  17.780  0.00  0.00    +0.000 OA
ATOM      5  C   UNL     1       1.189  10.249  18.684  0.00  0.00    +0.000 C 
ATOM      6  N   UNL     1      -0.124  10.370  18.077  0.00  0.00    +0.000 NA
ATOM      7  C   UNL     1      -1.025  11.025  18.729  0.00  0.00    +0.000 C 
ATOM      8  C   UNL     1      -0.813  11.661  20.069  0.00  0.00    +0.000 A 
ATOM      9  C   UNL     1      -1.840  11.510  21.024  0.00  0.00    +0.000 A 
ATOM     10  C   UNL     1      -1.793  12.185  22.241  0.00  0.00    +0.000 A 
ATOM     11  C   UNL     1      -0.708  12.999  22.529  0.00  0.00    +0.000 A 
ATOM     12  C   UNL     1       0.332  13.130  21.603  0.00  0.00    +0.000 A 
ATOM     13  C   UNL     1       0.314  12.458  20.363  0.00  0.00    +0.000 A 
ENDROOT
BRANCH   5  14
ATOM     14  N   UNL     1       1.885   9.249  17.906  0.00  0.00    +0.000 N 
ATOM     15  C   UNL     1       2.317   8.117  18.536  0.00  0.00    +0.000 C 
ATOM     16  O   UNL     1       1.994   7.880  19.697  0.00  0.00    +0.000 OA
ATOM     17  N   UNL     1       3.093   7.302  17.741  0.00  0.00    +0.000 N 
ATOM     18  H   UNL     1       2.280   9.561  17.036  0.00  0.00    +0.000 HD
ATOM     19  H   UNL     1       3.588   7.766  16.993  0.00  0.00    +0.000 HD
BRANCH  17  20
ATOM     20  C   UNL     1       3.535   6.017  18.141  0.00  0.00    +0.000 A 
ATOM     21  C   UNL     1       2.743   4.879  18.008  0.00  0.00    +0.000 A 
ATOM     22  C   UNL     1       3.186   3.657  18.503  0.00  0.00    +0.000 A 
ATOM     23  C   UNL     1       4.424   3.593  19.117  0.00  0.00    +0.000 A 
ATOM     24  N   UNL     1       4.863   2.390  19.665  0.00  0.00    +0.000 N 
ATOM     25  N   UNL     1       5.252   4.649  19.191  0.00  0.00    +0.000 NA
ATOM     26  C   UNL     1       4.796   5.832  18.695  0.00  0.00    +0.000 A 
ATOM     27  H   UNL     1       4.172   2.006  20.300  0.00  0.00    +0.000 HD
ATOM     28  H   UNL     1       5.745   2.577  20.133  0.00  0.00    +0.000 HD
ENDBRANCH  17  20
ENDBRANCH   5  14
BRANCH   7  29
ATOM     29  C   UNL     1      -2.372  11.126  18.078  0.00  0.00    +0.000 A 
ATOM     30  C   UNL     1      -2.537  10.576  16.799  0.00  0.00    +0.000 A 
ATOM     31  C   UNL     1      -3.771  10.651  16.155  0.00  0.00    +0.000 A 
ATOM     32  C   UNL     1      -4.846  11.275  16.784  0.00  0.00    +0.000 A 
ATOM     33  C   UNL     1      -4.686  11.836  18.051  0.00  0.00    +0.000 A 
ATOM     34  C   UNL     1      -3.449  11.773  18.696  0.00  0.00    +0.000 A 
ENDBRANCH   7  29
TORSDOF 3
ENDMDL
MODEL 2
REMARK VINA RESULT:      -8.5      0.628      1.269
REMARK  Name = 
REMARK  4 active torsions:
REMARK  status: ('A' for Active; 'I' for Inactive)
REMARK    1  A    between atoms: C_1  and  N_2
REMARK    2  A    between atoms: C_5  and  N_6
REMARK    3  A    between atoms: N_9  and  C_10
REMARK    4  A    between atoms: C_18  and  C_19
REMARK                            x       y       z     vdW  Elec       q    Type
REMARK                         _______ _______ _______ _____ _____    ______ ____
ROOT
ATOM      1  C   UNL     1       2.256  13.566  19.298  0.00  0.00    +0.000 C 
ATOM      2  N   UNL     1       1.447  12.354  19.377  0.00  0.00    +0.000 N 
ATOM      3  C   UNL     1       1.821  11.265  18.570  0.00  0.00    +0.000 C 
ATOM      4  O   UNL     1       2.758  11.336  17.764  0.00  0.00    +0.000 OA
ATOM      5  C   UNL     1       0.999   9.957  18.751  0.00  0.00    +0.000 C 
ATOM      6  N   UNL     1      -0.292  10.160  18.121  0.00  0.00    +0.000 NA
ATOM      7  C   UNL     1      -1.132  10.938  18.717  0.00  0.00    +0.000 C 
ATOM      8  C   UNL     1      -0.869  11.639  20.015  0.00  0.00    +0.000 A 
ATOM      9  C   UNL     1      -1.912  11.649  20.965  0.00  0.00    +0.000 A 
ATOM     10  C   UNL     1      -1.809  12.395  22.136  0.00  0.00    +0.000 A 
ATOM     11  C   UNL     1      -0.654  13.122  22.383  0.00  0.00    +0.000 A 
ATOM     12  C   UNL     1       0.399  13.093  21.463  0.00  0.00    +0.000 A 
ATOM     13  C   UNL     1       0.326  12.344  20.271  0.00  0.00    +0.000 A 
ENDROOT
BRANCH   5  14
ATOM     14  N   UNL     1       1.603   8.847  18.049  0.00  0.00    +0.000 N 
ATOM     15  C   UNL     1       2.185   7.851  18.780  0.00  0.00    +0.000 C 
ATOM     16  O   UNL     1       2.069   7.818  20.002  0.00  0.00    +0.000 OA
ATOM     17  N   UNL     1       2.855   6.922  18.016  0.00  0.00    +0.000 N 
ATOM     18  H   UNL     1       1.834   9.007  17.084  0.00  0.00    +0.000 HD
ATOM     19  H   UNL     1       3.199   7.254  17.126  0.00  0.00    +0.000 HD
BRANCH  17  20
ATOM     20  C   UNL     1       3.416   5.735  18.549  0.00  0.00    +0.000 A 
ATOM     21  C   UNL     1       4.790   5.511  18.591  0.00  0.00    +0.000 A 
ATOM     22  C   UNL     1       5.286   4.289  19.037  0.00  0.00    +0.000 A 
ATOM     23  C   UNL     1       4.394   3.313  19.443  0.00  0.00    +0.000 A 
ATOM     24  N   UNL     1       4.869   2.066  19.843  0.00  0.00    +0.000 N 
ATOM     25  N   UNL     1       3.067   3.520  19.495  0.00  0.00    +0.000 NA
ATOM     26  C   UNL     1       2.608   4.724  19.058  0.00  0.00    +0.000 A 
ATOM     27  H   UNL     1       5.481   1.667  19.140  0.00  0.00    +0.000 HD
ATOM     28  H   UNL     1       4.060   1.479  20.019  0.00  0.00    +0.000 HD
ENDBRANCH  17  20
ENDBRANCH   5  14
BRANCH   7  29
ATOM     29  C   UNL     1      -2.459  11.121  18.044  0.00  0.00    +0.000 A 
ATOM     30  C   UNL     1      -3.483  11.765  18.753  0.00  0.00    +0.000 A 
ATOM     31  C   UNL     1      -4.734  11.953  18.167  0.00  0.00    +0.000 A 
ATOM     32  C   UNL     1      -4.968  11.500  16.870  0.00  0.00    +0.000 A 
ATOM     33  C   UNL     1      -3.959  10.848  16.163  0.00  0.00    +0.000 A 
ATOM     34  C   UNL     1      -2.707  10.648  16.750  0.00  0.00    +0.000 A 
ENDBRANCH   7  29
TORSDOF 3
ENDMDL
MODEL 3
REMARK VINA RESULT:      -8.2      3.276      7.397
REMARK  Name = 
REMARK  4 active torsions:
REMARK  status: ('A' for Active; 'I' for Inactive)
REMARK    1  A    between atoms: C_1  and  N_2
REMARK    2  A    between atoms: C_5  and  N_6
REMARK    3  A    between atoms: N_9  and  C_10
REMARK    4  A    between atoms: C_18  and  C_19
REMARK                            x       y       z     vdW  Elec       q    Type
REMARK                         _______ _______ _______ _____ _____    ______ ____
ROOT
ATOM      1  C   UNL     1      -2.574  11.992  19.471  0.00  0.00    +0.000 C 
ATOM      2  N   UNL     1      -1.143  11.811  19.689  0.00  0.00    +0.000 N 
ATOM      3  C   UNL     1      -0.263  12.359  18.740  0.00  0.00    +0.000 C 
ATOM      4  O   UNL     1      -0.670  12.918  17.713  0.00  0.00    +0.000 OA
ATOM      5  C   UNL     1       1.255  12.235  19.053  0.00  0.00    +0.000 C 
ATOM      6  N   UNL     1       1.640  10.855  18.819  0.00  0.00    +0.000 NA
ATOM      7  C   UNL     1       1.246   9.972  19.675  0.00  0.00    +0.000 C 
ATOM      8  C   UNL     1       0.428  10.273  20.893  0.00  0.00    +0.000 A 
ATOM      9  C   UNL     1       0.797   9.629  22.093  0.00  0.00    +0.000 A 
ATOM     10  C   UNL     1       0.011   9.737  23.237  0.00  0.00    +0.000 A 
ATOM     11  C   UNL     1      -1.141  10.509  23.203  0.00  0.00    +0.000 A 
ATOM     12  C   UNL     1      -1.499  11.179  22.029  0.00  0.00    +0.000 A 
ATOM     13  C   UNL     1      -0.721  11.091  20.855  0.00  0.00    +0.000 A 
ENDROOT
BRANCH   5  14
ATOM     14  N   UNL     1       2.054  13.020  18.139  0.00  0.00    +0.000 N 
ATOM     15  C   UNL     1       3.060  13.790  18.648  0.00  0.00    +0.000 C 
ATOM     16  O   UNL     1       3.381  13.705  19.831  0.00  0.00    +0.000 OA
ATOM     17  N   UNL     1       3.660  14.606  17.715  0.00  0.00    +0.000 N 
ATOM     18  H   UNL     1       1.647  13.199  17.238  0.00  0.00    +0.000 HD
ATOM     19  H   UNL     1       3.084  14.865  16.927  0.00  0.00    +0.000 HD
BRANCH  17  20
ATOM     20  C   UNL     1       4.810  15.386  17.988  0.00  0.00    +0.000 A 
ATOM     21  C   UNL     1       6.104  14.902  17.807  0.00  0.00    +0.000 A 
ATOM     22  C   UNL     1       7.199  15.675  18.180  0.00  0.00    +0.000 A 
ATOM     23  C   UNL     1       6.980  16.928  18.722  0.00  0.00    +0.000 A 
ATOM     24  N   UNL     1       8.061  17.696  19.150  0.00  0.00    +0.000 N 
ATOM     25  N   UNL     1       5.752  17.464  18.836  0.00  0.00    +0.000 NA
ATOM     26  C   UNL     1       4.699  16.689  18.460  0.00  0.00    +0.000 A 
ATOM     27  H   UNL     1       8.650  17.170  19.787  0.00  0.00    +0.000 HD
ATOM     28  H   UNL     1       7.683  18.531  19.584  0.00  0.00    +0.000 HD
ENDBRANCH  17  20
ENDBRANCH   5  14
BRANCH   7  29
ATOM     29  C   UNL     1       1.666   8.557  19.408  0.00  0.00    +0.000 A 
ATOM     30  C   UNL     1       2.108   8.225  18.120  0.00  0.00    +0.000 A 
ATOM     31  C   UNL     1       2.504   6.921  17.827  0.00  0.00    +0.000 A 
ATOM     32  C   UNL     1       2.459   5.942  18.818  0.00  0.00    +0.000 A 
ATOM     33  C   UNL     1       2.008   6.263  20.099  0.00  0.00    +0.000 A 
ATOM     34  C   UNL     1       1.601   7.565  20.394  0.00  0.00    +0.000 A 
ENDBRANCH   7  29
TORSDOF 3
ENDMDL
MODEL 4
REMARK VINA RESULT:      -7.8      4.510      6.752
REMARK  Name = 
REMARK  4 active torsions:
REMARK  status: ('A' for Active; 'I' for Inactive)
REMARK    1  A    between atoms: C_1  and  N_2
REMARK    2  A    between atoms: C_5  and  N_6
REMARK    3  A    between atoms: N_9  and  C_10
REMARK    4  A    between atoms: C_18  and  C_19
REMARK                            x       y       z     vdW  Elec       q    Type
REMARK                         _______ _______ _______ _____ _____    ______ ____
ROOT
ATOM      1  C   UNL     1      -1.197  13.565  23.124  0.00  0.00    +0.000 C 
ATOM      2  N   UNL     1      -0.584  13.021  21.916  0.00  0.00    +0.000 N 
ATOM      3  C   UNL     1      -0.060  13.932  20.983  0.00  0.00    +0.000 C 
ATOM      4  O   UNL     1      -0.166  15.156  21.128  0.00  0.00    +0.000 OA
ATOM      5  C   UNL     1       0.673  13.319  19.755  0.00  0.00    +0.000 C 
ATOM      6  N   UNL     1      -0.338  12.775  18.867  0.00  0.00    +0.000 NA
ATOM      7  C   UNL     1      -0.934  11.690  19.233  0.00  0.00    +0.000 C 
ATOM      8  C   UNL     1      -0.650  10.951  20.506  0.00  0.00    +0.000 A 
ATOM      9  C   UNL     1      -0.569   9.545  20.429  0.00  0.00    +0.000 A 
ATOM     10  C   UNL     1      -0.452   8.769  21.579  0.00  0.00    +0.000 A 
ATOM     11  C   UNL     1      -0.389   9.389  22.818  0.00  0.00    +0.000 A 
ATOM     12  C   UNL     1      -0.436  10.784  22.902  0.00  0.00    +0.000 A 
ATOM     13  C   UNL     1      -0.551  11.597  21.755  0.00  0.00    +0.000 A 
ENDROOT
BRANCH   5  14
ATOM     14  N   UNL     1       1.362  14.329  18.985  0.00  0.00    +0.000 N 
ATOM     15  C   UNL     1       2.701  14.503  19.188  0.00  0.00    +0.000 C 
ATOM     16  O   UNL     1       3.338  13.724  19.892  0.00  0.00    +0.000 OA
ATOM     17  N   UNL     1       3.228  15.584  18.516  0.00  0.00    +0.000 N 
ATOM     18  H   UNL     1       0.785  15.044  18.578  0.00  0.00    +0.000 HD
ATOM     19  H   UNL     1       2.578  16.330  18.312  0.00  0.00    +0.000 HD
BRANCH  17  20
ATOM     20  C   UNL     1       4.614  15.873  18.471  0.00  0.00    +0.000 A 
ATOM     21  C   UNL     1       5.544  14.992  17.925  0.00  0.00    +0.000 A 
ATOM     22  C   UNL     1       6.904  15.281  17.992  0.00  0.00    +0.000 A 
ATOM     23  C   UNL     1       7.309  16.456  18.599  0.00  0.00    +0.000 A 
ATOM     24  N   UNL     1       8.668  16.738  18.722  0.00  0.00    +0.000 N 
ATOM     25  N   UNL     1       6.440  17.369  19.064  0.00  0.00    +0.000 NA
ATOM     26  C   UNL     1       5.116  17.065  18.983  0.00  0.00    +0.000 A 
ATOM     27  H   UNL     1       9.161  15.966  19.157  0.00  0.00    +0.000 HD
ATOM     28  H   UNL     1       8.749  17.593  19.262  0.00  0.00    +0.000 HD
ENDBRANCH  17  20
ENDBRANCH   5  14
BRANCH   7  29
ATOM     29  C   UNL     1      -1.968  11.151  18.291  0.00  0.00    +0.000 A 
ATOM     30  C   UNL     1      -1.557  10.264  17.286  0.00  0.00    +0.000 A 
ATOM     31  C   UNL     1      -2.485   9.742  16.386  0.00  0.00    +0.000 A 
ATOM     32  C   UNL     1      -3.827  10.103  16.484  0.00  0.00    +0.000 A 
ATOM     33  C   UNL     1      -4.241  10.995  17.473  0.00  0.00    +0.000 A 
ATOM     34  C   UNL     1      -3.314  11.529  18.371  0.00  0.00    +0.000 A 
ENDBRANCH   7  29
TORSDOF 3
ENDMDL
MODEL 5
REMARK VINA RESULT:      -7.6      4.910      7.045
REMARK  Name = 
REMARK  4 active torsions:
REMARK  status: ('A' for Active; 'I' for Inactive)
REMARK    1  A    between atoms: C_1  and  N_2
REMARK    2  A    between atoms: C_5  and  N_6
REMARK    3  A    between atoms: N_9  and  C_10
REMARK    4  A    between atoms: C_18  and  C_19
REMARK                            x       y       z     vdW  Elec       q    Type
REMARK                         _______ _______ _______ _____ _____    ______ ____
ROOT
ATOM      1  C   UNL     1       1.024  18.242  18.397  0.00  0.00    +0.000 C 
ATOM      2  N   UNL     1       1.676  16.989  18.763  0.00  0.00    +0.000 N 
ATOM      3  C   UNL     1       2.707  16.522  17.930  0.00  0.00    +0.000 C 
ATOM      4  O   UNL     1       3.018  17.101  16.881  0.00  0.00    +0.000 OA
ATOM      5  C   UNL     1       3.447  15.237  18.401  0.00  0.00    +0.000 C 
ATOM      6  N   UNL     1       2.560  14.111  18.171  0.00  0.00    +0.000 NA
ATOM      7  C   UNL     1       1.542  13.983  18.955  0.00  0.00    +0.000 C 
ATOM      8  C   UNL     1       1.216  14.911  20.086  0.00  0.00    +0.000 A 
ATOM      9  C   UNL     1       0.800  14.325  21.299  0.00  0.00    +0.000 A 
ATOM     10  C   UNL     1       0.342  15.109  22.355  0.00  0.00    +0.000 A 
ATOM     11  C   UNL     1       0.317  16.489  22.219  0.00  0.00    +0.000 A 
ATOM     12  C   UNL     1       0.758  17.082  21.032  0.00  0.00    +0.000 A 
ATOM     13  C   UNL     1       1.231  16.315  19.947  0.00  0.00    +0.000 A 
ENDROOT
BRANCH   5  14
ATOM     14  N   UNL     1       4.621  14.974  17.601  0.00  0.00    +0.000 N 
ATOM     15  C   UNL     1       5.826  14.850  18.232  0.00  0.00    +0.000 C 
ATOM     16  O   UNL     1       5.894  14.811  19.457  0.00  0.00    +0.000 OA
ATOM     17  N   UNL     1       6.895  14.749  17.370  0.00  0.00    +0.000 N 
ATOM     18  H   UNL     1       4.550  15.198  16.624  0.00  0.00    +0.000 HD
ATOM     19  H   UNL     1       6.766  15.171  16.462  0.00  0.00    +0.000 HD
BRANCH  17  20
ATOM     20  C   UNL     1       8.218  14.477  17.799  0.00  0.00    +0.000 A 
ATOM     21  C   UNL     1       9.111  15.486  18.151  0.00  0.00    +0.000 A 
ATOM     22  C   UNL     1      10.428  15.173  18.474  0.00  0.00    +0.000 A 
ATOM     23  C   UNL     1      10.827  13.849  18.448  0.00  0.00    +0.000 A 
ATOM     24  N   UNL     1      12.154  13.520  18.718  0.00  0.00    +0.000 N 
ATOM     25  N   UNL     1       9.975  12.840  18.194  0.00  0.00    +0.000 NA
ATOM     26  C   UNL     1       8.692  13.173  17.885  0.00  0.00    +0.000 A 
ATOM     27  H   UNL     1      12.786  14.056  18.134  0.00  0.00    +0.000 HD
ATOM     28  H   UNL     1      12.252  12.521  18.567  0.00  0.00    +0.000 HD
ENDBRANCH  17  20
ENDBRANCH   5  14
BRANCH   7  29
ATOM     29  C   UNL     1       0.649  12.807  18.695  0.00  0.00    +0.000 A 
ATOM     30  C   UNL     1       1.178  11.519  18.866  0.00  0.00    +0.000 A 
ATOM     31  C   UNL     1       0.384  10.397  18.632  0.00  0.00    +0.000 A 
ATOM     32  C   UNL     1      -0.939  10.555  18.226  0.00  0.00    +0.000 A 
ATOM     33  C   UNL     1      -1.468  11.832  18.042  0.00  0.00    +0.000 A 
ATOM     34  C   UNL     1      -0.674  12.959  18.265  0.00  0.00    +0.000 A 
ENDBRANCH   7  29
TORSDOF 3
ENDMDL
MODEL 6
REMARK VINA RESULT:      -7.6      4.556      7.121
REMARK  Name = 
REMARK  4 active torsions:
REMARK  status: ('A' for Active; 'I' for Inactive)
REMARK    1  A    between atoms: C_1  and  N_2
REMARK    2  A    between atoms: C_5  and  N_6
REMARK    3  A    between atoms: N_9  and  C_10
REMARK    4  A    between atoms: C_18  and  C_19
REMARK                            x       y       z     vdW  Elec       q    Type
REMARK                         _______ _______ _______ _____ _____    ______ ____
ROOT
ATOM      1  C   UNL     1      -1.601  13.276  23.415  0.00  0.00    +0.000 C 
ATOM      2  N   UNL     1      -0.882  12.891  22.204  0.00  0.00    +0.000 N 
ATOM      3  C   UNL     1      -0.424  13.919  21.362  0.00  0.00    +0.000 C 
ATOM      4  O   UNL     1      -0.672  15.111  21.586  0.00  0.00    +0.000 OA
ATOM      5  C   UNL     1       0.423  13.481  20.134  0.00  0.00    +0.000 C 
ATOM      6  N   UNL     1      -0.484  12.897  19.162  0.00  0.00    +0.000 NA
ATOM      7  C   UNL     1      -0.969  11.730  19.423  0.00  0.00    +0.000 C 
ATOM      8  C   UNL     1      -0.657  10.935  20.655  0.00  0.00    +0.000 A 
ATOM      9  C   UNL     1      -0.417   9.555  20.486  0.00  0.00    +0.000 A 
ATOM     10  C   UNL     1      -0.261   8.714  21.585  0.00  0.00    +0.000 A 
ATOM     11  C   UNL     1      -0.320   9.246  22.865  0.00  0.00    +0.000 A 
ATOM     12  C   UNL     1      -0.525  10.617  23.042  0.00  0.00    +0.000 A 
ATOM     13  C   UNL     1      -0.683  11.494  21.949  0.00  0.00    +0.000 A 
ENDROOT
BRANCH   5  14
ATOM     14  N   UNL     1       1.026  14.614  19.470  0.00  0.00    +0.000 N 
ATOM     15  C   UNL     1       2.365  14.826  19.628  0.00  0.00    +0.000 C 
ATOM     16  O   UNL     1       3.072  13.995  20.193  0.00  0.00    +0.000 OA
ATOM     17  N   UNL     1       2.808  16.008  19.077  0.00  0.00    +0.000 N 
ATOM     18  H   UNL     1       0.398  15.346  19.187  0.00  0.00    +0.000 HD
ATOM     19  H   UNL     1       2.118  16.742  19.004  0.00  0.00    +0.000 HD
BRANCH  17  20
ATOM     20  C   UNL     1       4.177  16.368  19.004  0.00  0.00    +0.000 A 
ATOM     21  C   UNL     1       5.112  15.613  18.300  0.00  0.00    +0.000 A 
ATOM     22  C   UNL     1       6.460  15.957  18.339  0.00  0.00    +0.000 A 
ATOM     23  C   UNL     1       6.848  17.060  19.076  0.00  0.00    +0.000 A 
ATOM     24  N   UNL     1       8.199  17.390  19.169  0.00  0.00    +0.000 N 
ATOM     25  N   UNL     1       5.968  17.861  19.701  0.00  0.00    +0.000 NA
ATOM     26  C   UNL     1       4.656  17.506  19.644  0.00  0.00    +0.000 A 
ATOM     27  H   UNL     1       8.747  16.593  19.473  0.00  0.00    +0.000 HD
ATOM     28  H   UNL     1       8.274  18.170  19.814  0.00  0.00    +0.000 HD
ENDBRANCH  17  20
ENDBRANCH   5  14
BRANCH   7  29
ATOM     29  C   UNL     1      -1.897  11.153  18.397  0.00  0.00    +0.000 A 
ATOM     30  C   UNL     1      -3.252  11.508  18.448  0.00  0.00    +0.000 A 
ATOM     31  C   UNL     1      -4.150  10.992  17.516  0.00  0.00    +0.000 A 
ATOM     32  C   UNL     1      -3.700  10.119  16.528  0.00  0.00    +0.000 A 
ATOM     33  C   UNL     1      -2.356   9.751  16.478  0.00  0.00    +0.000 A 
ATOM     34  C   UNL     1      -1.454  10.257  17.416  0.00  0.00    +0.000 A 
ENDBRANCH   7  29
TORSDOF 3
ENDMDL
MODEL 7
REMARK VINA RESULT:      -7.6      1.339      1.783
REMARK  Name = 
REMARK  4 active torsions:
REMARK  status: ('A' for Active; 'I' for Inactive)
REMARK    1  A    between atoms: C_1  and  N_2
REMARK    2  A    between atoms: C_5  and  N_6
REMARK    3  A    between atoms: N_9  and  C_10
REMARK    4  A    between atoms: C_18  and  C_19
REMARK                            x       y       z     vdW  Elec       q    Type
REMARK                         _______ _______ _______ _____ _____    ______ ____
ROOT
ATOM      1  C   UNL     1       0.887  14.979  20.027  0.00  0.00    +0.000 C 
ATOM      2  N   UNL     1       0.292  13.646  20.040  0.00  0.00    +0.000 N 
ATOM      3  C   UNL     1       0.700  12.739  19.047  0.00  0.00    +0.000 C 
ATOM      4  O   UNL     1       1.482  13.062  18.144  0.00  0.00    +0.000 OA
ATOM      5  C   UNL     1       0.122  11.299  19.148  0.00  0.00    +0.000 C 
ATOM      6  N   UNL     1      -1.266  11.352  18.727  0.00  0.00    +0.000 NA
ATOM      7  C   UNL     1      -2.114  11.901  19.531  0.00  0.00    +0.000 C 
ATOM      8  C   UNL     1      -1.765  12.480  20.869  0.00  0.00    +0.000 A 
ATOM      9  C   UNL     1      -2.642  12.201  21.939  0.00  0.00    +0.000 A 
ATOM     10  C   UNL     1      -2.476  12.811  23.179  0.00  0.00    +0.000 A 
ATOM     11  C   UNL     1      -1.420  13.689  23.373  0.00  0.00    +0.000 A 
ATOM     12  C   UNL     1      -0.527  13.947  22.329  0.00  0.00    +0.000 A 
ATOM     13  C   UNL     1      -0.666  13.342  21.063  0.00  0.00    +0.000 A 
ENDROOT
BRANCH   5  14
ATOM     14  N   UNL     1       0.773  10.397  18.224  0.00  0.00    +0.000 N 
ATOM     15  C   UNL     1       1.500   9.358  18.730  0.00  0.00    +0.000 C 
ATOM     16  O   UNL     1       1.480   9.101  19.931  0.00  0.00    +0.000 OA
ATOM     17  N   UNL     1       2.195   8.651  17.774  0.00  0.00    +0.000 N 
ATOM     18  H   UNL     1       0.914  10.745  17.292  0.00  0.00    +0.000 HD
ATOM     19  H   UNL     1       2.437   9.166  16.940  0.00  0.00    +0.000 HD
BRANCH  17  20
ATOM     20  C   UNL     1       2.904   7.456  18.052  0.00  0.00    +0.000 A 
ATOM     21  C   UNL     1       4.032   7.071  17.331  0.00  0.00    +0.000 A 
ATOM     22  C   UNL     1       4.636   5.843  17.581  0.00  0.00    +0.000 A 
ATOM     23  C   UNL     1       4.104   5.022  18.558  0.00  0.00    +0.000 A 
ATOM     24  N   UNL     1       4.663   3.766  18.787  0.00  0.00    +0.000 N 
ATOM     25  N   UNL     1       3.068   5.392  19.331  0.00  0.00    +0.000 NA
ATOM     26  C   UNL     1       2.498   6.600  19.069  0.00  0.00    +0.000 A 
ATOM     27  H   UNL     1       4.729   3.236  17.925  0.00  0.00    +0.000 HD
ATOM     28  H   UNL     1       4.081   3.300  19.476  0.00  0.00    +0.000 HD
ENDBRANCH  17  20
ENDBRANCH   5  14
BRANCH   7  29
ATOM     29  C   UNL     1      -3.540  11.935  19.070  0.00  0.00    +0.000 A 
ATOM     30  C   UNL     1      -3.883  11.218  17.915  0.00  0.00    +0.000 A 
ATOM     31  C   UNL     1      -5.197  11.224  17.448  0.00  0.00    +0.000 A 
ATOM     32  C   UNL     1      -6.173  11.947  18.131  0.00  0.00    +0.000 A 
ATOM     33  C   UNL     1      -5.836  12.672  19.273  0.00  0.00    +0.000 A 
ATOM     34  C   UNL     1      -4.520  12.677  19.739  0.00  0.00    +0.000 A 
ENDBRANCH   7  29
TORSDOF 3
ENDMDL
MODEL 8
REMARK VINA RESULT:      -7.5      4.807      6.375
REMARK  Name = 
REMARK  4 active torsions:
REMARK  status: ('A' for Active; 'I' for Inactive)
REMARK    1  A    between atoms: C_1  and  N_2
REMARK    2  A    between atoms: C_5  and  N_6
REMARK    3  A    between atoms: N_9  and  C_10
REMARK    4  A    between atoms: C_18  and  C_19
REMARK                            x       y       z     vdW  Elec       q    Type
REMARK                         _______ _______ _______ _____ _____    ______ ____
ROOT
ATOM      1  C   UNL     1      -0.876  16.879  20.503  0.00  0.00    +0.000 C 
ATOM      2  N   UNL     1      -0.213  15.601  20.263  0.00  0.00    +0.000 N 
ATOM      3  C   UNL     1       0.726  15.539  19.220  0.00  0.00    +0.000 C 
ATOM      4  O   UNL     1       0.946  16.502  18.475  0.00  0.00    +0.000 OA
ATOM      5  C   UNL     1       1.487  14.192  19.055  0.00  0.00    +0.000 C 
ATOM      6  N   UNL     1       0.564  13.236  18.470  0.00  0.00    +0.000 NA
ATOM      7  C   UNL     1      -0.377  12.776  19.224  0.00  0.00    +0.000 C 
ATOM      8  C   UNL     1      -0.579  13.154  20.660  0.00  0.00    +0.000 A 
ATOM      9  C   UNL     1      -0.888  12.115  21.562  0.00  0.00    +0.000 A 
ATOM     10  C   UNL     1      -1.231  12.390  22.883  0.00  0.00    +0.000 A 
ATOM     11  C   UNL     1      -1.246  13.704  23.325  0.00  0.00    +0.000 A 
ATOM     12  C   UNL     1      -0.910  14.740  22.448  0.00  0.00    +0.000 A 
ATOM     13  C   UNL     1      -0.555  14.492  21.105  0.00  0.00    +0.000 A 
ENDROOT
BRANCH   5  14
ATOM     14  N   UNL     1       2.576  14.306  18.111  0.00  0.00    +0.000 N 
ATOM     15  C   UNL     1       3.843  14.466  18.594  0.00  0.00    +0.000 C 
ATOM     16  O   UNL     1       4.077  14.363  19.796  0.00  0.00    +0.000 OA
ATOM     17  N   UNL     1       4.782  14.711  17.617  0.00  0.00    +0.000 N 
ATOM     18  H   UNL     1       2.324  14.568  17.174  0.00  0.00    +0.000 HD
ATOM     19  H   UNL     1       4.432  15.144  16.774  0.00  0.00    +0.000 HD
BRANCH  17  20
ATOM     20  C   UNL     1       6.174  14.774  17.873  0.00  0.00    +0.000 A 
ATOM     21  C   UNL     1       7.032  13.709  17.607  0.00  0.00    +0.000 A 
ATOM     22  C   UNL     1       8.374  13.787  17.965  0.00  0.00    +0.000 A 
ATOM     23  C   UNL     1       8.838  14.937  18.577  0.00  0.00    +0.000 A 
ATOM     24  N   UNL     1      10.167  15.013  18.990  0.00  0.00    +0.000 N 
ATOM     25  N   UNL     1       8.062  16.016  18.775  0.00  0.00    +0.000 NA
ATOM     26  C   UNL     1       6.754  15.916  18.412  0.00  0.00    +0.000 A 
ATOM     27  H   UNL     1      10.413  14.220  19.571  0.00  0.00    +0.000 HD
ATOM     28  H   UNL     1      10.278  15.894  19.482  0.00  0.00    +0.000 HD
ENDBRANCH  17  20
ENDBRANCH   5  14
BRANCH   7  29
ATOM     29  C   UNL     1      -1.309  11.786  18.592  0.00  0.00    +0.000 A 
ATOM     30  C   UNL     1      -2.689  12.021  18.678  0.00  0.00    +0.000 A 
ATOM     31  C   UNL     1      -3.591  11.125  18.108  0.00  0.00    +0.000 A 
ATOM     32  C   UNL     1      -3.121   9.990  17.449  0.00  0.00    +0.000 A 
ATOM     33  C   UNL     1      -1.751   9.744  17.370  0.00  0.00    +0.000 A 
ATOM     34  C   UNL     1      -0.843  10.633  17.949  0.00  0.00    +0.000 A 
ENDBRANCH   7  29
TORSDOF 3
ENDMDL
MODEL 9
REMARK VINA RESULT:      -7.3      5.077      6.866
REMARK  Name = 
REMARK  4 active torsions:
REMARK  status: ('A' for Active; 'I' for Inactive)
REMARK    1  A    between atoms: C_1  and  N_2
REMARK    2  A    between atoms: C_5  and  N_6
REMARK    3  A    between atoms: N_9  and  C_10
REMARK    4  A    between atoms: C_18  and  C_19
REMARK                            x       y       z     vdW  Elec       q    Type
REMARK                         _______ _______ _______ _____ _____    ______ ____
ROOT
ATOM      1  C   UNL     1      -2.831  16.570  21.166  0.00  0.00    +0.000 C 
ATOM      2  N   UNL     1      -1.849  15.556  20.794  0.00  0.00    +0.000 N 
ATOM      3  C   UNL     1      -0.931  15.877  19.779  0.00  0.00    +0.000 C 
ATOM      4  O   UNL     1      -0.982  16.949  19.163  0.00  0.00    +0.000 OA
ATOM      5  C   UNL     1       0.163  14.814  19.476  0.00  0.00    +0.000 C 
ATOM      6  N   UNL     1      -0.470  13.727  18.753  0.00  0.00    +0.000 NA
ATOM      7  C   UNL     1      -1.250  12.941  19.418  0.00  0.00    +0.000 C 
ATOM      8  C   UNL     1      -1.540  13.071  20.883  0.00  0.00    +0.000 A 
ATOM      9  C   UNL     1      -1.555  11.883  21.643  0.00  0.00    +0.000 A 
ATOM     10  C   UNL     1      -1.954  11.890  22.977  0.00  0.00    +0.000 A 
ATOM     11  C   UNL     1      -2.322  13.087  23.573  0.00  0.00    +0.000 A 
ATOM     12  C   UNL     1      -2.280  14.275  22.837  0.00  0.00    +0.000 A 
ATOM     13  C   UNL     1      -1.876  14.300  21.486  0.00  0.00    +0.000 A 
ENDROOT
BRANCH   5  14
ATOM     14  N   UNL     1       1.178  15.332  18.586  0.00  0.00    +0.000 N 
ATOM     15  C   UNL     1       2.484  15.269  18.979  0.00  0.00    +0.000 C 
ATOM     16  O   UNL     1       2.808  14.653  19.991  0.00  0.00    +0.000 OA
ATOM     17  N   UNL     1       3.351  15.919  18.129  0.00  0.00    +0.000 N 
ATOM     18  H   UNL     1       0.862  15.975  17.882  0.00  0.00    +0.000 HD
ATOM     19  H   UNL     1       2.951  16.675  17.592  0.00  0.00    +0.000 HD
BRANCH  17  20
ATOM     20  C   UNL     1       4.760  15.868  18.266  0.00  0.00    +0.000 A 
ATOM     21  C   UNL     1       5.490  16.891  18.866  0.00  0.00    +0.000 A 
ATOM     22  C   UNL     1       6.880  16.836  18.890  0.00  0.00    +0.000 A 
ATOM     23  C   UNL     1       7.518  15.750  18.319  0.00  0.00    +0.000 A 
ATOM     24  N   UNL     1       8.910  15.702  18.287  0.00  0.00    +0.000 N 
ATOM     25  N   UNL     1       6.847  14.705  17.804  0.00  0.00    +0.000 NA
ATOM     26  C   UNL     1       5.489  14.781  17.797  0.00  0.00    +0.000 A 
ATOM     27  H   UNL     1       9.293  16.548  17.880  0.00  0.00    +0.000 HD
ATOM     28  H   UNL     1       9.170  14.875  17.759  0.00  0.00    +0.000 HD
ENDBRANCH  17  20
ENDBRANCH   5  14
BRANCH   7  29
ATOM     29  C   UNL     1      -1.883  11.825  18.643  0.00  0.00    +0.000 A 
ATOM     30  C   UNL     1      -3.281  11.790  18.547  0.00  0.00    +0.000 A 
ATOM     31  C   UNL     1      -3.912  10.768  17.840  0.00  0.00    +0.000 A 
ATOM     32  C   UNL     1      -3.150   9.775  17.226  0.00  0.00    +0.000 A 
ATOM     33  C   UNL     1      -1.760   9.796  17.328  0.00  0.00    +0.000 A 
ATOM     34  C   UNL     1      -1.124  10.812  18.044  0.00  0.00    +0.000 A 
ENDBRANCH   7  29
TORSDOF 3
ENDMDL
