MODEL 1
REMARK VINA RESULT:      -8.6      0.000      0.000
REMARK  Name = 
REMARK  5 active torsions:
REMARK  status: ('A' for Active; 'I' for Inactive)
REMARK    1  A    between atoms: C_1  and  C_2
REMARK    2  A    between atoms: C_2  and  C_3
REMARK    3  A    between atoms: C_10  and  O_11
REMARK    4  A    between atoms: C_17  and  C_18
REMARK    5  A    between atoms: C_21  and  C_22
REMARK                            x       y       z     vdW  Elec       q    Type
REMARK                         _______ _______ _______ _____ _____    ______ ____
ROOT
ATOM      1  C   UNL     1       0.254   9.252  21.508  0.00  0.00    +0.000 A 
ATOM      2  C   UNL     1       0.440  10.111  20.425  0.00  0.00    +0.000 A 
ATOM      3  C   UNL     1       1.207   9.701  19.324  0.00  0.00    +0.000 A 
ATOM      4  C   UNL     1       1.821   8.453  19.277  0.00  0.00    +0.000 A 
ATOM      5  N   UNL     1       2.588   8.105  18.223  0.00  0.00    +0.000 NA
ATOM      6  C   UNL     1       3.196   6.891  18.225  0.00  0.00    +0.000 A 
ATOM      7  C   UNL     1       3.033   5.981  19.268  0.00  0.00    +0.000 A 
ATOM      8  C   UNL     1       2.239   6.337  20.348  0.00  0.00    +0.000 A 
ATOM      9  C   UNL     1       1.615   7.586  20.366  0.00  0.00    +0.000 A 
ATOM     10  C   UNL     1       0.822   7.981  21.453  0.00  0.00    +0.000 A 
ATOM     11  C   UNL     1       3.662   4.651  19.218  0.00  0.00    +0.000 C 
ATOM     12  O   UNL     1       3.654   3.925  20.211  0.00  0.00    +0.000 OA
ATOM     13  C   UNL     1       4.203   4.205  17.901  0.00  0.00    +0.000 C 
ATOM     14  C   UNL     1       4.955   5.360  17.232  0.00  0.00    +0.000 C 
ATOM     15  C   UNL     1       4.016   6.554  17.001  0.00  0.00    +0.000 C 
ENDROOT
BRANCH  14  16
ATOM     16  C   UNL     1       5.598   4.818  15.972  0.00  0.00    +0.000 A 
ATOM     17  C   UNL     1       6.793   5.372  15.486  0.00  0.00    +0.000 A 
ATOM     18  C   UNL     1       7.241   5.073  14.205  0.00  0.00    +0.000 A 
ATOM     19  C   UNL     1       6.519   4.197  13.384  0.00  0.00    +0.000 A 
ATOM     20  C   UNL     1       5.377   3.571  13.901  0.00  0.00    +0.000 A 
ATOM     21  C   UNL     1       4.917   3.881  15.184  0.00  0.00    +0.000 A 
BRANCH  19  22
ATOM     22  C   UNL     1       6.937   3.985  11.951  0.00  0.00    +0.000 C 
ATOM     23  F   UNL     1       5.884   3.819  11.102  0.00  0.00    +0.000 F 
ATOM     24  F   UNL     1       7.661   5.023  11.454  0.00  0.00    +0.000 F 
ATOM     25  F   UNL     1       7.713   2.875  11.799  0.00  0.00    +0.000 F 
ENDBRANCH  19  22
ENDBRANCH  14  16
BRANCH   1  27
ATOM     26  C   UNL     1      -0.879  11.136  22.665  0.00  0.00    +0.000 C 
ATOM     27  C   UNL     1      -0.443   9.680  22.770  0.00  0.00    +0.000 C 
ENDBRANCH   1  27
BRANCH   8  28
ATOM     28  O   UNL     1       2.039   5.491  21.415  0.00  0.00    +0.000 OA
ATOM     29  H   UNL     1       2.691   5.709  22.120  0.00  0.00    +0.000 HD
ENDBRANCH   8  28
TORSDOF 4
ENDMDL
MODEL 2
REMARK VINA RESULT:      -8.6      5.807      9.907
REMARK  Name = 
REMARK  5 active torsions:
REMARK  status: ('A' for Active; 'I' for Inactive)
REMARK    1  A    between atoms: C_1  and  C_2
REMARK    2  A    between atoms: C_2  and  C_3
REMARK    3  A    between atoms: C_10  and  O_11
REMARK    4  A    between atoms: C_17  and  C_18
REMARK    5  A    between atoms: C_21  and  C_22
REMARK                            x       y       z     vdW  Elec       q    Type
REMARK                         _______ _______ _______ _____ _____    ______ ____
ROOT
ATOM      1  C   UNL     1       5.454   4.704  15.822  0.00  0.00    +0.000 A 
ATOM      2  C   UNL     1       5.503   5.993  15.292  0.00  0.00    +0.000 A 
ATOM      3  C   UNL     1       4.807   7.039  15.918  0.00  0.00    +0.000 A 
ATOM      4  C   UNL     1       4.037   6.832  17.059  0.00  0.00    +0.000 A 
ATOM      5  N   UNL     1       3.345   7.850  17.613  0.00  0.00    +0.000 NA
ATOM      6  C   UNL     1       2.580   7.605  18.708  0.00  0.00    +0.000 A 
ATOM      7  C   UNL     1       2.507   6.343  19.295  0.00  0.00    +0.000 A 
ATOM      8  C   UNL     1       3.223   5.300  18.728  0.00  0.00    +0.000 A 
ATOM      9  C   UNL     1       4.006   5.533  17.596  0.00  0.00    +0.000 A 
ATOM     10  C   UNL     1       4.727   4.492  16.990  0.00  0.00    +0.000 A 
ATOM     11  C   UNL     1       1.710   6.120  20.512  0.00  0.00    +0.000 C 
ATOM     12  O   UNL     1       1.514   4.976  20.923  0.00  0.00    +0.000 OA
ATOM     13  C   UNL     1       1.256   7.330  21.257  0.00  0.00    +0.000 C 
ATOM     14  C   UNL     1       0.744   8.384  20.271  0.00  0.00    +0.000 C 
ATOM     15  C   UNL     1       1.856   8.795  19.294  0.00  0.00    +0.000 C 
ENDROOT
BRANCH  14  16
ATOM     16  C   UNL     1       0.170   9.528  21.081  0.00  0.00    +0.000 A 
ATOM     17  C   UNL     1      -0.146   9.354  22.438  0.00  0.00    +0.000 A 
ATOM     18  C   UNL     1      -0.914  10.297  23.111  0.00  0.00    +0.000 A 
ATOM     19  C   UNL     1      -1.369  11.447  22.452  0.00  0.00    +0.000 A 
ATOM     20  C   UNL     1      -0.976  11.667  21.126  0.00  0.00    +0.000 A 
ATOM     21  C   UNL     1      -0.215  10.715  20.442  0.00  0.00    +0.000 A 
BRANCH  19  22
ATOM     22  C   UNL     1      -2.312  12.395  23.149  0.00  0.00    +0.000 C 
ATOM     23  F   UNL     1      -1.675  13.308  23.934  0.00  0.00    +0.000 F 
ATOM     24  F   UNL     1      -3.075  13.112  22.282  0.00  0.00    +0.000 F 
ATOM     25  F   UNL     1      -3.183  11.745  23.971  0.00  0.00    +0.000 F 
ENDBRANCH  19  22
ENDBRANCH  14  16
BRANCH   1  27
ATOM     26  C   UNL     1       6.185   3.789  13.629  0.00  0.00    +0.000 C 
ATOM     27  C   UNL     1       6.066   3.519  15.124  0.00  0.00    +0.000 C 
ENDBRANCH   1  27
BRANCH   8  28
ATOM     28  O   UNL     1       3.192   4.027  19.251  0.00  0.00    +0.000 OA
ATOM     29  H   UNL     1       3.458   3.388  18.549  0.00  0.00    +0.000 HD
ENDBRANCH   8  28
TORSDOF 4
ENDMDL
MODEL 3
REMARK VINA RESULT:      -8.6      4.386      6.507
REMARK  Name = 
REMARK  5 active torsions:
REMARK  status: ('A' for Active; 'I' for Inactive)
REMARK    1  A    between atoms: C_1  and  C_2
REMARK    2  A    between atoms: C_2  and  C_3
REMARK    3  A    between atoms: C_10  and  O_11
REMARK    4  A    between atoms: C_17  and  C_18
REMARK    5  A    between atoms: C_21  and  C_22
REMARK                            x       y       z     vdW  Elec       q    Type
REMARK                         _______ _______ _______ _____ _____    ______ ____
ROOT
ATOM      1  C   UNL     1      -0.535  15.162  20.096  0.00  0.00    +0.000 A 
ATOM      2  C   UNL     1      -0.199  14.899  18.769  0.00  0.00    +0.000 A 
ATOM      3  C   UNL     1       0.202  13.610  18.384  0.00  0.00    +0.000 A 
ATOM      4  C   UNL     1       0.300  12.566  19.300  0.00  0.00    +0.000 A 
ATOM      5  N   UNL     1       0.731  11.349  18.907  0.00  0.00    +0.000 NA
ATOM      6  C   UNL     1       0.843  10.362  19.834  0.00  0.00    +0.000 A 
ATOM      7  C   UNL     1       0.503  10.557  21.171  0.00  0.00    +0.000 A 
ATOM      8  C   UNL     1       0.055  11.807  21.571  0.00  0.00    +0.000 A 
ATOM      9  C   UNL     1      -0.056  12.835  20.633  0.00  0.00    +0.000 A 
ATOM     10  C   UNL     1      -0.488  14.115  21.013  0.00  0.00    +0.000 A 
ATOM     11  C   UNL     1       0.586   9.453  22.141  0.00  0.00    +0.000 C 
ATOM     12  O   UNL     1       0.449   9.675  23.344  0.00  0.00    +0.000 OA
ATOM     13  C   UNL     1       0.735   8.075  21.591  0.00  0.00    +0.000 C 
ATOM     14  C   UNL     1       1.757   8.080  20.451  0.00  0.00    +0.000 C 
ATOM     15  C   UNL     1       1.302   9.016  19.321  0.00  0.00    +0.000 C 
ENDROOT
BRANCH  14  16
ATOM     16  C   UNL     1       1.973   6.644  20.022  0.00  0.00    +0.000 A 
ATOM     17  C   UNL     1       2.394   6.344  18.717  0.00  0.00    +0.000 A 
ATOM     18  C   UNL     1       2.335   5.041  18.236  0.00  0.00    +0.000 A 
ATOM     19  C   UNL     1       1.872   4.001  19.053  0.00  0.00    +0.000 A 
ATOM     20  C   UNL     1       1.540   4.283  20.385  0.00  0.00    +0.000 A 
ATOM     21  C   UNL     1       1.587   5.594  20.867  0.00  0.00    +0.000 A 
BRANCH  19  22
ATOM     22  C   UNL     1       1.682   2.618  18.483  0.00  0.00    +0.000 C 
ATOM     23  F   UNL     1       2.310   1.648  19.204  0.00  0.00    +0.000 F 
ATOM     24  F   UNL     1       0.374   2.250  18.418  0.00  0.00    +0.000 F 
ATOM     25  F   UNL     1       2.169   2.511  17.216  0.00  0.00    +0.000 F 
ENDBRANCH  19  22
ENDBRANCH  14  16
BRANCH   1  27
ATOM     26  C   UNL     1      -2.182  17.022  20.047  0.00  0.00    +0.000 C 
ATOM     27  C   UNL     1      -0.842  16.548  20.594  0.00  0.00    +0.000 C 
ENDBRANCH   1  27
BRANCH   8  28
ATOM     28  O   UNL     1      -0.291  12.072  22.877  0.00  0.00    +0.000 OA
ATOM     29  H   UNL     1      -1.017  11.461  23.143  0.00  0.00    +0.000 HD
ENDBRANCH   8  28
TORSDOF 4
ENDMDL
MODEL 4
REMARK VINA RESULT:      -8.2      6.417     10.592
REMARK  Name = 
REMARK  5 active torsions:
REMARK  status: ('A' for Active; 'I' for Inactive)
REMARK    1  A    between atoms: C_1  and  C_2
REMARK    2  A    between atoms: C_2  and  C_3
REMARK    3  A    between atoms: C_10  and  O_11
REMARK    4  A    between atoms: C_17  and  C_18
REMARK    5  A    between atoms: C_21  and  C_22
REMARK                            x       y       z     vdW  Elec       q    Type
REMARK                         _______ _______ _______ _____ _____    ______ ____
ROOT
ATOM      1  C   UNL     1       4.092   4.314  17.871  0.00  0.00    +0.000 A 
ATOM      2  C   UNL     1       3.676   3.817  19.106  0.00  0.00    +0.000 A 
ATOM      3  C   UNL     1       2.905   4.617  19.964  0.00  0.00    +0.000 A 
ATOM      4  C   UNL     1       2.551   5.922  19.634  0.00  0.00    +0.000 A 
ATOM      5  N   UNL     1       1.845   6.681  20.499  0.00  0.00    +0.000 NA
ATOM      6  C   UNL     1       1.543   7.959  20.155  0.00  0.00    +0.000 A 
ATOM      7  C   UNL     1       1.914   8.506  18.928  0.00  0.00    +0.000 A 
ATOM      8  C   UNL     1       2.633   7.723  18.038  0.00  0.00    +0.000 A 
ATOM      9  C   UNL     1       2.961   6.410  18.380  0.00  0.00    +0.000 A 
ATOM     10  C   UNL     1       3.704   5.601  17.507  0.00  0.00    +0.000 A 
ATOM     11  C   UNL     1       1.527   9.879  18.563  0.00  0.00    +0.000 C 
ATOM     12  O   UNL     1       2.000  10.408  17.558  0.00  0.00    +0.000 OA
ATOM     13  C   UNL     1       0.478  10.533  19.399  0.00  0.00    +0.000 C 
ATOM     14  C   UNL     1       0.746  10.254  20.880  0.00  0.00    +0.000 C 
ATOM     15  C   UNL     1       0.727   8.743  21.158  0.00  0.00    +0.000 C 
ENDROOT
BRANCH  14  16
ATOM     16  C   UNL     1      -0.259  11.050  21.686  0.00  0.00    +0.000 A 
ATOM     17  C   UNL     1      -0.786  10.533  22.880  0.00  0.00    +0.000 A 
ATOM     18  C   UNL     1      -1.894  11.122  23.478  0.00  0.00    +0.000 A 
ATOM     19  C   UNL     1      -2.492  12.254  22.909  0.00  0.00    +0.000 A 
ATOM     20  C   UNL     1      -1.911  12.826  21.769  0.00  0.00    +0.000 A 
ATOM     21  C   UNL     1      -0.805  12.228  21.159  0.00  0.00    +0.000 A 
BRANCH  19  22
ATOM     22  C   UNL     1      -3.772  12.804  23.486  0.00  0.00    +0.000 C 
ATOM     23  F   UNL     1      -3.731  14.149  23.701  0.00  0.00    +0.000 F 
ATOM     24  F   UNL     1      -4.848  12.585  22.684  0.00  0.00    +0.000 F 
ATOM     25  F   UNL     1      -4.077  12.247  24.690  0.00  0.00    +0.000 F 
ENDBRANCH  19  22
ENDBRANCH  14  16
BRANCH   1  27
ATOM     26  C   UNL     1       5.409   4.410  15.766  0.00  0.00    +0.000 C 
ATOM     27  C   UNL     1       5.029   3.557  16.969  0.00  0.00    +0.000 C 
ENDBRANCH   1  27
BRANCH   8  28
ATOM     28  O   UNL     1       3.037   8.200  16.812  0.00  0.00    +0.000 OA
ATOM     29  H   UNL     1       2.929   7.486  16.142  0.00  0.00    +0.000 HD
ENDBRANCH   8  28
TORSDOF 4
ENDMDL
MODEL 5
REMARK VINA RESULT:      -8.1      4.162      6.341
REMARK  Name = 
REMARK  5 active torsions:
REMARK  status: ('A' for Active; 'I' for Inactive)
REMARK    1  A    between atoms: C_1  and  C_2
REMARK    2  A    between atoms: C_2  and  C_3
REMARK    3  A    between atoms: C_10  and  O_11
REMARK    4  A    between atoms: C_17  and  C_18
REMARK    5  A    between atoms: C_21  and  C_22
REMARK                            x       y       z     vdW  Elec       q    Type
REMARK                         _______ _______ _______ _____ _____    ______ ____
ROOT
ATOM      1  C   UNL     1      -0.711  15.153  20.067  0.00  0.00    +0.000 A 
ATOM      2  C   UNL     1      -0.415  14.910  18.726  0.00  0.00    +0.000 A 
ATOM      3  C   UNL     1       0.014  13.637  18.318  0.00  0.00    +0.000 A 
ATOM      4  C   UNL     1       0.180  12.592  19.221  0.00  0.00    +0.000 A 
ATOM      5  N   UNL     1       0.635  11.391  18.804  0.00  0.00    +0.000 NA
ATOM      6  C   UNL     1       0.813  10.403  19.719  0.00  0.00    +0.000 A 
ATOM      7  C   UNL     1       0.516  10.578  21.069  0.00  0.00    +0.000 A 
ATOM      8  C   UNL     1       0.042  11.810  21.494  0.00  0.00    +0.000 A 
ATOM      9  C   UNL     1      -0.136  12.840  20.569  0.00  0.00    +0.000 A 
ATOM     10  C   UNL     1      -0.596  14.103  20.974  0.00  0.00    +0.000 A 
ATOM     11  C   UNL     1       0.670   9.472  22.027  0.00  0.00    +0.000 C 
ATOM     12  O   UNL     1       0.570   9.682  23.236  0.00  0.00    +0.000 OA
ATOM     13  C   UNL     1       0.844   8.102  21.461  0.00  0.00    +0.000 C 
ATOM     14  C   UNL     1       1.824   8.149  20.285  0.00  0.00    +0.000 C 
ATOM     15  C   UNL     1       1.297   9.077  19.180  0.00  0.00    +0.000 C 
ENDROOT
BRANCH  14  16
ATOM     16  C   UNL     1       2.071   6.723  19.839  0.00  0.00    +0.000 A 
ATOM     17  C   UNL     1       1.783   5.647  20.694  0.00  0.00    +0.000 A 
ATOM     18  C   UNL     1       2.252   4.371  20.406  0.00  0.00    +0.000 A 
ATOM     19  C   UNL     1       3.002   4.132  19.247  0.00  0.00    +0.000 A 
ATOM     20  C   UNL     1       3.210   5.184  18.346  0.00  0.00    +0.000 A 
ATOM     21  C   UNL     1       2.751   6.472  18.640  0.00  0.00    +0.000 A 
BRANCH  19  22
ATOM     22  C   UNL     1       3.621   2.777  19.013  0.00  0.00    +0.000 C 
ATOM     23  F   UNL     1       4.053   2.597  17.733  0.00  0.00    +0.000 F 
ATOM     24  F   UNL     1       4.698   2.544  19.809  0.00  0.00    +0.000 F 
ATOM     25  F   UNL     1       2.746   1.761  19.253  0.00  0.00    +0.000 F 
ENDBRANCH  19  22
ENDBRANCH  14  16
BRANCH   1  27
ATOM     26  C   UNL     1      -1.345  17.470  19.429  0.00  0.00    +0.000 C 
ATOM     27  C   UNL     1      -1.044  16.525  20.586  0.00  0.00    +0.000 C 
ENDBRANCH   1  27
BRANCH   8  28
ATOM     28  O   UNL     1      -0.265  12.056  22.814  0.00  0.00    +0.000 OA
ATOM     29  H   UNL     1       0.253  12.836  23.120  0.00  0.00    +0.000 HD
ENDBRANCH   8  28
TORSDOF 4
ENDMDL
MODEL 6
REMARK VINA RESULT:      -7.9      6.994     10.751
REMARK  Name = 
REMARK  5 active torsions:
REMARK  status: ('A' for Active; 'I' for Inactive)
REMARK    1  A    between atoms: C_1  and  C_2
REMARK    2  A    between atoms: C_2  and  C_3
REMARK    3  A    between atoms: C_10  and  O_11
REMARK    4  A    between atoms: C_17  and  C_18
REMARK    5  A    between atoms: C_21  and  C_22
REMARK                            x       y       z     vdW  Elec       q    Type
REMARK                         _______ _______ _______ _____ _____    ______ ____
ROOT
ATOM      1  C   UNL     1       3.271   4.175  18.621  0.00  0.00    +0.000 A 
ATOM      2  C   UNL     1       2.802   3.897  19.905  0.00  0.00    +0.000 A 
ATOM      3  C   UNL     1       2.163   4.896  20.654  0.00  0.00    +0.000 A 
ATOM      4  C   UNL     1       1.993   6.188  20.166  0.00  0.00    +0.000 A 
ATOM      5  N   UNL     1       1.413   7.138  20.928  0.00  0.00    +0.000 NA
ATOM      6  C   UNL     1       1.291   8.396  20.430  0.00  0.00    +0.000 A 
ATOM      7  C   UNL     1       1.721   8.731  19.147  0.00  0.00    +0.000 A 
ATOM      8  C   UNL     1       2.311   7.752  18.363  0.00  0.00    +0.000 A 
ATOM      9  C   UNL     1       2.454   6.457  18.864  0.00  0.00    +0.000 A 
ATOM     10  C   UNL     1       3.064   5.450  18.100  0.00  0.00    +0.000 A 
ATOM     11  C   UNL     1       1.528  10.090  18.616  0.00  0.00    +0.000 C 
ATOM     12  O   UNL     1       2.059  10.422  17.556  0.00  0.00    +0.000 OA
ATOM     13  C   UNL     1       0.592  10.984  19.359  0.00  0.00    +0.000 C 
ATOM     14  C   UNL     1       0.836  10.851  20.865  0.00  0.00    +0.000 C 
ATOM     15  C   UNL     1       0.606   9.403  21.324  0.00  0.00    +0.000 C 
ENDROOT
BRANCH  14  16
ATOM     16  C   UNL     1      -0.037  11.874  21.562  0.00  0.00    +0.000 A 
ATOM     17  C   UNL     1       0.301  13.236  21.537  0.00  0.00    +0.000 A 
ATOM     18  C   UNL     1      -0.331  14.137  22.387  0.00  0.00    +0.000 A 
ATOM     19  C   UNL     1      -1.329  13.703  23.269  0.00  0.00    +0.000 A 
ATOM     20  C   UNL     1      -1.733  12.362  23.229  0.00  0.00    +0.000 A 
ATOM     21  C   UNL     1      -1.091  11.452  22.384  0.00  0.00    +0.000 A 
BRANCH  19  22
ATOM     22  C   UNL     1      -1.912  14.658  24.281  0.00  0.00    +0.000 C 
ATOM     23  F   UNL     1      -2.989  14.150  24.942  0.00  0.00    +0.000 F 
ATOM     24  F   UNL     1      -1.018  15.019  25.239  0.00  0.00    +0.000 F 
ATOM     25  F   UNL     1      -2.343  15.817  23.709  0.00  0.00    +0.000 F 
ENDBRANCH  19  22
ENDBRANCH  14  16
BRANCH   1  27
ATOM     26  C   UNL     1       3.674   1.764  18.176  0.00  0.00    +0.000 C 
ATOM     27  C   UNL     1       4.080   3.189  17.823  0.00  0.00    +0.000 C 
ENDBRANCH   1  27
BRANCH   8  28
ATOM     28  O   UNL     1       2.765   8.014  17.090  0.00  0.00    +0.000 OA
ATOM     29  H   UNL     1       2.453   7.299  16.488  0.00  0.00    +0.000 HD
ENDBRANCH   8  28
TORSDOF 4
ENDMDL
MODEL 7
REMARK VINA RESULT:      -7.9      7.005     11.287
REMARK  Name = 
REMARK  5 active torsions:
REMARK  status: ('A' for Active; 'I' for Inactive)
REMARK    1  A    between atoms: C_1  and  C_2
REMARK    2  A    between atoms: C_2  and  C_3
REMARK    3  A    between atoms: C_10  and  O_11
REMARK    4  A    between atoms: C_17  and  C_18
REMARK    5  A    between atoms: C_21  and  C_22
REMARK                            x       y       z     vdW  Elec       q    Type
REMARK                         _______ _______ _______ _____ _____    ______ ____
ROOT
ATOM      1  C   UNL     1       3.244   5.280  18.405  0.00  0.00    +0.000 A 
ATOM      2  C   UNL     1       2.851   4.776  19.644  0.00  0.00    +0.000 A 
ATOM      3  C   UNL     1       2.135   5.584  20.539  0.00  0.00    +0.000 A 
ATOM      4  C   UNL     1       1.812   6.905  20.242  0.00  0.00    +0.000 A 
ATOM      5  N   UNL     1       1.159   7.671  21.142  0.00  0.00    +0.000 NA
ATOM      6  C   UNL     1       0.888   8.964  20.829  0.00  0.00    +0.000 A 
ATOM      7  C   UNL     1       1.237   9.520  19.600  0.00  0.00    +0.000 A 
ATOM      8  C   UNL     1       1.902   8.730  18.674  0.00  0.00    +0.000 A 
ATOM      9  C   UNL     1       2.198   7.401  18.984  0.00  0.00    +0.000 A 
ATOM     10  C   UNL     1       2.886   6.584  18.074  0.00  0.00    +0.000 A 
ATOM     11  C   UNL     1       0.882  10.910  19.269  0.00  0.00    +0.000 C 
ATOM     12  O   UNL     1       1.340  11.442  18.259  0.00  0.00    +0.000 OA
ATOM     13  C   UNL     1      -0.118  11.583  20.149  0.00  0.00    +0.000 C 
ATOM     14  C   UNL     1       0.189  11.270  21.616  0.00  0.00    +0.000 C 
ATOM     15  C   UNL     1       0.129   9.756  21.870  0.00  0.00    +0.000 C 
ENDROOT
BRANCH  14  16
ATOM     16  C   UNL     1      -0.765  12.083  22.467  0.00  0.00    +0.000 A 
ATOM     17  C   UNL     1      -1.906  11.488  23.027  0.00  0.00    +0.000 A 
ATOM     18  C   UNL     1      -2.916  12.271  23.574  0.00  0.00    +0.000 A 
ATOM     19  C   UNL     1      -2.803  13.667  23.593  0.00  0.00    +0.000 A 
ATOM     20  C   UNL     1      -1.624  14.258  23.119  0.00  0.00    +0.000 A 
ATOM     21  C   UNL     1      -0.612  13.473  22.557  0.00  0.00    +0.000 A 
BRANCH  19  22
ATOM     22  C   UNL     1      -3.959  14.514  24.062  0.00  0.00    +0.000 C 
ATOM     23  F   UNL     1      -3.732  15.117  25.262  0.00  0.00    +0.000 F 
ATOM     24  F   UNL     1      -4.268  15.512  23.192  0.00  0.00    +0.000 F 
ATOM     25  F   UNL     1      -5.099  13.786  24.224  0.00  0.00    +0.000 F 
ENDBRANCH  19  22
ENDBRANCH  14  16
BRANCH   1  27
ATOM     26  C   UNL     1       4.902   5.465  16.562  0.00  0.00    +0.000 C 
ATOM     27  C   UNL     1       4.127   4.509  17.461  0.00  0.00    +0.000 C 
ENDBRANCH   1  27
BRANCH   8  28
ATOM     28  O   UNL     1       2.282   9.215  17.443  0.00  0.00    +0.000 OA
ATOM     29  H   UNL     1       1.520   9.693  17.041  0.00  0.00    +0.000 HD
ENDBRANCH   8  28
TORSDOF 4
ENDMDL
MODEL 8
REMARK VINA RESULT:      -7.9      3.161      5.324
REMARK  Name = 
REMARK  5 active torsions:
REMARK  status: ('A' for Active; 'I' for Inactive)
REMARK    1  A    between atoms: C_1  and  C_2
REMARK    2  A    between atoms: C_2  and  C_3
REMARK    3  A    between atoms: C_10  and  O_11
REMARK    4  A    between atoms: C_17  and  C_18
REMARK    5  A    between atoms: C_21  and  C_22
REMARK                            x       y       z     vdW  Elec       q    Type
REMARK                         _______ _______ _______ _____ _____    ______ ____
ROOT
ATOM      1  C   UNL     1      -3.035  13.481  21.892  0.00  0.00    +0.000 A 
ATOM      2  C   UNL     1      -3.265  13.515  20.517  0.00  0.00    +0.000 A 
ATOM      3  C   UNL     1      -2.579  12.635  19.666  0.00  0.00    +0.000 A 
ATOM      4  C   UNL     1      -1.641  11.726  20.147  0.00  0.00    +0.000 A 
ATOM      5  N   UNL     1      -0.966  10.924  19.298  0.00  0.00    +0.000 NA
ATOM      6  C   UNL     1      -0.036  10.070  19.800  0.00  0.00    +0.000 A 
ATOM      7  C   UNL     1       0.225   9.976  21.166  0.00  0.00    +0.000 A 
ATOM      8  C   UNL     1      -0.474  10.797  22.037  0.00  0.00    +0.000 A 
ATOM      9  C   UNL     1      -1.426  11.688  21.536  0.00  0.00    +0.000 A 
ATOM     10  C   UNL     1      -2.135  12.544  22.393  0.00  0.00    +0.000 A 
ATOM     11  C   UNL     1       1.201   9.004  21.684  0.00  0.00    +0.000 C 
ATOM     12  O   UNL     1       1.548   9.045  22.864  0.00  0.00    +0.000 OA
ATOM     13  C   UNL     1       1.653   7.932  20.751  0.00  0.00    +0.000 C 
ATOM     14  C   UNL     1       1.930   8.530  19.369  0.00  0.00    +0.000 C 
ATOM     15  C   UNL     1       0.661   9.180  18.797  0.00  0.00    +0.000 C 
ENDROOT
BRANCH  14  16
ATOM     16  C   UNL     1       2.515   7.433  18.504  0.00  0.00    +0.000 A 
ATOM     17  C   UNL     1       2.155   6.092  18.712  0.00  0.00    +0.000 A 
ATOM     18  C   UNL     1       2.878   5.066  18.115  0.00  0.00    +0.000 A 
ATOM     19  C   UNL     1       3.966   5.353  17.280  0.00  0.00    +0.000 A 
ATOM     20  C   UNL     1       4.268   6.691  16.998  0.00  0.00    +0.000 A 
ATOM     21  C   UNL     1       3.550   7.725  17.606  0.00  0.00    +0.000 A 
BRANCH  19  22
ATOM     22  C   UNL     1       4.826   4.235  16.748  0.00  0.00    +0.000 C 
ATOM     23  F   UNL     1       6.096   4.250  17.245  0.00  0.00    +0.000 F 
ATOM     24  F   UNL     1       4.327   3.003  17.034  0.00  0.00    +0.000 F 
ATOM     25  F   UNL     1       4.959   4.285  15.394  0.00  0.00    +0.000 F 
ENDBRANCH  19  22
ENDBRANCH  14  16
BRANCH   1  27
ATOM     26  C   UNL     1      -5.140  14.589  22.612  0.00  0.00    +0.000 C 
ATOM     27  C   UNL     1      -3.637  14.485  22.838  0.00  0.00    +0.000 C 
ENDBRANCH   1  27
BRANCH   8  28
ATOM     28  O   UNL     1      -0.263  10.762  23.397  0.00  0.00    +0.000 OA
ATOM     29  H   UNL     1      -0.791  10.024  23.781  0.00  0.00    +0.000 HD
ENDBRANCH   8  28
TORSDOF 4
ENDMDL
MODEL 9
REMARK VINA RESULT:      -7.9      6.697     10.822
REMARK  Name = 
REMARK  5 active torsions:
REMARK  status: ('A' for Active; 'I' for Inactive)
REMARK    1  A    between atoms: C_1  and  C_2
REMARK    2  A    between atoms: C_2  and  C_3
REMARK    3  A    between atoms: C_10  and  O_11
REMARK    4  A    between atoms: C_17  and  C_18
REMARK    5  A    between atoms: C_21  and  C_22
REMARK                            x       y       z     vdW  Elec       q    Type
REMARK                         _______ _______ _______ _____ _____    ______ ____
ROOT
ATOM      1  C   UNL     1       3.565   4.349  18.919  0.00  0.00    +0.000 A 
ATOM      2  C   UNL     1       2.988   3.957  20.127  0.00  0.00    +0.000 A 
ATOM      3  C   UNL     1       2.179   4.851  20.845  0.00  0.00    +0.000 A 
ATOM      4  C   UNL     1       1.943   6.149  20.401  0.00  0.00    +0.000 A 
ATOM      5  N   UNL     1       1.196   7.000  21.137  0.00  0.00    +0.000 NA
ATOM      6  C   UNL     1       1.012   8.268  20.687  0.00  0.00    +0.000 A 
ATOM      7  C   UNL     1       1.545   8.713  19.479  0.00  0.00    +0.000 A 
ATOM      8  C   UNL     1       2.307   7.836  18.722  0.00  0.00    +0.000 A 
ATOM      9  C   UNL     1       2.515   6.531  19.175  0.00  0.00    +0.000 A 
ATOM     10  C   UNL     1       3.297   5.628  18.439  0.00  0.00    +0.000 A 
ATOM     11  C   UNL     1       1.284  10.078  18.993  0.00  0.00    +0.000 C 
ATOM     12  O   UNL     1       1.894  10.515  18.018  0.00  0.00    +0.000 OA
ATOM     13  C   UNL     1       0.193  10.841  19.667  0.00  0.00    +0.000 C 
ATOM     14  C   UNL     1       0.283  10.645  21.183  0.00  0.00    +0.000 C 
ATOM     15  C   UNL     1       0.141   9.158  21.545  0.00  0.00    +0.000 C 
ENDROOT
BRANCH  14  16
ATOM     16  C   UNL     1      -0.753  11.544  21.823  0.00  0.00    +0.000 A 
ATOM     17  C   UNL     1      -1.359  11.184  23.038  0.00  0.00    +0.000 A 
ATOM     18  C   UNL     1      -2.489  11.855  23.491  0.00  0.00    +0.000 A 
ATOM     19  C   UNL     1      -3.031  12.915  22.753  0.00  0.00    +0.000 A 
ATOM     20  C   UNL     1      -2.374  13.337  21.590  0.00  0.00    +0.000 A 
ATOM     21  C   UNL     1      -1.244  12.656  21.125  0.00  0.00    +0.000 A 
BRANCH  19  22
ATOM     22  C   UNL     1      -4.332  13.546  23.180  0.00  0.00    +0.000 C 
ATOM     23  F   UNL     1      -5.255  12.639  23.607  0.00  0.00    +0.000 F 
ATOM     24  F   UNL     1      -4.178  14.433  24.199  0.00  0.00    +0.000 F 
ATOM     25  F   UNL     1      -4.930  14.233  22.167  0.00  0.00    +0.000 F 
ENDBRANCH  19  22
ENDBRANCH  14  16
BRANCH   1  27
ATOM     26  C   UNL     1       4.678   3.959  16.732  0.00  0.00    +0.000 C 
ATOM     27  C   UNL     1       4.545   3.485  18.173  0.00  0.00    +0.000 C 
ENDBRANCH   1  27
BRANCH   8  28
ATOM     28  O   UNL     1       2.870   8.209  17.522  0.00  0.00    +0.000 OA
ATOM     29  H   UNL     1       2.421   9.025  17.202  0.00  0.00    +0.000 HD
ENDBRANCH   8  28
TORSDOF 4
ENDMDL
