MODEL 1
REMARK VINA RESULT:      -8.0      0.000      0.000
REMARK  Name = 
REMARK  8 active torsions:
REMARK  status: ('A' for Active; 'I' for Inactive)
REMARK    1  A    between atoms: C_1  and  O_2
REMARK    2  A    between atoms: O_2  and  C_3
REMARK    3  A    between atoms: C_8  and  N_9
REMARK    4  A    between atoms: N_12  and  C_13
REMARK    5  A    between atoms: C_13  and  C_14
REMARK    6  A    between atoms: C_18  and  C_19
REMARK    7  A    between atoms: C_19  and  N_20
REMARK    8  A    between atoms: C_21  and  C_23
REMARK                            x       y       z     vdW  Elec       q    Type
REMARK                         _______ _______ _______ _____ _____    ______ ____
ROOT
ATOM      1  C   UNL     1       1.664   5.020  20.078  0.00  0.00    +0.000 A 
ATOM      2  C   UNL     1       0.775   4.188  20.769  0.00  0.00    +0.000 A 
ATOM      3  C   UNL     1       1.167   2.905  21.153  0.00  0.00    +0.000 A 
ATOM      4  C   UNL     1       2.442   2.433  20.830  0.00  0.00    +0.000 A 
ATOM      5  C   UNL     1       3.345   3.245  20.132  0.00  0.00    +0.000 A 
ATOM      6  C   UNL     1       2.962   4.554  19.805  0.00  0.00    +0.000 A 
ENDROOT
BRANCH   1   7
ATOM      7  C   UNL     1       1.210   6.369  19.553  0.00  0.00    +0.000 C 
BRANCH   7  11
ATOM      8  N   UNL     1       0.971  10.052  19.203  0.00  0.00    +0.000 N 
ATOM      9  C   UNL     1       1.373   9.186  18.087  0.00  0.00    +0.000 C 
ATOM     10  C   UNL     1       2.494   8.220  18.552  0.00  0.00    +0.000 C 
ATOM     11  N   UNL     1       2.208   7.429  19.777  0.00  0.00    +0.000 NA
ATOM     12  C   UNL     1       1.774   8.369  20.836  0.00  0.00    +0.000 C 
ATOM     13  C   UNL     1       0.623   9.329  20.439  0.00  0.00    +0.000 C 
BRANCH   8  19
ATOM     14  C   UNL     1      -0.643  11.852  18.572  0.00  0.00    +0.000 A 
ATOM     15  C   UNL     1      -0.857  13.223  18.333  0.00  0.00    +0.000 A 
ATOM     16  C   UNL     1       0.149  14.157  18.565  0.00  0.00    +0.000 A 
ATOM     17  C   UNL     1       1.382  13.734  19.030  0.00  0.00    +0.000 A 
ATOM     18  C   UNL     1       1.610  12.373  19.242  0.00  0.00    +0.000 A 
ATOM     19  C   UNL     1       0.621  11.386  19.020  0.00  0.00    +0.000 A 
BRANCH  14  21
ATOM     20  C   UNL     1      -2.601  11.180  17.374  0.00  0.00    +0.000 C 
ATOM     21  O   UNL     1      -1.646  10.921  18.397  0.00  0.00    +0.000 OA
ENDBRANCH  14  21
ENDBRANCH   8  19
ENDBRANCH   7  11
ENDBRANCH   1   7
BRANCH   5  22
ATOM     22  C   UNL     1       4.651   2.693  19.623  0.00  0.00    +0.000 C 
BRANCH  22  23
ATOM     23  N   UNL     1       4.971   3.070  18.266  0.00  0.00    +0.000 N 
ATOM     24  C   UNL     1       5.852   4.122  18.079  0.00  0.00    +0.000 C 
ATOM     25  O   UNL     1       6.305   4.792  19.003  0.00  0.00    +0.000 OA
ATOM     26  H   UNL     1       4.860   2.382  17.534  0.00  0.00    +0.000 HD
BRANCH  24  27
ATOM     27  C   UNL     1       6.302   4.394  16.691  0.00  0.00    +0.000 A 
ATOM     28  C   UNL     1       7.218   5.429  16.484  0.00  0.00    +0.000 A 
ATOM     29  C   UNL     1       7.691   5.702  15.200  0.00  0.00    +0.000 A 
ATOM     30  C   UNL     1       7.232   4.962  14.099  0.00  0.00    +0.000 A 
ATOM     31  C   UNL     1       7.733   5.200  12.808  0.00  0.00    +0.000 A 
ATOM     32  C   UNL     1       7.245   4.486  11.714  0.00  0.00    +0.000 A 
ATOM     33  C   UNL     1       6.234   3.547  11.893  0.00  0.00    +0.000 A 
ATOM     34  C   UNL     1       5.738   3.287  13.173  0.00  0.00    +0.000 A 
ATOM     35  C   UNL     1       6.246   3.965  14.294  0.00  0.00    +0.000 A 
ATOM     36  C   UNL     1       5.798   3.679  15.599  0.00  0.00    +0.000 A 
ENDBRANCH  24  27
ENDBRANCH  22  23
ENDBRANCH   5  22
TORSDOF 7
ENDMDL
MODEL 2
REMARK VINA RESULT:      -8.0      4.649      9.217
REMARK  Name = 
REMARK  8 active torsions:
REMARK  status: ('A' for Active; 'I' for Inactive)
REMARK    1  A    between atoms: C_1  and  O_2
REMARK    2  A    between atoms: O_2  and  C_3
REMARK    3  A    between atoms: C_8  and  N_9
REMARK    4  A    between atoms: N_12  and  C_13
REMARK    5  A    between atoms: C_13  and  C_14
REMARK    6  A    between atoms: C_18  and  C_19
REMARK    7  A    between atoms: C_19  and  N_20
REMARK    8  A    between atoms: C_21  and  C_23
REMARK                            x       y       z     vdW  Elec       q    Type
REMARK                         _______ _______ _______ _____ _____    ______ ____
ROOT
ATOM      1  C   UNL     1       1.578  12.361  19.354  0.00  0.00    +0.000 A 
ATOM      2  C   UNL     1       0.408  13.067  19.657  0.00  0.00    +0.000 A 
ATOM      3  C   UNL     1       0.255  14.388  19.233  0.00  0.00    +0.000 A 
ATOM      4  C   UNL     1       1.279  15.022  18.523  0.00  0.00    +0.000 A 
ATOM      5  C   UNL     1       2.461  14.337  18.217  0.00  0.00    +0.000 A 
ATOM      6  C   UNL     1       2.579  12.991  18.595  0.00  0.00    +0.000 A 
ENDROOT
BRANCH   1   7
ATOM      7  C   UNL     1       1.805  10.967  19.911  0.00  0.00    +0.000 C 
BRANCH   7  11
ATOM      8  N   UNL     1       2.215   7.527  18.592  0.00  0.00    +0.000 N 
ATOM      9  C   UNL     1       2.259   8.708  17.720  0.00  0.00    +0.000 C 
ATOM     10  C   UNL     1       1.031   9.613  18.002  0.00  0.00    +0.000 C 
ATOM     11  N   UNL     1       0.813   9.994  19.422  0.00  0.00    +0.000 NA
ATOM     12  C   UNL     1       0.821   8.755  20.233  0.00  0.00    +0.000 C 
ATOM     13  C   UNL     1       2.050   7.834  20.024  0.00  0.00    +0.000 C 
BRANCH   8  19
ATOM     14  C   UNL     1       3.925   5.951  17.679  0.00  0.00    +0.000 A 
ATOM     15  C   UNL     1       4.206   4.663  17.182  0.00  0.00    +0.000 A 
ATOM     16  C   UNL     1       3.235   3.664  17.187  0.00  0.00    +0.000 A 
ATOM     17  C   UNL     1       1.972   3.941  17.681  0.00  0.00    +0.000 A 
ATOM     18  C   UNL     1       1.678   5.223  18.149  0.00  0.00    +0.000 A 
ATOM     19  C   UNL     1       2.629   6.270  18.162  0.00  0.00    +0.000 A 
BRANCH  14  21
ATOM     20  C   UNL     1       6.063   6.732  16.949  0.00  0.00    +0.000 C 
ATOM     21  O   UNL     1       4.890   6.934  17.728  0.00  0.00    +0.000 OA
ENDBRANCH  14  21
ENDBRANCH   8  19
ENDBRANCH   7  11
ENDBRANCH   1   7
BRANCH   5  22
ATOM     22  C   UNL     1       3.639  15.055  17.612  0.00  0.00    +0.000 C 
BRANCH  22  23
ATOM     23  N   UNL     1       4.916  14.437  17.878  0.00  0.00    +0.000 N 
ATOM     24  C   UNL     1       5.892  15.208  18.487  0.00  0.00    +0.000 C 
ATOM     25  O   UNL     1       5.749  16.402  18.735  0.00  0.00    +0.000 OA
ATOM     26  H   UNL     1       4.958  13.430  17.961  0.00  0.00    +0.000 HD
BRANCH  24  27
ATOM     27  C   UNL     1       7.139  14.521  18.906  0.00  0.00    +0.000 A 
ATOM     28  C   UNL     1       7.572  14.683  20.225  0.00  0.00    +0.000 A 
ATOM     29  C   UNL     1       8.723  14.033  20.672  0.00  0.00    +0.000 A 
ATOM     30  C   UNL     1       9.475  13.233  19.797  0.00  0.00    +0.000 A 
ATOM     31  C   UNL     1      10.611  12.540  20.246  0.00  0.00    +0.000 A 
ATOM     32  C   UNL     1      11.373  11.776  19.362  0.00  0.00    +0.000 A 
ATOM     33  C   UNL     1      11.025  11.719  18.017  0.00  0.00    +0.000 A 
ATOM     34  C   UNL     1       9.888  12.389  17.558  0.00  0.00    +0.000 A 
ATOM     35  C   UNL     1       9.083  13.128  18.441  0.00  0.00    +0.000 A 
ATOM     36  C   UNL     1       7.903  13.766  18.009  0.00  0.00    +0.000 A 
ENDBRANCH  24  27
ENDBRANCH  22  23
ENDBRANCH   5  22
TORSDOF 7
ENDMDL
MODEL 3
REMARK VINA RESULT:      -8.0      4.803      8.696
REMARK  Name = 
REMARK  8 active torsions:
REMARK  status: ('A' for Active; 'I' for Inactive)
REMARK    1  A    between atoms: C_1  and  O_2
REMARK    2  A    between atoms: O_2  and  C_3
REMARK    3  A    between atoms: C_8  and  N_9
REMARK    4  A    between atoms: N_12  and  C_13
REMARK    5  A    between atoms: C_13  and  C_14
REMARK    6  A    between atoms: C_18  and  C_19
REMARK    7  A    between atoms: C_19  and  N_20
REMARK    8  A    between atoms: C_21  and  C_23
REMARK                            x       y       z     vdW  Elec       q    Type
REMARK                         _______ _______ _______ _____ _____    ______ ____
ROOT
ATOM      1  C   UNL     1       2.165  14.031  19.451  0.00  0.00    +0.000 A 
ATOM      2  C   UNL     1       1.385  15.145  19.119  0.00  0.00    +0.000 A 
ATOM      3  C   UNL     1       0.059  14.981  18.719  0.00  0.00    +0.000 A 
ATOM      4  C   UNL     1      -0.493  13.701  18.624  0.00  0.00    +0.000 A 
ATOM      5  C   UNL     1       0.271  12.571  18.942  0.00  0.00    +0.000 A 
ATOM      6  C   UNL     1       1.584  12.752  19.402  0.00  0.00    +0.000 A 
ENDROOT
BRANCH   1   7
ATOM      7  C   UNL     1       3.641  14.189  19.771  0.00  0.00    +0.000 C 
BRANCH   7  11
ATOM      8  N   UNL     1       7.067  14.979  18.598  0.00  0.00    +0.000 N 
ATOM      9  C   UNL     1       6.655  15.175  19.994  0.00  0.00    +0.000 C 
ATOM     10  C   UNL     1       5.323  15.970  20.040  0.00  0.00    +0.000 C 
ATOM     11  N   UNL     1       4.211  15.428  19.216  0.00  0.00    +0.000 NA
ATOM     12  C   UNL     1       4.720  15.224  17.841  0.00  0.00    +0.000 C 
ATOM     13  C   UNL     1       6.026  14.396  17.733  0.00  0.00    +0.000 C 
BRANCH   8  19
ATOM     14  C   UNL     1       9.317  13.934  18.303  0.00  0.00    +0.000 A 
ATOM     15  C   UNL     1      10.672  14.111  17.960  0.00  0.00    +0.000 A 
ATOM     16  C   UNL     1      11.137  15.334  17.482  0.00  0.00    +0.000 A 
ATOM     17  C   UNL     1      10.259  16.395  17.348  0.00  0.00    +0.000 A 
ATOM     18  C   UNL     1       8.920  16.235  17.713  0.00  0.00    +0.000 A 
ATOM     19  C   UNL     1       8.401  15.014  18.205  0.00  0.00    +0.000 A 
BRANCH  14  21
ATOM     20  C   UNL     1       9.365  11.551  18.107  0.00  0.00    +0.000 C 
ATOM     21  O   UNL     1       8.831  12.715  18.728  0.00  0.00    +0.000 OA
ENDBRANCH  14  21
ENDBRANCH   8  19
ENDBRANCH   7  11
ENDBRANCH   1   7
BRANCH   5  22
ATOM     22  C   UNL     1      -0.249  11.183  18.677  0.00  0.00    +0.000 C 
BRANCH  22  23
ATOM     23  N   UNL     1       0.770  10.218  18.336  0.00  0.00    +0.000 N 
ATOM     24  C   UNL     1       1.141   9.301  19.304  0.00  0.00    +0.000 C 
ATOM     25  O   UNL     1       0.706   9.321  20.452  0.00  0.00    +0.000 OA
ATOM     26  H   UNL     1       0.917   9.995  17.361  0.00  0.00    +0.000 HD
BRANCH  24  27
ATOM     27  C   UNL     1       2.065   8.214  18.893  0.00  0.00    +0.000 A 
ATOM     28  C   UNL     1       2.776   8.366  17.700  0.00  0.00    +0.000 A 
ATOM     29  C   UNL     1       3.676   7.383  17.288  0.00  0.00    +0.000 A 
ATOM     30  C   UNL     1       3.859   6.219  18.050  0.00  0.00    +0.000 A 
ATOM     31  C   UNL     1       4.793   5.243  17.668  0.00  0.00    +0.000 A 
ATOM     32  C   UNL     1       4.942   4.072  18.411  0.00  0.00    +0.000 A 
ATOM     33  C   UNL     1       4.141   3.851  19.527  0.00  0.00    +0.000 A 
ATOM     34  C   UNL     1       3.218   4.820  19.929  0.00  0.00    +0.000 A 
ATOM     35  C   UNL     1       3.084   6.025  19.219  0.00  0.00    +0.000 A 
ATOM     36  C   UNL     1       2.199   7.038  19.640  0.00  0.00    +0.000 A 
ENDBRANCH  24  27
ENDBRANCH  22  23
ENDBRANCH   5  22
TORSDOF 7
ENDMDL
MODEL 4
REMARK VINA RESULT:      -7.9      4.602      9.300
REMARK  Name = 
REMARK  8 active torsions:
REMARK  status: ('A' for Active; 'I' for Inactive)
REMARK    1  A    between atoms: C_1  and  O_2
REMARK    2  A    between atoms: O_2  and  C_3
REMARK    3  A    between atoms: C_8  and  N_9
REMARK    4  A    between atoms: N_12  and  C_13
REMARK    5  A    between atoms: C_13  and  C_14
REMARK    6  A    between atoms: C_18  and  C_19
REMARK    7  A    between atoms: C_19  and  N_20
REMARK    8  A    between atoms: C_21  and  C_23
REMARK                            x       y       z     vdW  Elec       q    Type
REMARK                         _______ _______ _______ _____ _____    ______ ____
ROOT
ATOM      1  C   UNL     1       1.876  12.084  18.678  0.00  0.00    +0.000 A 
ATOM      2  C   UNL     1       0.600  12.458  19.115  0.00  0.00    +0.000 A 
ATOM      3  C   UNL     1       0.225  13.802  19.121  0.00  0.00    +0.000 A 
ATOM      4  C   UNL     1       1.129  14.786  18.713  0.00  0.00    +0.000 A 
ATOM      5  C   UNL     1       2.414  14.436  18.279  0.00  0.00    +0.000 A 
ATOM      6  C   UNL     1       2.759  13.077  18.220  0.00  0.00    +0.000 A 
ENDROOT
BRANCH   1   7
ATOM      7  C   UNL     1       2.336  10.641  18.779  0.00  0.00    +0.000 C 
BRANCH   7  11
ATOM      8  N   UNL     1       2.171   7.003  19.472  0.00  0.00    +0.000 N 
ATOM      9  C   UNL     1       2.544   7.530  18.153  0.00  0.00    +0.000 C 
ATOM     10  C   UNL     1       1.503   8.587  17.699  0.00  0.00    +0.000 C 
ATOM     11  N   UNL     1       1.223   9.683  18.663  0.00  0.00    +0.000 NA
ATOM     12  C   UNL     1       0.896   9.069  19.970  0.00  0.00    +0.000 C 
ATOM     13  C   UNL     1       1.927   8.036  20.494  0.00  0.00    +0.000 C 
BRANCH   8  19
ATOM     14  C   UNL     1       3.465   4.865  19.426  0.00  0.00    +0.000 A 
ATOM     15  C   UNL     1       3.509   3.498  19.761  0.00  0.00    +0.000 A 
ATOM     16  C   UNL     1       2.497   2.911  20.516  0.00  0.00    +0.000 A 
ATOM     17  C   UNL     1       1.427   3.680  20.940  0.00  0.00    +0.000 A 
ATOM     18  C   UNL     1       1.362   5.029  20.587  0.00  0.00    +0.000 A 
ATOM     19  C   UNL     1       2.363   5.669  19.820  0.00  0.00    +0.000 A 
BRANCH  14  21
ATOM     20  C   UNL     1       5.801   5.344  19.248  0.00  0.00    +0.000 C 
ATOM     21  O   UNL     1       4.484   5.472  18.723  0.00  0.00    +0.000 OA
ENDBRANCH  14  21
ENDBRANCH   8  19
ENDBRANCH   7  11
ENDBRANCH   1   7
BRANCH   5  22
ATOM     22  C   UNL     1       3.454  15.490  18.006  0.00  0.00    +0.000 C 
BRANCH  22  23
ATOM     23  N   UNL     1       4.779  14.971  17.755  0.00  0.00    +0.000 N 
ATOM     24  C   UNL     1       5.859  15.732  18.169  0.00  0.00    +0.000 C 
ATOM     25  O   UNL     1       5.745  16.851  18.660  0.00  0.00    +0.000 OA
ATOM     26  H   UNL     1       4.892  13.973  17.637  0.00  0.00    +0.000 HD
BRANCH  24  27
ATOM     27  C   UNL     1       7.206  15.118  18.057  0.00  0.00    +0.000 A 
ATOM     28  C   UNL     1       8.308  15.964  17.910  0.00  0.00    +0.000 A 
ATOM     29  C   UNL     1       9.596  15.433  17.830  0.00  0.00    +0.000 A 
ATOM     30  C   UNL     1       9.798  14.045  17.868  0.00  0.00    +0.000 A 
ATOM     31  C   UNL     1      11.092  13.501  17.831  0.00  0.00    +0.000 A 
ATOM     32  C   UNL     1      11.283  12.119  17.832  0.00  0.00    +0.000 A 
ATOM     33  C   UNL     1      10.183  11.267  17.843  0.00  0.00    +0.000 A 
ATOM     34  C   UNL     1       8.890  11.793  17.896  0.00  0.00    +0.000 A 
ATOM     35  C   UNL     1       8.679  13.181  17.939  0.00  0.00    +0.000 A 
ATOM     36  C   UNL     1       7.386  13.730  18.048  0.00  0.00    +0.000 A 
ENDBRANCH  24  27
ENDBRANCH  22  23
ENDBRANCH   5  22
TORSDOF 7
ENDMDL
MODEL 5
REMARK VINA RESULT:      -7.8      4.757      9.430
REMARK  Name = 
REMARK  8 active torsions:
REMARK  status: ('A' for Active; 'I' for Inactive)
REMARK    1  A    between atoms: C_1  and  O_2
REMARK    2  A    between atoms: O_2  and  C_3
REMARK    3  A    between atoms: C_8  and  N_9
REMARK    4  A    between atoms: N_12  and  C_13
REMARK    5  A    between atoms: C_13  and  C_14
REMARK    6  A    between atoms: C_18  and  C_19
REMARK    7  A    between atoms: C_19  and  N_20
REMARK    8  A    between atoms: C_21  and  C_23
REMARK                            x       y       z     vdW  Elec       q    Type
REMARK                         _______ _______ _______ _____ _____    ______ ____
ROOT
ATOM      1  C   UNL     1       1.799  12.217  18.891  0.00  0.00    +0.000 A 
ATOM      2  C   UNL     1       0.560  12.684  19.346  0.00  0.00    +0.000 A 
ATOM      3  C   UNL     1       0.228  14.032  19.218  0.00  0.00    +0.000 A 
ATOM      4  C   UNL     1       1.137  14.931  18.655  0.00  0.00    +0.000 A 
ATOM      5  C   UNL     1       2.386  14.488  18.201  0.00  0.00    +0.000 A 
ATOM      6  C   UNL     1       2.685  13.119  18.279  0.00  0.00    +0.000 A 
ENDROOT
BRANCH   1   7
ATOM      7  C   UNL     1       2.219  10.778  19.133  0.00  0.00    +0.000 C 
BRANCH   7  11
ATOM      8  N   UNL     1       2.034   7.108  19.621  0.00  0.00    +0.000 N 
ATOM      9  C   UNL     1       2.530   7.706  18.375  0.00  0.00    +0.000 C 
ATOM     10  C   UNL     1       1.526   8.776  17.872  0.00  0.00    +0.000 C 
ATOM     11  N   UNL     1       1.136   9.819  18.857  0.00  0.00    +0.000 NA
ATOM     12  C   UNL     1       0.688   9.135  20.092  0.00  0.00    +0.000 C 
ATOM     13  C   UNL     1       1.675   8.085  20.664  0.00  0.00    +0.000 C 
BRANCH   8  19
ATOM     14  C   UNL     1       3.418   5.033  19.769  0.00  0.00    +0.000 A 
ATOM     15  C   UNL     1       3.454   3.646  20.014  0.00  0.00    +0.000 A 
ATOM     16  C   UNL     1       2.320   2.963  20.444  0.00  0.00    +0.000 A 
ATOM     17  C   UNL     1       1.134   3.654  20.628  0.00  0.00    +0.000 A 
ATOM     18  C   UNL     1       1.083   5.023  20.360  0.00  0.00    +0.000 A 
ATOM     19  C   UNL     1       2.208   5.760  19.919  0.00  0.00    +0.000 A 
BRANCH  14  21
ATOM     20  C   UNL     1       5.565   5.004  18.717  0.00  0.00    +0.000 C 
ATOM     21  O   UNL     1       4.546   5.732  19.392  0.00  0.00    +0.000 OA
ENDBRANCH  14  21
ENDBRANCH   8  19
ENDBRANCH   7  11
ENDBRANCH   1   7
BRANCH   5  22
ATOM     22  C   UNL     1       3.442  15.466  17.757  0.00  0.00    +0.000 C 
BRANCH  22  23
ATOM     23  N   UNL     1       4.745  14.881  17.542  0.00  0.00    +0.000 N 
ATOM     24  C   UNL     1       5.773  15.269  18.384  0.00  0.00    +0.000 C 
ATOM     25  O   UNL     1       5.648  16.137  19.243  0.00  0.00    +0.000 OA
ATOM     26  H   UNL     1       4.802  13.989  17.069  0.00  0.00    +0.000 HD
BRANCH  24  27
ATOM     27  C   UNL     1       7.062  14.543  18.263  0.00  0.00    +0.000 A 
ATOM     28  C   UNL     1       7.100  13.391  17.471  0.00  0.00    +0.000 A 
ATOM     29  C   UNL     1       8.296  12.692  17.306  0.00  0.00    +0.000 A 
ATOM     30  C   UNL     1       9.467  13.119  17.952  0.00  0.00    +0.000 A 
ATOM     31  C   UNL     1      10.685  12.448  17.759  0.00  0.00    +0.000 A 
ATOM     32  C   UNL     1      11.836  12.856  18.434  0.00  0.00    +0.000 A 
ATOM     33  C   UNL     1      11.775  13.919  19.329  0.00  0.00    +0.000 A 
ATOM     34  C   UNL     1      10.574  14.607  19.519  0.00  0.00    +0.000 A 
ATOM     35  C   UNL     1       9.415  14.239  18.816  0.00  0.00    +0.000 A 
ATOM     36  C   UNL     1       8.208  14.953  18.953  0.00  0.00    +0.000 A 
ENDBRANCH  24  27
ENDBRANCH  22  23
ENDBRANCH   5  22
TORSDOF 7
ENDMDL
MODEL 6
REMARK VINA RESULT:      -7.8      0.987      1.561
REMARK  Name = 
REMARK  8 active torsions:
REMARK  status: ('A' for Active; 'I' for Inactive)
REMARK    1  A    between atoms: C_1  and  O_2
REMARK    2  A    between atoms: O_2  and  C_3
REMARK    3  A    between atoms: C_8  and  N_9
REMARK    4  A    between atoms: N_12  and  C_13
REMARK    5  A    between atoms: C_13  and  C_14
REMARK    6  A    between atoms: C_18  and  C_19
REMARK    7  A    between atoms: C_19  and  N_20
REMARK    8  A    between atoms: C_21  and  C_23
REMARK                            x       y       z     vdW  Elec       q    Type
REMARK                         _______ _______ _______ _____ _____    ______ ____
ROOT
ATOM      1  C   UNL     1       1.671   5.098  20.047  0.00  0.00    +0.000 A 
ATOM      2  C   UNL     1       0.805   4.287  20.789  0.00  0.00    +0.000 A 
ATOM      3  C   UNL     1       1.221   3.031  21.229  0.00  0.00    +0.000 A 
ATOM      4  C   UNL     1       2.499   2.563  20.912  0.00  0.00    +0.000 A 
ATOM      5  C   UNL     1       3.380   3.353  20.163  0.00  0.00    +0.000 A 
ATOM      6  C   UNL     1       2.973   4.639  19.778  0.00  0.00    +0.000 A 
ENDROOT
BRANCH   1   7
ATOM      7  C   UNL     1       1.189   6.413  19.463  0.00  0.00    +0.000 C 
BRANCH   7  11
ATOM      8  N   UNL     1       0.618  10.075  19.551  0.00  0.00    +0.000 N 
ATOM      9  C   UNL     1       1.013   9.376  18.321  0.00  0.00    +0.000 C 
ATOM     10  C   UNL     1       2.241   8.471  18.605  0.00  0.00    +0.000 C 
ATOM     11  N   UNL     1       2.108   7.529  19.747  0.00  0.00    +0.000 NA
ATOM     12  C   UNL     1       1.671   8.305  20.930  0.00  0.00    +0.000 C 
ATOM     13  C   UNL     1       0.419   9.194  20.715  0.00  0.00    +0.000 C 
BRANCH   8  19
ATOM     14  C   UNL     1       0.935  12.543  19.324  0.00  0.00    +0.000 A 
ATOM     15  C   UNL     1       0.365  13.827  19.429  0.00  0.00    +0.000 A 
ATOM     16  C   UNL     1      -0.989  13.990  19.712  0.00  0.00    +0.000 A 
ATOM     17  C   UNL     1      -1.787  12.876  19.899  0.00  0.00    +0.000 A 
ATOM     18  C   UNL     1      -1.224  11.601  19.824  0.00  0.00    +0.000 A 
ATOM     19  C   UNL     1       0.145  11.384  19.542  0.00  0.00    +0.000 A 
BRANCH  14  21
ATOM     20  C   UNL     1       2.913  13.436  18.320  0.00  0.00    +0.000 C 
ATOM     21  O   UNL     1       2.262  12.365  18.994  0.00  0.00    +0.000 OA
ENDBRANCH  14  21
ENDBRANCH   8  19
ENDBRANCH   7  11
ENDBRANCH   1   7
BRANCH   5  22
ATOM     22  C   UNL     1       4.688   2.797  19.665  0.00  0.00    +0.000 C 
BRANCH  22  23
ATOM     23  N   UNL     1       4.999   3.138  18.296  0.00  0.00    +0.000 N 
ATOM     24  C   UNL     1       5.873   4.188  18.075  0.00  0.00    +0.000 C 
ATOM     25  O   UNL     1       6.328   4.887  18.976  0.00  0.00    +0.000 OA
ATOM     26  H   UNL     1       4.888   2.428  17.584  0.00  0.00    +0.000 HD
BRANCH  24  27
ATOM     27  C   UNL     1       6.314   4.423  16.677  0.00  0.00    +0.000 A 
ATOM     28  C   UNL     1       7.258   5.428  16.442  0.00  0.00    +0.000 A 
ATOM     29  C   UNL     1       7.723   5.665  15.147  0.00  0.00    +0.000 A 
ATOM     30  C   UNL     1       7.230   4.920  14.065  0.00  0.00    +0.000 A 
ATOM     31  C   UNL     1       7.722   5.121  12.765  0.00  0.00    +0.000 A 
ATOM     32  C   UNL     1       7.201   4.402  11.689  0.00  0.00    +0.000 A 
ATOM     33  C   UNL     1       6.165   3.497  11.896  0.00  0.00    +0.000 A 
ATOM     34  C   UNL     1       5.677   3.274  13.185  0.00  0.00    +0.000 A 
ATOM     35  C   UNL     1       6.218   3.955  14.288  0.00  0.00    +0.000 A 
ATOM     36  C   UNL     1       5.777   3.705  15.603  0.00  0.00    +0.000 A 
ENDBRANCH  24  27
ENDBRANCH  22  23
ENDBRANCH   5  22
TORSDOF 7
ENDMDL
MODEL 7
REMARK VINA RESULT:      -7.7      4.732      6.599
REMARK  Name = 
REMARK  8 active torsions:
REMARK  status: ('A' for Active; 'I' for Inactive)
REMARK    1  A    between atoms: C_1  and  O_2
REMARK    2  A    between atoms: O_2  and  C_3
REMARK    3  A    between atoms: C_8  and  N_9
REMARK    4  A    between atoms: N_12  and  C_13
REMARK    5  A    between atoms: C_13  and  C_14
REMARK    6  A    between atoms: C_18  and  C_19
REMARK    7  A    between atoms: C_19  and  N_20
REMARK    8  A    between atoms: C_21  and  C_23
REMARK                            x       y       z     vdW  Elec       q    Type
REMARK                         _______ _______ _______ _____ _____    ______ ____
ROOT
ATOM      1  C   UNL     1      -0.279  11.274  21.082  0.00  0.00    +0.000 A 
ATOM      2  C   UNL     1       0.095  11.791  19.836  0.00  0.00    +0.000 A 
ATOM      3  C   UNL     1       0.754  10.983  18.909  0.00  0.00    +0.000 A 
ATOM      4  C   UNL     1       1.065   9.659  19.226  0.00  0.00    +0.000 A 
ATOM      5  C   UNL     1       0.709   9.122  20.469  0.00  0.00    +0.000 A 
ATOM      6  C   UNL     1      -0.008   9.925  21.370  0.00  0.00    +0.000 A 
ENDROOT
BRANCH   1   7
ATOM      7  C   UNL     1      -0.889  12.174  22.141  0.00  0.00    +0.000 C 
BRANCH   7  11
ATOM      8  N   UNL     1      -3.337  14.650  23.414  0.00  0.00    +0.000 N 
ATOM      9  C   UNL     1      -2.862  13.529  24.235  0.00  0.00    +0.000 C 
ATOM     10  C   UNL     1      -2.986  12.205  23.435  0.00  0.00    +0.000 C 
ATOM     11  N   UNL     1      -2.361  12.195  22.087  0.00  0.00    +0.000 NA
ATOM     12  C   UNL     1      -2.861  13.373  21.343  0.00  0.00    +0.000 C 
ATOM     13  C   UNL     1      -2.719  14.731  22.078  0.00  0.00    +0.000 C 
BRANCH   8  19
ATOM     14  C   UNL     1      -5.404  16.020  23.716  0.00  0.00    +0.000 A 
ATOM     15  C   UNL     1      -5.986  17.189  24.245  0.00  0.00    +0.000 A 
ATOM     16  C   UNL     1      -5.249  18.058  25.045  0.00  0.00    +0.000 A 
ATOM     17  C   UNL     1      -3.922  17.776  25.320  0.00  0.00    +0.000 A 
ATOM     18  C   UNL     1      -3.331  16.635  24.775  0.00  0.00    +0.000 A 
ATOM     19  C   UNL     1      -4.037  15.723  23.956  0.00  0.00    +0.000 A 
BRANCH  14  21
ATOM     20  C   UNL     1      -6.889  14.146  23.674  0.00  0.00    +0.000 C 
ATOM     21  O   UNL     1      -6.135  15.124  22.965  0.00  0.00    +0.000 OA
ENDBRANCH  14  21
ENDBRANCH   8  19
ENDBRANCH   7  11
ENDBRANCH   1   7
BRANCH   5  22
ATOM     22  C   UNL     1       1.190   7.760  20.894  0.00  0.00    +0.000 C 
BRANCH  22  23
ATOM     23  N   UNL     1       2.418   7.337  20.263  0.00  0.00    +0.000 N 
ATOM     24  C   UNL     1       2.481   6.043  19.775  0.00  0.00    +0.000 C 
ATOM     25  O   UNL     1       1.580   5.223  19.925  0.00  0.00    +0.000 OA
ATOM     26  H   UNL     1       3.029   8.043  19.874  0.00  0.00    +0.000 HD
BRANCH  24  27
ATOM     27  C   UNL     1       3.682   5.672  18.984  0.00  0.00    +0.000 A 
ATOM     28  C   UNL     1       4.789   5.157  19.665  0.00  0.00    +0.000 A 
ATOM     29  C   UNL     1       5.928   4.768  18.959  0.00  0.00    +0.000 A 
ATOM     30  C   UNL     1       5.988   4.914  17.565  0.00  0.00    +0.000 A 
ATOM     31  C   UNL     1       7.112   4.487  16.840  0.00  0.00    +0.000 A 
ATOM     32  C   UNL     1       7.179   4.669  15.459  0.00  0.00    +0.000 A 
ATOM     33  C   UNL     1       6.137   5.304  14.792  0.00  0.00    +0.000 A 
ATOM     34  C   UNL     1       5.004   5.719  15.496  0.00  0.00    +0.000 A 
ATOM     35  C   UNL     1       4.899   5.506  16.881  0.00  0.00    +0.000 A 
ATOM     36  C   UNL     1       3.743   5.868  17.600  0.00  0.00    +0.000 A 
ENDBRANCH  24  27
ENDBRANCH  22  23
ENDBRANCH   5  22
TORSDOF 7
ENDMDL
MODEL 8
REMARK VINA RESULT:      -7.7      4.655      6.640
REMARK  Name = 
REMARK  8 active torsions:
REMARK  status: ('A' for Active; 'I' for Inactive)
REMARK    1  A    between atoms: C_1  and  O_2
REMARK    2  A    between atoms: O_2  and  C_3
REMARK    3  A    between atoms: C_8  and  N_9
REMARK    4  A    between atoms: N_12  and  C_13
REMARK    5  A    between atoms: C_13  and  C_14
REMARK    6  A    between atoms: C_18  and  C_19
REMARK    7  A    between atoms: C_19  and  N_20
REMARK    8  A    between atoms: C_21  and  C_23
REMARK                            x       y       z     vdW  Elec       q    Type
REMARK                         _______ _______ _______ _____ _____    ______ ____
ROOT
ATOM      1  C   UNL     1      -0.878  11.182  20.424  0.00  0.00    +0.000 A 
ATOM      2  C   UNL     1      -0.526  11.530  19.115  0.00  0.00    +0.000 A 
ATOM      3  C   UNL     1       0.388  10.752  18.402  0.00  0.00    +0.000 A 
ATOM      4  C   UNL     1       0.974   9.633  18.999  0.00  0.00    +0.000 A 
ATOM      5  C   UNL     1       0.643   9.271  20.310  0.00  0.00    +0.000 A 
ATOM      6  C   UNL     1      -0.321  10.025  20.996  0.00  0.00    +0.000 A 
ENDROOT
BRANCH   1   7
ATOM      7  C   UNL     1      -1.777  12.086  21.248  0.00  0.00    +0.000 C 
BRANCH   7  11
ATOM      8  N   UNL     1      -2.938  14.998  23.225  0.00  0.00    +0.000 N 
ATOM      9  C   UNL     1      -2.696  15.083  21.779  0.00  0.00    +0.000 C 
ATOM     10  C   UNL     1      -1.299  14.496  21.447  0.00  0.00    +0.000 C 
ATOM     11  N   UNL     1      -1.025  13.130  21.965  0.00  0.00    +0.000 NA
ATOM     12  C   UNL     1      -1.330  13.122  23.414  0.00  0.00    +0.000 C 
ATOM     13  C   UNL     1      -2.733  13.657  23.799  0.00  0.00    +0.000 C 
BRANCH   8  19
ATOM     14  C   UNL     1      -5.016  16.237  23.850  0.00  0.00    +0.000 A 
ATOM     15  C   UNL     1      -5.587  17.329  24.531  0.00  0.00    +0.000 A 
ATOM     16  C   UNL     1      -4.806  18.169  25.322  0.00  0.00    +0.000 A 
ATOM     17  C   UNL     1      -3.447  17.933  25.435  0.00  0.00    +0.000 A 
ATOM     18  C   UNL     1      -2.870  16.868  24.740  0.00  0.00    +0.000 A 
ATOM     19  C   UNL     1      -3.620  15.990  23.924  0.00  0.00    +0.000 A 
BRANCH  14  21
ATOM     20  C   UNL     1      -6.625  14.468  23.821  0.00  0.00    +0.000 C 
ATOM     21  O   UNL     1      -5.785  15.366  23.106  0.00  0.00    +0.000 OA
ENDBRANCH  14  21
ENDBRANCH   8  19
ENDBRANCH   7  11
ENDBRANCH   1   7
BRANCH   5  22
ATOM     22  C   UNL     1       1.393   8.179  21.027  0.00  0.00    +0.000 C 
BRANCH  22  23
ATOM     23  N   UNL     1       2.364   7.487  20.211  0.00  0.00    +0.000 N 
ATOM     24  C   UNL     1       2.161   6.139  19.969  0.00  0.00    +0.000 C 
ATOM     25  O   UNL     1       1.247   5.495  20.477  0.00  0.00    +0.000 OA
ATOM     26  H   UNL     1       2.925   8.027  19.566  0.00  0.00    +0.000 HD
BRANCH  24  27
ATOM     27  C   UNL     1       3.068   5.478  18.999  0.00  0.00    +0.000 A 
ATOM     28  C   UNL     1       3.401   4.137  19.212  0.00  0.00    +0.000 A 
ATOM     29  C   UNL     1       4.228   3.467  18.310  0.00  0.00    +0.000 A 
ATOM     30  C   UNL     1       4.758   4.135  17.196  0.00  0.00    +0.000 A 
ATOM     31  C   UNL     1       5.556   3.459  16.259  0.00  0.00    +0.000 A 
ATOM     32  C   UNL     1       6.109   4.139  15.174  0.00  0.00    +0.000 A 
ATOM     33  C   UNL     1       5.893   5.506  15.028  0.00  0.00    +0.000 A 
ATOM     34  C   UNL     1       5.087   6.188  15.943  0.00  0.00    +0.000 A 
ATOM     35  C   UNL     1       4.486   5.513  17.018  0.00  0.00    +0.000 A 
ATOM     36  C   UNL     1       3.626   6.172  17.919  0.00  0.00    +0.000 A 
ENDBRANCH  24  27
ENDBRANCH  22  23
ENDBRANCH   5  22
TORSDOF 7
ENDMDL
MODEL 9
REMARK VINA RESULT:      -7.7      5.055      9.499
REMARK  Name = 
REMARK  8 active torsions:
REMARK  status: ('A' for Active; 'I' for Inactive)
REMARK    1  A    between atoms: C_1  and  O_2
REMARK    2  A    between atoms: O_2  and  C_3
REMARK    3  A    between atoms: C_8  and  N_9
REMARK    4  A    between atoms: N_12  and  C_13
REMARK    5  A    between atoms: C_13  and  C_14
REMARK    6  A    between atoms: C_18  and  C_19
REMARK    7  A    between atoms: C_19  and  N_20
REMARK    8  A    between atoms: C_21  and  C_23
REMARK                            x       y       z     vdW  Elec       q    Type
REMARK                         _______ _______ _______ _____ _____    ______ ____
ROOT
ATOM      1  C   UNL     1       3.310  14.828  20.478  0.00  0.00    +0.000 A 
ATOM      2  C   UNL     1       2.791  16.122  20.354  0.00  0.00    +0.000 A 
ATOM      3  C   UNL     1       1.431  16.313  20.107  0.00  0.00    +0.000 A 
ATOM      4  C   UNL     1       0.582  15.214  19.958  0.00  0.00    +0.000 A 
ATOM      5  C   UNL     1       1.081  13.910  20.071  0.00  0.00    +0.000 A 
ATOM      6  C   UNL     1       2.437  13.730  20.380  0.00  0.00    +0.000 A 
ENDROOT
BRANCH   1   7
ATOM      7  C   UNL     1       4.804  14.605  20.628  0.00  0.00    +0.000 C 
BRANCH   7  11
ATOM      8  N   UNL     1       8.010  14.582  18.768  0.00  0.00    +0.000 N 
ATOM      9  C   UNL     1       7.958  14.681  20.232  0.00  0.00    +0.000 C 
ATOM     10  C   UNL     1       6.962  15.797  20.646  0.00  0.00    +0.000 C 
ATOM     11  N   UNL     1       5.600  15.706  20.059  0.00  0.00    +0.000 NA
ATOM     12  C   UNL     1       5.744  15.569  18.591  0.00  0.00    +0.000 C 
ATOM     13  C   UNL     1       6.695  14.439  18.121  0.00  0.00    +0.000 C 
BRANCH   8  19
ATOM     14  C   UNL     1       9.682  13.007  17.784  0.00  0.00    +0.000 A 
ATOM     15  C   UNL     1      10.937  12.843  17.166  0.00  0.00    +0.000 A 
ATOM     16  C   UNL     1      11.707  13.945  16.802  0.00  0.00    +0.000 A 
ATOM     17  C   UNL     1      11.237  15.222  17.056  0.00  0.00    +0.000 A 
ATOM     18  C   UNL     1      10.006  15.392  17.693  0.00  0.00    +0.000 A 
ATOM     19  C   UNL     1       9.190  14.305  18.084  0.00  0.00    +0.000 A 
BRANCH  14  21
ATOM     20  C   UNL     1       9.511  10.831  18.761  0.00  0.00    +0.000 C 
ATOM     21  O   UNL     1       8.885  11.928  18.103  0.00  0.00    +0.000 OA
ENDBRANCH  14  21
ENDBRANCH   8  19
ENDBRANCH   7  11
ENDBRANCH   1   7
BRANCH   5  22
ATOM     22  C   UNL     1       0.220  12.719  19.740  0.00  0.00    +0.000 C 
BRANCH  22  23
ATOM     23  N   UNL     1       0.956  11.543  19.338  0.00  0.00    +0.000 N 
ATOM     24  C   UNL     1       0.753  10.378  20.058  0.00  0.00    +0.000 C 
ATOM     25  O   UNL     1       0.046  10.320  21.060  0.00  0.00    +0.000 OA
ATOM     26  H   UNL     1       1.290  11.485  18.386  0.00  0.00    +0.000 HD
BRANCH  24  27
ATOM     27  C   UNL     1       1.384   9.139  19.537  0.00  0.00    +0.000 A 
ATOM     28  C   UNL     1       1.827   9.129  18.211  0.00  0.00    +0.000 A 
ATOM     29  C   UNL     1       2.452   7.997  17.688  0.00  0.00    +0.000 A 
ATOM     30  C   UNL     1       2.617   6.846  18.474  0.00  0.00    +0.000 A 
ATOM     31  C   UNL     1       3.282   5.716  17.972  0.00  0.00    +0.000 A 
ATOM     32  C   UNL     1       3.409   4.563  18.747  0.00  0.00    +0.000 A 
ATOM     33  C   UNL     1       2.851   4.518  20.020  0.00  0.00    +0.000 A 
ATOM     34  C   UNL     1       2.202   5.640  20.540  0.00  0.00    +0.000 A 
ATOM     35  C   UNL     1       2.100   6.825  19.792  0.00  0.00    +0.000 A 
ATOM     36  C   UNL     1       1.497   7.984  20.319  0.00  0.00    +0.000 A 
ENDBRANCH  24  27
ENDBRANCH  22  23
ENDBRANCH   5  22
TORSDOF 7
ENDMDL
