MODEL 1
REMARK VINA RESULT:      -7.8      0.000      0.000
REMARK  Name = 
REMARK  5 active torsions:
REMARK  status: ('A' for Active; 'I' for Inactive)
REMARK    1  A    between atoms: N_1  and  S_2
REMARK    2  A    between atoms: S_2  and  C_5
REMARK    3  A    between atoms: C_8  and  C_9
REMARK    4  A    between atoms: C_9  and  N_10
REMARK    5  A    between atoms: C_12  and  C_13
REMARK                            x       y       z     vdW  Elec       q    Type
REMARK                         _______ _______ _______ _____ _____    ______ ____
ROOT
ATOM      1  C   UNL     1       7.402   5.188  18.329  0.00  0.00    +0.000 C 
ENDROOT
BRANCH   1   5
ATOM      2  C   UNL     1       3.230   4.078  18.352  0.00  0.00    +0.000 A 
ATOM      3  C   UNL     1       4.047   3.699  17.285  0.00  0.00    +0.000 A 
ATOM      4  C   UNL     1       5.397   4.068  17.288  0.00  0.00    +0.000 A 
ATOM      5  C   UNL     1       5.934   4.830  18.339  0.00  0.00    +0.000 A 
ATOM      6  C   UNL     1       5.096   5.208  19.400  0.00  0.00    +0.000 A 
ATOM      7  C   UNL     1       3.750   4.836  19.406  0.00  0.00    +0.000 A 
BRANCH   2   8
ATOM      8  S   UNL     1       1.505   3.698  18.339  0.00  0.00    +0.000 S 
ATOM      9  O   UNL     1       0.906   4.270  17.158  0.00  0.00    +0.000 OA
ATOM     10  O   UNL     1       0.960   3.905  19.664  0.00  0.00    +0.000 OA
BRANCH   8  11
ATOM     11  N   UNL     1       1.504   2.034  18.108  0.00  0.00    +0.000 NA
ATOM     12  H   UNL     1       2.178   1.800  17.375  0.00  0.00    +0.000 HD
ATOM     13  H   UNL     1       0.559   1.708  17.900  0.00  0.00    +0.000 HD
ENDBRANCH   8  11
ENDBRANCH   2   8
ENDBRANCH   1   5
BRANCH   1  14
ATOM     14  N   UNL     1       7.647   6.575  17.971  0.00  0.00    +0.000 N 
ATOM     15  C   UNL     1       8.456   7.471  18.603  0.00  0.00    +0.000 A 
ATOM     16  C   UNL     1       8.120   8.679  18.030  0.00  0.00    +0.000 A 
ATOM     17  N   UNL     1       7.160   8.475  17.076  0.00  0.00    +0.000 NA
ATOM     18  N   UNL     1       6.879   7.178  17.042  0.00  0.00    +0.000 NA
BRANCH  16  19
ATOM     19  C   UNL     1       8.638   9.976  18.407  0.00  0.00    +0.000 A 
ATOM     20  C   UNL     1       9.381  10.138  19.586  0.00  0.00    +0.000 A 
ATOM     21  C   UNL     1       9.848  11.398  19.960  0.00  0.00    +0.000 A 
ATOM     22  C   UNL     1       9.569  12.498  19.159  0.00  0.00    +0.000 A 
ATOM     23  F   UNL     1      10.005  13.710  19.529  0.00  0.00    +0.000 F 
ATOM     24  C   UNL     1       8.842  12.361  17.982  0.00  0.00    +0.000 A 
ATOM     25  C   UNL     1       8.380  11.097  17.602  0.00  0.00    +0.000 A 
ENDBRANCH  16  19
ENDBRANCH   1  14
TORSDOF 5
ENDMDL
MODEL 2
REMARK VINA RESULT:      -7.8      0.125      1.017
REMARK  Name = 
REMARK  5 active torsions:
REMARK  status: ('A' for Active; 'I' for Inactive)
REMARK    1  A    between atoms: N_1  and  S_2
REMARK    2  A    between atoms: S_2  and  C_5
REMARK    3  A    between atoms: C_8  and  C_9
REMARK    4  A    between atoms: C_9  and  N_10
REMARK    5  A    between atoms: C_12  and  C_13
REMARK                            x       y       z     vdW  Elec       q    Type
REMARK                         _______ _______ _______ _____ _____    ______ ____
ROOT
ATOM      1  C   UNL     1       7.430   5.140  18.204  0.00  0.00    +0.000 C 
ENDROOT
BRANCH   1   5
ATOM      2  C   UNL     1       3.226   4.173  18.369  0.00  0.00    +0.000 A 
ATOM      3  C   UNL     1       3.822   4.877  19.417  0.00  0.00    +0.000 A 
ATOM      4  C   UNL     1       5.186   5.182  19.353  0.00  0.00    +0.000 A 
ATOM      5  C   UNL     1       5.966   4.771  18.259  0.00  0.00    +0.000 A 
ATOM      6  C   UNL     1       5.352   4.057  17.217  0.00  0.00    +0.000 A 
ATOM      7  C   UNL     1       3.989   3.757  17.273  0.00  0.00    +0.000 A 
BRANCH   2   8
ATOM      8  S   UNL     1       1.526   3.703  18.457  0.00  0.00    +0.000 S 
ATOM      9  O   UNL     1       0.868   4.083  17.232  0.00  0.00    +0.000 OA
ATOM     10  O   UNL     1       1.001   4.051  19.761  0.00  0.00    +0.000 OA
BRANCH   8  11
ATOM     11  N   UNL     1       1.613   2.026  18.442  0.00  0.00    +0.000 NA
ATOM     12  H   UNL     1       0.686   1.643  18.645  0.00  0.00    +0.000 HD
ATOM     13  H   UNL     1       2.329   1.704  19.095  0.00  0.00    +0.000 HD
ENDBRANCH   8  11
ENDBRANCH   2   8
ENDBRANCH   1   5
BRANCH   1  14
ATOM     14  N   UNL     1       7.651   6.540  17.884  0.00  0.00    +0.000 N 
ATOM     15  C   UNL     1       8.457   7.429  18.533  0.00  0.00    +0.000 A 
ATOM     16  C   UNL     1       8.096   8.649  18.001  0.00  0.00    +0.000 A 
ATOM     17  N   UNL     1       7.126   8.460  17.055  0.00  0.00    +0.000 NA
ATOM     18  N   UNL     1       6.861   7.160  16.985  0.00  0.00    +0.000 NA
BRANCH  16  19
ATOM     19  C   UNL     1       8.602   9.941  18.411  0.00  0.00    +0.000 A 
ATOM     20  C   UNL     1       9.326  10.084  19.604  0.00  0.00    +0.000 A 
ATOM     21  C   UNL     1       9.781  11.339  20.009  0.00  0.00    +0.000 A 
ATOM     22  C   UNL     1       9.510  12.452  19.224  0.00  0.00    +0.000 A 
ATOM     23  F   UNL     1       9.934  13.658  19.623  0.00  0.00    +0.000 F 
ATOM     24  C   UNL     1       8.802  12.333  18.033  0.00  0.00    +0.000 A 
ATOM     25  C   UNL     1       8.352  11.075  17.622  0.00  0.00    +0.000 A 
ENDBRANCH  16  19
ENDBRANCH   1  14
TORSDOF 5
ENDMDL
MODEL 3
REMARK VINA RESULT:      -7.7      5.914      7.353
REMARK  Name = 
REMARK  5 active torsions:
REMARK  status: ('A' for Active; 'I' for Inactive)
REMARK    1  A    between atoms: N_1  and  S_2
REMARK    2  A    between atoms: S_2  and  C_5
REMARK    3  A    between atoms: C_8  and  C_9
REMARK    4  A    between atoms: C_9  and  N_10
REMARK    5  A    between atoms: C_12  and  C_13
REMARK                            x       y       z     vdW  Elec       q    Type
REMARK                         _______ _______ _______ _____ _____    ______ ____
ROOT
ATOM      1  C   UNL     1       2.179   5.586  19.926  0.00  0.00    +0.000 C 
ENDROOT
BRANCH   1   5
ATOM      2  C   UNL     1       5.610   4.766  17.438  0.00  0.00    +0.000 A 
ATOM      3  C   UNL     1       5.789   5.173  18.762  0.00  0.00    +0.000 A 
ATOM      4  C   UNL     1       4.669   5.438  19.556  0.00  0.00    +0.000 A 
ATOM      5  C   UNL     1       3.369   5.321  19.035  0.00  0.00    +0.000 A 
ATOM      6  C   UNL     1       3.209   4.918  17.699  0.00  0.00    +0.000 A 
ATOM      7  C   UNL     1       4.323   4.644  16.904  0.00  0.00    +0.000 A 
BRANCH   2   8
ATOM      8  S   UNL     1       7.004   4.502  16.385  0.00  0.00    +0.000 S 
ATOM      9  O   UNL     1       6.585   3.745  15.231  0.00  0.00    +0.000 OA
ATOM     10  O   UNL     1       8.145   4.122  17.191  0.00  0.00    +0.000 OA
BRANCH   8  11
ATOM     11  N   UNL     1       7.339   6.052  15.833  0.00  0.00    +0.000 NA
ATOM     12  H   UNL     1       6.636   6.317  15.138  0.00  0.00    +0.000 HD
ATOM     13  H   UNL     1       8.293   6.101  15.475  0.00  0.00    +0.000 HD
ENDBRANCH   8  11
ENDBRANCH   2   8
ENDBRANCH   1   5
BRANCH   1  14
ATOM     14  N   UNL     1       1.906   7.002  20.105  0.00  0.00    +0.000 N 
ATOM     15  C   UNL     1       1.290   7.608  21.160  0.00  0.00    +0.000 A 
ATOM     16  C   UNL     1       1.051   8.889  20.709  0.00  0.00    +0.000 A 
ATOM     17  N   UNL     1       1.540   9.019  19.438  0.00  0.00    +0.000 NA
ATOM     18  N   UNL     1       2.068   7.856  19.076  0.00  0.00    +0.000 NA
BRANCH  16  19
ATOM     19  C   UNL     1       0.339   9.925  21.425  0.00  0.00    +0.000 A 
ATOM     20  C   UNL     1      -0.420   9.621  22.565  0.00  0.00    +0.000 A 
ATOM     21  C   UNL     1      -1.132  10.620  23.229  0.00  0.00    +0.000 A 
ATOM     22  C   UNL     1      -1.088  11.924  22.752  0.00  0.00    +0.000 A 
ATOM     23  F   UNL     1      -1.784  12.879  23.383  0.00  0.00    +0.000 F 
ATOM     24  C   UNL     1      -0.336  12.251  21.629  0.00  0.00    +0.000 A 
ATOM     25  C   UNL     1       0.383  11.252  20.968  0.00  0.00    +0.000 A 
ENDBRANCH  16  19
ENDBRANCH   1  14
TORSDOF 5
ENDMDL
MODEL 4
REMARK VINA RESULT:      -7.6      5.938      7.346
REMARK  Name = 
REMARK  5 active torsions:
REMARK  status: ('A' for Active; 'I' for Inactive)
REMARK    1  A    between atoms: N_1  and  S_2
REMARK    2  A    between atoms: S_2  and  C_5
REMARK    3  A    between atoms: C_8  and  C_9
REMARK    4  A    between atoms: C_9  and  N_10
REMARK    5  A    between atoms: C_12  and  C_13
REMARK                            x       y       z     vdW  Elec       q    Type
REMARK                         _______ _______ _______ _____ _____    ______ ____
ROOT
ATOM      1  C   UNL     1       2.249   5.685  19.974  0.00  0.00    +0.000 C 
ENDROOT
BRANCH   1   5
ATOM      2  C   UNL     1       5.512   5.020  17.226  0.00  0.00    +0.000 A 
ATOM      3  C   UNL     1       4.196   4.795  16.815  0.00  0.00    +0.000 A 
ATOM      4  C   UNL     1       3.148   5.011  17.716  0.00  0.00    +0.000 A 
ATOM      5  C   UNL     1       3.403   5.432  19.033  0.00  0.00    +0.000 A 
ATOM      6  C   UNL     1       4.733   5.647  19.430  0.00  0.00    +0.000 A 
ATOM      7  C   UNL     1       5.782   5.439  18.532  0.00  0.00    +0.000 A 
BRANCH   2   8
ATOM      8  S   UNL     1       6.861   4.679  16.138  0.00  0.00    +0.000 S 
ATOM      9  O   UNL     1       7.361   5.922  15.605  0.00  0.00    +0.000 OA
ATOM     10  O   UNL     1       6.521   3.553  15.294  0.00  0.00    +0.000 OA
BRANCH   8  11
ATOM     11  N   UNL     1       8.039   4.112  17.192  0.00  0.00    +0.000 NA
ATOM     12  H   UNL     1       8.954   4.185  16.738  0.00  0.00    +0.000 HD
ATOM     13  H   UNL     1       7.818   3.162  17.491  0.00  0.00    +0.000 HD
ENDBRANCH   8  11
ENDBRANCH   2   8
ENDBRANCH   1   5
BRANCH   1  14
ATOM     14  N   UNL     1       1.933   7.096  20.118  0.00  0.00    +0.000 N 
ATOM     15  C   UNL     1       1.311   7.711  21.163  0.00  0.00    +0.000 A 
ATOM     16  C   UNL     1       1.024   8.971  20.681  0.00  0.00    +0.000 A 
ATOM     17  N   UNL     1       1.493   9.082  19.400  0.00  0.00    +0.000 NA
ATOM     18  N   UNL     1       2.055   7.927  19.063  0.00  0.00    +0.000 NA
BRANCH  16  19
ATOM     19  C   UNL     1       0.288  10.003  21.378  0.00  0.00    +0.000 A 
ATOM     20  C   UNL     1       0.318  11.333  20.932  0.00  0.00    +0.000 A 
ATOM     21  C   UNL     1      -0.367  12.329  21.629  0.00  0.00    +0.000 A 
ATOM     22  C   UNL     1      -1.079  11.997  22.773  0.00  0.00    +0.000 A 
ATOM     23  F   UNL     1      -1.724  12.957  23.450  0.00  0.00    +0.000 F 
ATOM     24  C   UNL     1      -1.131  10.684  23.230  0.00  0.00    +0.000 A 
ATOM     25  C   UNL     1      -0.451   9.685  22.528  0.00  0.00    +0.000 A 
ENDBRANCH  16  19
ENDBRANCH   1  14
TORSDOF 5
ENDMDL
MODEL 5
REMARK VINA RESULT:      -7.6      5.984      7.442
REMARK  Name = 
REMARK  5 active torsions:
REMARK  status: ('A' for Active; 'I' for Inactive)
REMARK    1  A    between atoms: N_1  and  S_2
REMARK    2  A    between atoms: S_2  and  C_5
REMARK    3  A    between atoms: C_8  and  C_9
REMARK    4  A    between atoms: C_9  and  N_10
REMARK    5  A    between atoms: C_12  and  C_13
REMARK                            x       y       z     vdW  Elec       q    Type
REMARK                         _______ _______ _______ _____ _____    ______ ____
ROOT
ATOM      1  C   UNL     1       2.296   5.636  20.004  0.00  0.00    +0.000 C 
ENDROOT
BRANCH   1   5
ATOM      2  C   UNL     1       5.542   5.067  17.216  0.00  0.00    +0.000 A 
ATOM      3  C   UNL     1       4.227   4.826  16.813  0.00  0.00    +0.000 A 
ATOM      4  C   UNL     1       3.184   5.012  17.728  0.00  0.00    +0.000 A 
ATOM      5  C   UNL     1       3.445   5.416  19.048  0.00  0.00    +0.000 A 
ATOM      6  C   UNL     1       4.774   5.647  19.437  0.00  0.00    +0.000 A 
ATOM      7  C   UNL     1       5.818   5.471  18.526  0.00  0.00    +0.000 A 
BRANCH   2   8
ATOM      8  S   UNL     1       6.886   4.766  16.110  0.00  0.00    +0.000 S 
ATOM      9  O   UNL     1       7.418   6.028  15.661  0.00  0.00    +0.000 OA
ATOM     10  O   UNL     1       6.522   3.706  15.194  0.00  0.00    +0.000 OA
BRANCH   8  11
ATOM     11  N   UNL     1       8.047   4.102  17.126  0.00  0.00    +0.000 NA
ATOM     12  H   UNL     1       8.359   3.208  16.736  0.00  0.00    +0.000 HD
ATOM     13  H   UNL     1       7.679   4.016  18.074  0.00  0.00    +0.000 HD
ENDBRANCH   8  11
ENDBRANCH   2   8
ENDBRANCH   1   5
BRANCH   1  14
ATOM     14  N   UNL     1       1.924   7.035  20.134  0.00  0.00    +0.000 N 
ATOM     15  C   UNL     1       1.194   7.617  21.127  0.00  0.00    +0.000 A 
ATOM     16  C   UNL     1       0.912   8.873  20.634  0.00  0.00    +0.000 A 
ATOM     17  N   UNL     1       1.488   9.015  19.401  0.00  0.00    +0.000 NA
ATOM     18  N   UNL     1       2.113   7.882  19.103  0.00  0.00    +0.000 NA
BRANCH  16  19
ATOM     19  C   UNL     1       0.086   9.874  21.273  0.00  0.00    +0.000 A 
ATOM     20  C   UNL     1      -0.275   9.754  22.624  0.00  0.00    +0.000 A 
ATOM     21  C   UNL     1      -1.101  10.705  23.223  0.00  0.00    +0.000 A 
ATOM     22  C   UNL     1      -1.569  11.776  22.473  0.00  0.00    +0.000 A 
ATOM     23  F   UNL     1      -2.374  12.680  23.047  0.00  0.00    +0.000 F 
ATOM     24  C   UNL     1      -1.218  11.921  21.135  0.00  0.00    +0.000 A 
ATOM     25  C   UNL     1      -0.385  10.973  20.536  0.00  0.00    +0.000 A 
ENDBRANCH  16  19
ENDBRANCH   1  14
TORSDOF 5
ENDMDL
MODEL 6
REMARK VINA RESULT:      -7.6      4.984      7.088
REMARK  Name = 
REMARK  5 active torsions:
REMARK  status: ('A' for Active; 'I' for Inactive)
REMARK    1  A    between atoms: N_1  and  S_2
REMARK    2  A    between atoms: S_2  and  C_5
REMARK    3  A    between atoms: C_8  and  C_9
REMARK    4  A    between atoms: C_9  and  N_10
REMARK    5  A    between atoms: C_12  and  C_13
REMARK                            x       y       z     vdW  Elec       q    Type
REMARK                         _______ _______ _______ _____ _____    ______ ____
ROOT
ATOM      1  C   UNL     1       5.467   6.715  17.275  0.00  0.00    +0.000 C 
ENDROOT
BRANCH   1   5
ATOM      2  C   UNL     1       2.972   3.883  19.370  0.00  0.00    +0.000 A 
ATOM      3  C   UNL     1       2.390   4.951  18.682  0.00  0.00    +0.000 A 
ATOM      4  C   UNL     1       3.211   5.863  18.010  0.00  0.00    +0.000 A 
ATOM      5  C   UNL     1       4.610   5.731  18.035  0.00  0.00    +0.000 A 
ATOM      6  C   UNL     1       5.177   4.655  18.737  0.00  0.00    +0.000 A 
ATOM      7  C   UNL     1       4.363   3.737  19.403  0.00  0.00    +0.000 A 
BRANCH   2   8
ATOM      8  S   UNL     1       1.970   2.761  20.295  0.00  0.00    +0.000 S 
ATOM      9  O   UNL     1       2.523   2.618  21.619  0.00  0.00    +0.000 OA
ATOM     10  O   UNL     1       1.637   1.622  19.465  0.00  0.00    +0.000 OA
BRANCH   8  11
ATOM     11  N   UNL     1       0.538   3.619  20.474  0.00  0.00    +0.000 NA
ATOM     12  H   UNL     1       0.134   3.405  21.390  0.00  0.00    +0.000 HD
ATOM     13  H   UNL     1      -0.096   3.414  19.701  0.00  0.00    +0.000 HD
ENDBRANCH   8  11
ENDBRANCH   2   8
ENDBRANCH   1   5
BRANCH   1  14
ATOM     14  N   UNL     1       6.063   6.145  16.078  0.00  0.00    +0.000 N 
ATOM     15  C   UNL     1       5.451   5.406  15.110  0.00  0.00    +0.000 A 
ATOM     16  C   UNL     1       6.499   4.902  14.369  0.00  0.00    +0.000 A 
ATOM     17  N   UNL     1       7.680   5.360  14.887  0.00  0.00    +0.000 NA
ATOM     18  N   UNL     1       7.403   6.128  15.934  0.00  0.00    +0.000 NA
BRANCH  16  19
ATOM     19  C   UNL     1       6.393   3.980  13.259  0.00  0.00    +0.000 A 
ATOM     20  C   UNL     1       5.153   3.433  12.894  0.00  0.00    +0.000 A 
ATOM     21  C   UNL     1       5.065   2.518  11.845  0.00  0.00    +0.000 A 
ATOM     22  C   UNL     1       6.215   2.147  11.162  0.00  0.00    +0.000 A 
ATOM     23  F   UNL     1       6.129   1.256  10.164  0.00  0.00    +0.000 F 
ATOM     24  C   UNL     1       7.453   2.681  11.499  0.00  0.00    +0.000 A 
ATOM     25  C   UNL     1       7.542   3.604  12.545  0.00  0.00    +0.000 A 
ENDBRANCH  16  19
ENDBRANCH   1  14
TORSDOF 5
ENDMDL
MODEL 7
REMARK VINA RESULT:      -7.6      5.988      7.555
REMARK  Name = 
REMARK  5 active torsions:
REMARK  status: ('A' for Active; 'I' for Inactive)
REMARK    1  A    between atoms: N_1  and  S_2
REMARK    2  A    between atoms: S_2  and  C_5
REMARK    3  A    between atoms: C_8  and  C_9
REMARK    4  A    between atoms: C_9  and  N_10
REMARK    5  A    between atoms: C_12  and  C_13
REMARK                            x       y       z     vdW  Elec       q    Type
REMARK                         _______ _______ _______ _____ _____    ______ ____
ROOT
ATOM      1  C   UNL     1       2.260   5.649  20.005  0.00  0.00    +0.000 C 
ENDROOT
BRANCH   1   5
ATOM      2  C   UNL     1       5.558   4.966  17.305  0.00  0.00    +0.000 A 
ATOM      3  C   UNL     1       5.803   5.395  18.612  0.00  0.00    +0.000 A 
ATOM      4  C   UNL     1       4.725   5.615  19.476  0.00  0.00    +0.000 A 
ATOM      5  C   UNL     1       3.402   5.432  19.041  0.00  0.00    +0.000 A 
ATOM      6  C   UNL     1       3.174   5.007  17.721  0.00  0.00    +0.000 A 
ATOM      7  C   UNL     1       4.247   4.778  16.857  0.00  0.00    +0.000 A 
BRANCH   2   8
ATOM      8  S   UNL     1       6.892   4.757  16.166  0.00  0.00    +0.000 S 
ATOM      9  O   UNL     1       7.379   6.055  15.768  0.00  0.00    +0.000 OA
ATOM     10  O   UNL     1       6.544   3.731  15.206  0.00  0.00    +0.000 OA
BRANCH   8  11
ATOM     11  N   UNL     1       8.089   4.082  17.131  0.00  0.00    +0.000 NA
ATOM     12  H   UNL     1       8.309   3.145  16.782  0.00  0.00    +0.000 HD
ATOM     13  H   UNL     1       7.796   4.083  18.109  0.00  0.00    +0.000 HD
ENDBRANCH   8  11
ENDBRANCH   2   8
ENDBRANCH   1   5
BRANCH   1  14
ATOM     14  N   UNL     1       1.888   7.047  20.141  0.00  0.00    +0.000 N 
ATOM     15  C   UNL     1       1.135   7.621  21.121  0.00  0.00    +0.000 A 
ATOM     16  C   UNL     1       0.867   8.883  20.635  0.00  0.00    +0.000 A 
ATOM     17  N   UNL     1       1.472   9.035  19.417  0.00  0.00    +0.000 NA
ATOM     18  N   UNL     1       2.102   7.904  19.122  0.00  0.00    +0.000 NA
BRANCH  16  19
ATOM     19  C   UNL     1       0.027   9.879  21.264  0.00  0.00    +0.000 A 
ATOM     20  C   UNL     1      -0.414  11.003  20.550  0.00  0.00    +0.000 A 
ATOM     21  C   UNL     1      -1.195  11.976  21.174  0.00  0.00    +0.000 A 
ATOM     22  C   UNL     1      -1.532  11.828  22.512  0.00  0.00    +0.000 A 
ATOM     23  F   UNL     1      -2.269  12.772  23.113  0.00  0.00    +0.000 F 
ATOM     24  C   UNL     1      -1.115  10.719  23.239  0.00  0.00    +0.000 A 
ATOM     25  C   UNL     1      -0.339   9.739  22.612  0.00  0.00    +0.000 A 
ENDBRANCH  16  19
ENDBRANCH   1  14
TORSDOF 5
ENDMDL
MODEL 8
REMARK VINA RESULT:      -7.4      4.998      7.065
REMARK  Name = 
REMARK  5 active torsions:
REMARK  status: ('A' for Active; 'I' for Inactive)
REMARK    1  A    between atoms: N_1  and  S_2
REMARK    2  A    between atoms: S_2  and  C_5
REMARK    3  A    between atoms: C_8  and  C_9
REMARK    4  A    between atoms: C_9  and  N_10
REMARK    5  A    between atoms: C_12  and  C_13
REMARK                            x       y       z     vdW  Elec       q    Type
REMARK                         _______ _______ _______ _____ _____    ______ ____
ROOT
ATOM      1  C   UNL     1       5.358   6.783  17.216  0.00  0.00    +0.000 C 
ENDROOT
BRANCH   1   5
ATOM      2  C   UNL     1       3.011   4.016  19.555  0.00  0.00    +0.000 A 
ATOM      3  C   UNL     1       4.392   3.842  19.448  0.00  0.00    +0.000 A 
ATOM      4  C   UNL     1       5.141   4.744  18.684  0.00  0.00    +0.000 A 
ATOM      5  C   UNL     1       4.520   5.808  18.008  0.00  0.00    +0.000 A 
ATOM      6  C   UNL     1       3.129   5.964  18.123  0.00  0.00    +0.000 A 
ATOM      7  C   UNL     1       2.377   5.071  18.890  0.00  0.00    +0.000 A 
BRANCH   2   8
ATOM      8  S   UNL     1       2.027   2.850  20.444  0.00  0.00    +0.000 S 
ATOM      9  O   UNL     1       2.488   2.789  21.809  0.00  0.00    +0.000 OA
ATOM     10  O   UNL     1       1.842   1.664  19.634  0.00  0.00    +0.000 OA
BRANCH   8  11
ATOM     11  N   UNL     1       0.526   3.602  20.488  0.00  0.00    +0.000 NA
ATOM     12  H   UNL     1      -0.113   3.036  21.053  0.00  0.00    +0.000 HD
ATOM     13  H   UNL     1       0.184   3.763  19.540  0.00  0.00    +0.000 HD
ENDBRANCH   8  11
ENDBRANCH   2   8
ENDBRANCH   1   5
BRANCH   1  14
ATOM     14  N   UNL     1       5.996   6.176  16.060  0.00  0.00    +0.000 N 
ATOM     15  C   UNL     1       5.413   5.435  15.076  0.00  0.00    +0.000 A 
ATOM     16  C   UNL     1       6.482   4.891  14.396  0.00  0.00    +0.000 A 
ATOM     17  N   UNL     1       7.648   5.330  14.962  0.00  0.00    +0.000 NA
ATOM     18  N   UNL     1       7.341   6.124  15.981  0.00  0.00    +0.000 NA
BRANCH  16  19
ATOM     19  C   UNL     1       6.405   3.951  13.298  0.00  0.00    +0.000 A 
ATOM     20  C   UNL     1       7.554   3.592  12.578  0.00  0.00    +0.000 A 
ATOM     21  C   UNL     1       7.466   2.712  11.499  0.00  0.00    +0.000 A 
ATOM     22  C   UNL     1       6.230   2.193  11.138  0.00  0.00    +0.000 A 
ATOM     23  F   UNL     1       6.146   1.360  10.092  0.00  0.00    +0.000 F 
ATOM     24  C   UNL     1       5.079   2.527  11.842  0.00  0.00    +0.000 A 
ATOM     25  C   UNL     1       5.167   3.403  12.928  0.00  0.00    +0.000 A 
ENDBRANCH  16  19
ENDBRANCH   1  14
TORSDOF 5
ENDMDL
MODEL 9
REMARK VINA RESULT:      -7.4      1.314      1.492
REMARK  Name = 
REMARK  5 active torsions:
REMARK  status: ('A' for Active; 'I' for Inactive)
REMARK    1  A    between atoms: N_1  and  S_2
REMARK    2  A    between atoms: S_2  and  C_5
REMARK    3  A    between atoms: C_8  and  C_9
REMARK    4  A    between atoms: C_9  and  N_10
REMARK    5  A    between atoms: C_12  and  C_13
REMARK                            x       y       z     vdW  Elec       q    Type
REMARK                         _______ _______ _______ _____ _____    ______ ____
ROOT
ATOM      1  C   UNL     1       6.125   6.913  16.377  0.00  0.00    +0.000 C 
ENDROOT
BRANCH   1   5
ATOM      2  C   UNL     1       3.394   4.063  18.125  0.00  0.00    +0.000 A 
ATOM      3  C   UNL     1       4.376   3.630  17.231  0.00  0.00    +0.000 A 
ATOM      4  C   UNL     1       5.253   4.565  16.669  0.00  0.00    +0.000 A 
ATOM      5  C   UNL     1       5.145   5.932  16.976  0.00  0.00    +0.000 A 
ATOM      6  C   UNL     1       4.148   6.349  17.872  0.00  0.00    +0.000 A 
ATOM      7  C   UNL     1       3.275   5.420  18.442  0.00  0.00    +0.000 A 
BRANCH   2   8
ATOM      8  S   UNL     1       2.222   2.921  18.789  0.00  0.00    +0.000 S 
ATOM      9  O   UNL     1       0.988   3.030  18.049  0.00  0.00    +0.000 OA
ATOM     10  O   UNL     1       2.267   2.976  20.235  0.00  0.00    +0.000 OA
BRANCH   8  11
ATOM     11  N   UNL     1       2.889   1.436  18.374  0.00  0.00    +0.000 NA
ATOM     12  H   UNL     1       3.473   1.107  19.148  0.00  0.00    +0.000 HD
ATOM     13  H   UNL     1       3.399   1.512  17.494  0.00  0.00    +0.000 HD
ENDBRANCH   8  11
ENDBRANCH   2   8
ENDBRANCH   1   5
BRANCH   1  14
ATOM     14  N   UNL     1       6.981   7.540  17.370  0.00  0.00    +0.000 N 
ATOM     15  C   UNL     1       7.319   8.857  17.470  0.00  0.00    +0.000 A 
ATOM     16  C   UNL     1       8.341   8.865  18.396  0.00  0.00    +0.000 A 
ATOM     17  N   UNL     1       8.565   7.587  18.832  0.00  0.00    +0.000 NA
ATOM     18  N   UNL     1       7.722   6.779  18.200  0.00  0.00    +0.000 NA
BRANCH  16  19
ATOM     19  C   UNL     1       9.112  10.019  18.805  0.00  0.00    +0.000 A 
ATOM     20  C   UNL     1       9.230  10.360  20.161  0.00  0.00    +0.000 A 
ATOM     21  C   UNL     1       9.946  11.494  20.545  0.00  0.00    +0.000 A 
ATOM     22  C   UNL     1      10.542  12.289  19.574  0.00  0.00    +0.000 A 
ATOM     23  F   UNL     1      11.216  13.386  19.945  0.00  0.00    +0.000 F 
ATOM     24  C   UNL     1      10.446  11.966  18.225  0.00  0.00    +0.000 A 
ATOM     25  C   UNL     1       9.735  10.826  17.840  0.00  0.00    +0.000 A 
ENDBRANCH  16  19
ENDBRANCH   1  14
TORSDOF 5
ENDMDL
