MODEL 1
REMARK VINA RESULT:      -6.8      0.000      0.000
REMARK  Name = 
REMARK  10 active torsions:
REMARK  status: ('A' for Active; 'I' for Inactive)
REMARK    1  A    between atoms: C_1  and  C_2
REMARK    2  A    between atoms: C_2  and  C_3
REMARK    3  A    between atoms: C_3  and  C_4
REMARK    4  A    between atoms: C_3  and  N_6
REMARK    5  A    between atoms: C_4  and  C_5
REMARK    6  A    between atoms: C_7  and  C_9
REMARK    7  A    between atoms: N_11  and  C_12
REMARK    8  A    between atoms: C_14  and  O_15
REMARK    9  A    between atoms: O_15  and  S_16
REMARK   10  A    between atoms: S_16  and  C_17
REMARK                            x       y       z     vdW  Elec       q    Type
REMARK                         _______ _______ _______ _____ _____    ______ ____
ROOT
ATOM      1  C   UNL     1       5.558   4.408  16.545  0.00  0.00    +0.000 A 
ATOM      2  C   UNL     1       5.542   4.601  15.170  0.00  0.00    +0.000 A 
ATOM      3  N   UNL     1       6.836   4.719  14.770  0.00  0.00    +0.000 N 
ATOM      4  C   UNL     1       7.323   5.054  13.454  0.00  0.00    +0.000 C 
ATOM      5  N   UNL     1       7.712   4.518  15.764  0.00  0.00    +0.000 NA
ATOM      6  C   UNL     1       6.937   4.435  16.846  0.00  0.00    +0.000 A 
ENDROOT
BRANCH   1   8
ATOM      7  N   UNL     1       4.346   3.220  18.261  0.00  0.00    +0.000 N 
ATOM      8  C   UNL     1       4.357   4.257  17.351  0.00  0.00    +0.000 C 
ATOM      9  O   UNL     1       3.400   5.014  17.211  0.00  0.00    +0.000 OA
ATOM     10  H   UNL     1       5.199   2.706  18.435  0.00  0.00    +0.000 HD
BRANCH   7  11
ATOM     11  C   UNL     1       3.203   3.000  19.150  0.00  0.00    +0.000 C 
BRANCH  11  13
ATOM     12  C   UNL     1       0.762   2.394  18.638  0.00  0.00    +0.000 C 
ATOM     13  C   UNL     1       2.227   1.992  18.519  0.00  0.00    +0.000 C 
ENDBRANCH  11  13
BRANCH  11  14
ATOM     14  C   UNL     1       3.663   2.653  20.578  0.00  0.00    +0.000 C 
ATOM     15  C   UNL     1       2.563   2.665  21.630  0.00  0.00    +0.000 C 
ENDBRANCH  11  14
ENDBRANCH   7  11
ENDBRANCH   1   8
BRANCH   6  16
ATOM     16  O   UNL     1       7.529   4.330  18.048  0.00  0.00    +0.000 OA
BRANCH  16  17
ATOM     17  S   UNL     1       7.374   5.497  19.187  0.00  0.00    +0.000 S 
ATOM     18  C   UNL     1       7.763   6.941  18.203  0.00  0.00    +0.000 C 
ATOM     19  O   UNL     1       6.011   5.575  19.672  0.00  0.00    +0.000 OA
ATOM     20  O   UNL     1       8.465   5.314  20.128  0.00  0.00    +0.000 OA
ENDBRANCH  16  17
ENDBRANCH   6  16
TORSDOF 6
ENDMDL
MODEL 2
REMARK VINA RESULT:      -6.6      0.556      1.429
REMARK  Name = 
REMARK  10 active torsions:
REMARK  status: ('A' for Active; 'I' for Inactive)
REMARK    1  A    between atoms: C_1  and  C_2
REMARK    2  A    between atoms: C_2  and  C_3
REMARK    3  A    between atoms: C_3  and  C_4
REMARK    4  A    between atoms: C_3  and  N_6
REMARK    5  A    between atoms: C_4  and  C_5
REMARK    6  A    between atoms: C_7  and  C_9
REMARK    7  A    between atoms: N_11  and  C_12
REMARK    8  A    between atoms: C_14  and  O_15
REMARK    9  A    between atoms: O_15  and  S_16
REMARK   10  A    between atoms: S_16  and  C_17
REMARK                            x       y       z     vdW  Elec       q    Type
REMARK                         _______ _______ _______ _____ _____    ______ ____
ROOT
ATOM      1  C   UNL     1       5.537   4.117  16.639  0.00  0.00    +0.000 A 
ATOM      2  C   UNL     1       5.560   4.316  15.264  0.00  0.00    +0.000 A 
ATOM      3  N   UNL     1       6.840   4.627  14.929  0.00  0.00    +0.000 N 
ATOM      4  C   UNL     1       7.335   5.040  13.637  0.00  0.00    +0.000 C 
ATOM      5  N   UNL     1       7.687   4.550  15.964  0.00  0.00    +0.000 NA
ATOM      6  C   UNL     1       6.882   4.346  17.007  0.00  0.00    +0.000 A 
ENDROOT
BRANCH   1   8
ATOM      7  N   UNL     1       4.508   3.090  18.565  0.00  0.00    +0.000 N 
ATOM      8  C   UNL     1       4.335   3.785  17.385  0.00  0.00    +0.000 C 
ATOM      9  O   UNL     1       3.223   4.099  16.969  0.00  0.00    +0.000 OA
ATOM     10  H   UNL     1       5.442   2.968  18.933  0.00  0.00    +0.000 HD
BRANCH   7  11
ATOM     11  C   UNL     1       3.369   2.738  19.414  0.00  0.00    +0.000 C 
BRANCH  11  13
ATOM     12  C   UNL     1       2.329   3.841  21.486  0.00  0.00    +0.000 C 
ATOM     13  C   UNL     1       2.756   4.007  20.033  0.00  0.00    +0.000 C 
ENDBRANCH  11  13
BRANCH  11  14
ATOM     14  C   UNL     1       2.371   1.834  18.666  0.00  0.00    +0.000 C 
ATOM     15  C   UNL     1       0.917   2.281  18.739  0.00  0.00    +0.000 C 
ENDBRANCH  11  14
ENDBRANCH   7  11
ENDBRANCH   1   8
BRANCH   6  16
ATOM     16  O   UNL     1       7.423   4.320  18.236  0.00  0.00    +0.000 OA
BRANCH  16  17
ATOM     17  S   UNL     1       7.173   5.531  19.310  0.00  0.00    +0.000 S 
ATOM     18  C   UNL     1       7.870   6.904  18.396  0.00  0.00    +0.000 C 
ATOM     19  O   UNL     1       5.758   5.746  19.533  0.00  0.00    +0.000 OA
ATOM     20  O   UNL     1       8.051   5.280  20.441  0.00  0.00    +0.000 OA
ENDBRANCH  16  17
ENDBRANCH   6  16
TORSDOF 6
ENDMDL
MODEL 3
REMARK VINA RESULT:      -6.5      1.501      5.384
REMARK  Name = 
REMARK  10 active torsions:
REMARK  status: ('A' for Active; 'I' for Inactive)
REMARK    1  A    between atoms: C_1  and  C_2
REMARK    2  A    between atoms: C_2  and  C_3
REMARK    3  A    between atoms: C_3  and  C_4
REMARK    4  A    between atoms: C_3  and  N_6
REMARK    5  A    between atoms: C_4  and  C_5
REMARK    6  A    between atoms: C_7  and  C_9
REMARK    7  A    between atoms: N_11  and  C_12
REMARK    8  A    between atoms: C_14  and  O_15
REMARK    9  A    between atoms: O_15  and  S_16
REMARK   10  A    between atoms: S_16  and  C_17
REMARK                            x       y       z     vdW  Elec       q    Type
REMARK                         _______ _______ _______ _____ _____    ______ ____
ROOT
ATOM      1  C   UNL     1       4.784   4.379  16.897  0.00  0.00    +0.000 A 
ATOM      2  C   UNL     1       3.938   3.283  17.010  0.00  0.00    +0.000 A 
ATOM      3  N   UNL     1       3.710   3.093  18.337  0.00  0.00    +0.000 N 
ATOM      4  C   UNL     1       2.996   2.004  18.960  0.00  0.00    +0.000 C 
ATOM      5  N   UNL     1       4.261   4.043  19.105  0.00  0.00    +0.000 NA
ATOM      6  C   UNL     1       4.990   4.752  18.243  0.00  0.00    +0.000 A 
ENDROOT
BRANCH   1   8
ATOM      7  N   UNL     1       5.693   3.951  14.703  0.00  0.00    +0.000 N 
ATOM      8  C   UNL     1       5.277   4.887  15.627  0.00  0.00    +0.000 C 
ATOM      9  O   UNL     1       5.328   6.093  15.404  0.00  0.00    +0.000 OA
ATOM     10  H   UNL     1       5.511   2.971  14.876  0.00  0.00    +0.000 HD
BRANCH   7  11
ATOM     11  C   UNL     1       6.172   4.350  13.378  0.00  0.00    +0.000 C 
BRANCH  11  13
ATOM     12  C   UNL     1       8.055   5.735  12.317  0.00  0.00    +0.000 C 
ATOM     13  C   UNL     1       7.634   4.821  13.462  0.00  0.00    +0.000 C 
ENDBRANCH  11  13
BRANCH  11  14
ATOM     14  C   UNL     1       5.902   3.253  12.331  0.00  0.00    +0.000 C 
ATOM     15  C   UNL     1       4.536   3.324  11.662  0.00  0.00    +0.000 C 
ENDBRANCH  11  14
ENDBRANCH   7  11
ENDBRANCH   1   8
BRANCH   6  16
ATOM     16  O   UNL     1       5.762   5.742  18.723  0.00  0.00    +0.000 OA
BRANCH  16  17
ATOM     17  S   UNL     1       7.365   5.531  18.984  0.00  0.00    +0.000 S 
ATOM     18  C   UNL     1       7.991   7.069  18.315  0.00  0.00    +0.000 C 
ATOM     19  O   UNL     1       7.656   5.447  20.400  0.00  0.00    +0.000 OA
ATOM     20  O   UNL     1       7.800   4.469  18.093  0.00  0.00    +0.000 OA
ENDBRANCH  16  17
ENDBRANCH   6  16
TORSDOF 6
ENDMDL
MODEL 4
REMARK VINA RESULT:      -6.4      1.370      1.435
REMARK  Name = 
REMARK  10 active torsions:
REMARK  status: ('A' for Active; 'I' for Inactive)
REMARK    1  A    between atoms: C_1  and  C_2
REMARK    2  A    between atoms: C_2  and  C_3
REMARK    3  A    between atoms: C_3  and  C_4
REMARK    4  A    between atoms: C_3  and  N_6
REMARK    5  A    between atoms: C_4  and  C_5
REMARK    6  A    between atoms: C_7  and  C_9
REMARK    7  A    between atoms: N_11  and  C_12
REMARK    8  A    between atoms: C_14  and  O_15
REMARK    9  A    between atoms: O_15  and  S_16
REMARK   10  A    between atoms: S_16  and  C_17
REMARK                            x       y       z     vdW  Elec       q    Type
REMARK                         _______ _______ _______ _____ _____    ______ ____
ROOT
ATOM      1  C   UNL     1       5.581   4.234  16.670  0.00  0.00    +0.000 A 
ATOM      2  C   UNL     1       5.561   4.404  15.291  0.00  0.00    +0.000 A 
ATOM      3  N   UNL     1       6.841   4.644  14.902  0.00  0.00    +0.000 N 
ATOM      4  C   UNL     1       7.307   5.006  13.584  0.00  0.00    +0.000 C 
ATOM      5  N   UNL     1       7.722   4.545  15.907  0.00  0.00    +0.000 NA
ATOM      6  C   UNL     1       6.948   4.402  16.982  0.00  0.00    +0.000 A 
ENDROOT
BRANCH   1   8
ATOM      7  N   UNL     1       3.478   5.007  17.568  0.00  0.00    +0.000 N 
ATOM      8  C   UNL     1       4.392   3.977  17.467  0.00  0.00    +0.000 C 
ATOM      9  O   UNL     1       4.226   2.898  18.029  0.00  0.00    +0.000 OA
ATOM     10  H   UNL     1       3.591   5.826  16.986  0.00  0.00    +0.000 HD
BRANCH   7  11
ATOM     11  C   UNL     1       2.229   4.843  18.314  0.00  0.00    +0.000 C 
BRANCH  11  13
ATOM     12  C   UNL     1       0.876   2.732  18.863  0.00  0.00    +0.000 C 
ATOM     13  C   UNL     1       1.443   3.636  17.774  0.00  0.00    +0.000 C 
ENDBRANCH  11  13
BRANCH  11  14
ATOM     14  C   UNL     1       2.482   4.827  19.833  0.00  0.00    +0.000 C 
ATOM     15  C   UNL     1       1.838   5.970  20.605  0.00  0.00    +0.000 C 
ENDBRANCH  11  14
ENDBRANCH   7  11
ENDBRANCH   1   8
BRANCH   6  16
ATOM     16  O   UNL     1       7.534   4.374  18.192  0.00  0.00    +0.000 OA
BRANCH  16  17
ATOM     17  S   UNL     1       7.255   5.539  19.309  0.00  0.00    +0.000 S 
ATOM     18  C   UNL     1       7.885   6.966  18.430  0.00  0.00    +0.000 C 
ATOM     19  O   UNL     1       5.837   5.693  19.559  0.00  0.00    +0.000 OA
ATOM     20  O   UNL     1       8.160   5.285  20.417  0.00  0.00    +0.000 OA
ENDBRANCH  16  17
ENDBRANCH   6  16
TORSDOF 6
ENDMDL
MODEL 5
REMARK VINA RESULT:      -6.3      1.599      2.161
REMARK  Name = 
REMARK  10 active torsions:
REMARK  status: ('A' for Active; 'I' for Inactive)
REMARK    1  A    between atoms: C_1  and  C_2
REMARK    2  A    between atoms: C_2  and  C_3
REMARK    3  A    between atoms: C_3  and  C_4
REMARK    4  A    between atoms: C_3  and  N_6
REMARK    5  A    between atoms: C_4  and  C_5
REMARK    6  A    between atoms: C_7  and  C_9
REMARK    7  A    between atoms: N_11  and  C_12
REMARK    8  A    between atoms: C_14  and  O_15
REMARK    9  A    between atoms: O_15  and  S_16
REMARK   10  A    between atoms: S_16  and  C_17
REMARK                            x       y       z     vdW  Elec       q    Type
REMARK                         _______ _______ _______ _____ _____    ______ ____
ROOT
ATOM      1  C   UNL     1       5.436   4.284  15.934  0.00  0.00    +0.000 A 
ATOM      2  C   UNL     1       5.553   3.708  14.675  0.00  0.00    +0.000 A 
ATOM      3  N   UNL     1       6.561   4.357  14.033  0.00  0.00    +0.000 N 
ATOM      4  C   UNL     1       6.973   4.200  12.659  0.00  0.00    +0.000 C 
ATOM      5  N   UNL     1       7.185   5.253  14.810  0.00  0.00    +0.000 NA
ATOM      6  C   UNL     1       6.439   5.278  15.914  0.00  0.00    +0.000 A 
ENDROOT
BRANCH   1   8
ATOM      7  N   UNL     1       3.711   4.876  17.514  0.00  0.00    +0.000 N 
ATOM      8  C   UNL     1       4.448   3.873  16.918  0.00  0.00    +0.000 C 
ATOM      9  O   UNL     1       4.295   2.690  17.208  0.00  0.00    +0.000 OA
ATOM     10  H   UNL     1       3.777   5.818  17.153  0.00  0.00    +0.000 HD
BRANCH   7  11
ATOM     11  C   UNL     1       2.663   4.572  18.490  0.00  0.00    +0.000 C 
BRANCH  11  13
ATOM     12  C   UNL     1       1.833   5.546  20.716  0.00  0.00    +0.000 C 
ATOM     13  C   UNL     1       2.307   5.833  19.296  0.00  0.00    +0.000 C 
ENDBRANCH  11  13
BRANCH  11  14
ATOM     14  C   UNL     1       1.466   3.866  17.826  0.00  0.00    +0.000 C 
ATOM     15  C   UNL     1       0.913   2.675  18.597  0.00  0.00    +0.000 C 
ENDBRANCH  11  14
ENDBRANCH   7  11
ENDBRANCH   1   8
BRANCH   6  16
ATOM     16  O   UNL     1       6.747   6.168  16.873  0.00  0.00    +0.000 OA
BRANCH  16  17
ATOM     17  S   UNL     1       7.220   5.691  18.367  0.00  0.00    +0.000 S 
ATOM     18  C   UNL     1       8.293   7.057  18.801  0.00  0.00    +0.000 C 
ATOM     19  O   UNL     1       6.095   5.630  19.276  0.00  0.00    +0.000 OA
ATOM     20  O   UNL     1       8.066   4.523  18.187  0.00  0.00    +0.000 OA
ENDBRANCH  16  17
ENDBRANCH   6  16
TORSDOF 6
ENDMDL
MODEL 6
REMARK VINA RESULT:      -6.3      0.929      1.473
REMARK  Name = 
REMARK  10 active torsions:
REMARK  status: ('A' for Active; 'I' for Inactive)
REMARK    1  A    between atoms: C_1  and  C_2
REMARK    2  A    between atoms: C_2  and  C_3
REMARK    3  A    between atoms: C_3  and  C_4
REMARK    4  A    between atoms: C_3  and  N_6
REMARK    5  A    between atoms: C_4  and  C_5
REMARK    6  A    between atoms: C_7  and  C_9
REMARK    7  A    between atoms: N_11  and  C_12
REMARK    8  A    between atoms: C_14  and  O_15
REMARK    9  A    between atoms: O_15  and  S_16
REMARK   10  A    between atoms: S_16  and  C_17
REMARK                            x       y       z     vdW  Elec       q    Type
REMARK                         _______ _______ _______ _____ _____    ______ ____
ROOT
ATOM      1  C   UNL     1       5.441   4.146  16.447  0.00  0.00    +0.000 A 
ATOM      2  C   UNL     1       5.522   4.361  15.077  0.00  0.00    +0.000 A 
ATOM      3  N   UNL     1       6.826   4.623  14.793  0.00  0.00    +0.000 N 
ATOM      4  C   UNL     1       7.385   5.032  13.527  0.00  0.00    +0.000 C 
ATOM      5  N   UNL     1       7.630   4.499  15.858  0.00  0.00    +0.000 NA
ATOM      6  C   UNL     1       6.779   4.315  16.867  0.00  0.00    +0.000 A 
ENDROOT
BRANCH   1   8
ATOM      7  N   UNL     1       4.280   3.677  18.511  0.00  0.00    +0.000 N 
ATOM      8  C   UNL     1       4.199   3.855  17.144  0.00  0.00    +0.000 C 
ATOM      9  O   UNL     1       3.137   3.760  16.535  0.00  0.00    +0.000 OA
ATOM     10  H   UNL     1       5.147   3.893  18.986  0.00  0.00    +0.000 HD
BRANCH   7  11
ATOM     11  C   UNL     1       3.086   3.417  19.316  0.00  0.00    +0.000 C 
BRANCH  11  13
ATOM     12  C   UNL     1       4.844   1.924  20.441  0.00  0.00    +0.000 C 
ATOM     13  C   UNL     1       3.376   2.322  20.357  0.00  0.00    +0.000 C 
ENDBRANCH  11  13
BRANCH  11  14
ATOM     14  C   UNL     1       2.504   4.722  19.892  0.00  0.00    +0.000 C 
ATOM     15  C   UNL     1       1.138   4.582  20.549  0.00  0.00    +0.000 C 
ENDBRANCH  11  14
ENDBRANCH   7  11
ENDBRANCH   1   8
BRANCH   6  16
ATOM     16  O   UNL     1       7.273   4.252  18.115  0.00  0.00    +0.000 OA
BRANCH  16  17
ATOM     17  S   UNL     1       7.190   5.529  19.138  0.00  0.00    +0.000 S 
ATOM     18  C   UNL     1       7.608   6.855  18.009  0.00  0.00    +0.000 C 
ATOM     19  O   UNL     1       5.844   5.707  19.642  0.00  0.00    +0.000 OA
ATOM     20  O   UNL     1       8.297   5.395  20.069  0.00  0.00    +0.000 OA
ENDBRANCH  16  17
ENDBRANCH   6  16
TORSDOF 6
ENDMDL
MODEL 7
REMARK VINA RESULT:      -6.2      2.355      3.476
REMARK  Name = 
REMARK  10 active torsions:
REMARK  status: ('A' for Active; 'I' for Inactive)
REMARK    1  A    between atoms: C_1  and  C_2
REMARK    2  A    between atoms: C_2  and  C_3
REMARK    3  A    between atoms: C_3  and  C_4
REMARK    4  A    between atoms: C_3  and  N_6
REMARK    5  A    between atoms: C_4  and  C_5
REMARK    6  A    between atoms: C_7  and  C_9
REMARK    7  A    between atoms: N_11  and  C_12
REMARK    8  A    between atoms: C_14  and  O_15
REMARK    9  A    between atoms: O_15  and  S_16
REMARK   10  A    between atoms: S_16  and  C_17
REMARK                            x       y       z     vdW  Elec       q    Type
REMARK                         _______ _______ _______ _____ _____    ______ ____
ROOT
ATOM      1  C   UNL     1       5.368   5.056  18.304  0.00  0.00    +0.000 A 
ATOM      2  C   UNL     1       6.066   5.498  19.421  0.00  0.00    +0.000 A 
ATOM      3  N   UNL     1       7.390   5.355  19.144  0.00  0.00    +0.000 N 
ATOM      4  C   UNL     1       8.502   5.561  20.040  0.00  0.00    +0.000 C 
ATOM      5  N   UNL     1       7.623   4.946  17.890  0.00  0.00    +0.000 NA
ATOM      6  C   UNL     1       6.404   4.669  17.425  0.00  0.00    +0.000 A 
ENDROOT
BRANCH   1   8
ATOM      7  N   UNL     1       3.259   4.168  19.070  0.00  0.00    +0.000 N 
ATOM      8  C   UNL     1       3.918   5.032  18.218  0.00  0.00    +0.000 C 
ATOM      9  O   UNL     1       3.318   5.741  17.415  0.00  0.00    +0.000 OA
ATOM     10  H   UNL     1       3.781   3.703  19.801  0.00  0.00    +0.000 HD
BRANCH   7  11
ATOM     11  C   UNL     1       1.797   4.092  19.095  0.00  0.00    +0.000 C 
BRANCH  11  13
ATOM     12  C   UNL     1       2.449   1.971  17.803  0.00  0.00    +0.000 C 
ATOM     13  C   UNL     1       1.318   2.854  18.317  0.00  0.00    +0.000 C 
ENDBRANCH  11  13
BRANCH  11  14
ATOM     14  C   UNL     1       1.255   4.206  20.532  0.00  0.00    +0.000 C 
ATOM     15  C   UNL     1       1.391   2.944  21.373  0.00  0.00    +0.000 C 
ENDBRANCH  11  14
ENDBRANCH   7  11
ENDBRANCH   1   8
BRANCH   6  16
ATOM     16  O   UNL     1       6.296   4.131  16.198  0.00  0.00    +0.000 OA
BRANCH  16  17
ATOM     17  S   UNL     1       6.378   5.051  14.846  0.00  0.00    +0.000 S 
ATOM     18  C   UNL     1       5.871   3.847  13.622  0.00  0.00    +0.000 C 
ATOM     19  O   UNL     1       5.427   6.142  14.899  0.00  0.00    +0.000 OA
ATOM     20  O   UNL     1       7.785   5.331  14.613  0.00  0.00    +0.000 OA
ENDBRANCH  16  17
ENDBRANCH   6  16
TORSDOF 6
ENDMDL
MODEL 8
REMARK VINA RESULT:      -6.2      3.214      6.273
REMARK  Name = 
REMARK  10 active torsions:
REMARK  status: ('A' for Active; 'I' for Inactive)
REMARK    1  A    between atoms: C_1  and  C_2
REMARK    2  A    between atoms: C_2  and  C_3
REMARK    3  A    between atoms: C_3  and  C_4
REMARK    4  A    between atoms: C_3  and  N_6
REMARK    5  A    between atoms: C_4  and  C_5
REMARK    6  A    between atoms: C_7  and  C_9
REMARK    7  A    between atoms: N_11  and  C_12
REMARK    8  A    between atoms: C_14  and  O_15
REMARK    9  A    between atoms: O_15  and  S_16
REMARK   10  A    between atoms: S_16  and  C_17
REMARK                            x       y       z     vdW  Elec       q    Type
REMARK                         _______ _______ _______ _____ _____    ______ ____
ROOT
ATOM      1  C   UNL     1       3.043   6.415  18.833  0.00  0.00    +0.000 A 
ATOM      2  C   UNL     1       2.422   7.511  19.417  0.00  0.00    +0.000 A 
ATOM      3  N   UNL     1       1.671   7.041  20.448  0.00  0.00    +0.000 N 
ATOM      4  C   UNL     1       0.748   7.782  21.273  0.00  0.00    +0.000 C 
ATOM      5  N   UNL     1       1.826   5.725  20.652  0.00  0.00    +0.000 NA
ATOM      6  C   UNL     1       2.570   5.338  19.616  0.00  0.00    +0.000 A 
ENDROOT
BRANCH   1   8
ATOM      7  N   UNL     1       4.652   5.379  17.363  0.00  0.00    +0.000 N 
ATOM      8  C   UNL     1       3.922   6.507  17.679  0.00  0.00    +0.000 C 
ATOM      9  O   UNL     1       4.012   7.546  17.032  0.00  0.00    +0.000 OA
ATOM     10  H   UNL     1       4.450   4.511  17.840  0.00  0.00    +0.000 HD
BRANCH   7  11
ATOM     11  C   UNL     1       5.539   5.349  16.198  0.00  0.00    +0.000 C 
BRANCH  11  13
ATOM     12  C   UNL     1       7.518   4.704  17.700  0.00  0.00    +0.000 C 
ATOM     13  C   UNL     1       6.987   5.646  16.626  0.00  0.00    +0.000 C 
ENDBRANCH  11  13
BRANCH  11  14
ATOM     14  C   UNL     1       5.354   4.053  15.387  0.00  0.00    +0.000 C 
ATOM     15  C   UNL     1       6.167   3.977  14.102  0.00  0.00    +0.000 C 
ENDBRANCH  11  14
ENDBRANCH   7  11
ENDBRANCH   1   8
BRANCH   6  16
ATOM     16  O   UNL     1       2.828   4.027  19.469  0.00  0.00    +0.000 OA
BRANCH  16  17
ATOM     17  S   UNL     1       1.939   3.084  18.467  0.00  0.00    +0.000 S 
ATOM     18  C   UNL     1       3.177   1.876  18.003  0.00  0.00    +0.000 C 
ATOM     19  O   UNL     1       0.856   2.441  19.182  0.00  0.00    +0.000 OA
ATOM     20  O   UNL     1       1.653   3.879  17.285  0.00  0.00    +0.000 OA
ENDBRANCH  16  17
ENDBRANCH   6  16
TORSDOF 6
ENDMDL
MODEL 9
REMARK VINA RESULT:      -6.2      3.016      6.171
REMARK  Name = 
REMARK  10 active torsions:
REMARK  status: ('A' for Active; 'I' for Inactive)
REMARK    1  A    between atoms: C_1  and  C_2
REMARK    2  A    between atoms: C_2  and  C_3
REMARK    3  A    between atoms: C_3  and  C_4
REMARK    4  A    between atoms: C_3  and  N_6
REMARK    5  A    between atoms: C_4  and  C_5
REMARK    6  A    between atoms: C_7  and  C_9
REMARK    7  A    between atoms: N_11  and  C_12
REMARK    8  A    between atoms: C_14  and  O_15
REMARK    9  A    between atoms: O_15  and  S_16
REMARK   10  A    between atoms: S_16  and  C_17
REMARK                            x       y       z     vdW  Elec       q    Type
REMARK                         _______ _______ _______ _____ _____    ______ ____
ROOT
ATOM      1  C   UNL     1       3.290   6.069  18.895  0.00  0.00    +0.000 A 
ATOM      2  C   UNL     1       2.678   7.220  19.373  0.00  0.00    +0.000 A 
ATOM      3  N   UNL     1       1.811   6.834  20.346  0.00  0.00    +0.000 N 
ATOM      4  C   UNL     1       0.857   7.657  21.051  0.00  0.00    +0.000 C 
ATOM      5  N   UNL     1       1.876   5.523  20.617  0.00  0.00    +0.000 NA
ATOM      6  C   UNL     1       2.690   5.053  19.672  0.00  0.00    +0.000 A 
ENDROOT
BRANCH   1   8
ATOM      7  N   UNL     1       5.107   4.966  17.751  0.00  0.00    +0.000 N 
ATOM      8  C   UNL     1       4.275   6.065  17.826  0.00  0.00    +0.000 C 
ATOM      9  O   UNL     1       4.363   7.006  17.041  0.00  0.00    +0.000 OA
ATOM     10  H   UNL     1       4.915   4.161  18.332  0.00  0.00    +0.000 HD
BRANCH   7  11
ATOM     11  C   UNL     1       6.109   4.842  16.691  0.00  0.00    +0.000 C 
BRANCH  11  13
ATOM     12  C   UNL     1       7.740   5.465  18.573  0.00  0.00    +0.000 C 
ATOM     13  C   UNL     1       7.508   4.654  17.303  0.00  0.00    +0.000 C 
ENDBRANCH  11  13
BRANCH  11  14
ATOM     14  C   UNL     1       5.703   3.773  15.659  0.00  0.00    +0.000 C 
ATOM     15  C   UNL     1       6.188   4.031  14.240  0.00  0.00    +0.000 C 
ENDBRANCH  11  14
ENDBRANCH   7  11
ENDBRANCH   1   8
BRANCH   6  16
ATOM     16  O   UNL     1       2.889   3.726  19.603  0.00  0.00    +0.000 OA
BRANCH  16  17
ATOM     17  S   UNL     1       2.272   2.827  18.381  0.00  0.00    +0.000 S 
ATOM     18  C   UNL     1       0.677   2.411  19.079  0.00  0.00    +0.000 C 
ATOM     19  O   UNL     1       2.102   3.623  17.183  0.00  0.00    +0.000 OA
ATOM     20  O   UNL     1       3.049   1.600  18.327  0.00  0.00    +0.000 OA
ENDBRANCH  16  17
ENDBRANCH   6  16
TORSDOF 6
ENDMDL
