MODEL 1
REMARK VINA RESULT:      -8.6      0.000      0.000
REMARK  Name = 
REMARK  8 active torsions:
REMARK  status: ('A' for Active; 'I' for Inactive)
REMARK    1  A    between atoms: C_2  and  C_25
REMARK    2  A    between atoms: N_3  and  C_4
REMARK    3  A    between atoms: C_4  and  C_5
REMARK    4  A    between atoms: C_5  and  N_6
REMARK    5  A    between atoms: N_6  and  C_7
REMARK    6  A    between atoms: C_15  and  O_17
REMARK    7  A    between atoms: O_17  and  C_18
REMARK    8  A    between atoms: C_18  and  C_19
REMARK                            x       y       z     vdW  Elec       q    Type
REMARK                         _______ _______ _______ _____ _____    ______ ____
ROOT
ATOM      1  C   UNL     1       4.320   4.114  18.882  0.00  0.00    +0.000 C 
ATOM      2  C   UNL     1       3.919   4.981  20.103  0.00  0.00    +0.000 C 
ATOM      3  C   UNL     1       2.426   5.385  20.047  0.00  0.00    +0.000 C 
ATOM      4  C   UNL     1       1.518   4.160  19.855  0.00  0.00    +0.000 C 
ATOM      5  C   UNL     1       1.426   3.974  18.322  0.00  0.00    +0.000 C 
ATOM      6  C   UNL     1       2.276   5.113  17.739  0.00  0.00    +0.000 C 
ATOM      7  C   UNL     1       3.756   4.713  17.572  0.00  0.00    +0.000 C 
ATOM      8  N   UNL     1       2.209   6.092  18.799  0.00  0.00    +0.000 N 
ATOM      9  C   UNL     1       2.015   7.430  18.585  0.00  0.00    +0.000 C 
ATOM     10  O   UNL     1       1.906   7.914  17.465  0.00  0.00    +0.000 OA
ENDROOT
BRANCH   1  11
ATOM     11  N   UNL     1       5.769   3.891  18.741  0.00  0.00    +0.000 NA
ATOM     12  H   UNL     1       6.027   3.047  19.253  0.00  0.00    +0.000 HD
BRANCH  11  13
ATOM     13  C   UNL     1       6.596   5.009  19.213  0.00  0.00    +0.000 C 
BRANCH  13  14
ATOM     14  C   UNL     1       7.563   5.588  18.164  0.00  0.00    +0.000 C 
BRANCH  14  17
ATOM     15  O   UNL     1       6.209   6.780  16.002  0.00  0.00    +0.000 OA
ATOM     16  C   UNL     1       6.701   5.670  15.859  0.00  0.00    +0.000 C 
ATOM     17  N   UNL     1       7.384   5.000  16.856  0.00  0.00    +0.000 N 
ATOM     18  H   UNL     1       7.892   4.153  16.634  0.00  0.00    +0.000 HD
BRANCH  16  19
ATOM     19  C   UNL     1       6.625   4.970  14.552  0.00  0.00    +0.000 A 
ATOM     20  C   UNL     1       7.613   5.226  13.594  0.00  0.00    +0.000 A 
ATOM     21  C   UNL     1       7.568   4.580  12.357  0.00  0.00    +0.000 A 
ATOM     22  C   UNL     1       6.534   3.687  12.073  0.00  0.00    +0.000 A 
ATOM     23  C   UNL     1       5.540   3.441  13.021  0.00  0.00    +0.000 A 
ATOM     24  C   UNL     1       5.582   4.084  14.259  0.00  0.00    +0.000 A 
ENDBRANCH  16  19
ENDBRANCH  14  17
ENDBRANCH  13  14
ENDBRANCH  11  13
ENDBRANCH   1  11
BRANCH   9  25
ATOM     25  O   UNL     1       1.930   8.136  19.738  0.00  0.00    +0.000 OA
BRANCH  25  26
ATOM     26  C   UNL     1       1.411   9.467  19.615  0.00  0.00    +0.000 C 
BRANCH  26  27
ATOM     27  C   UNL     1       0.620   9.823  20.849  0.00  0.00    +0.000 A 
ATOM     28  C   UNL     1      -0.292  10.887  20.833  0.00  0.00    +0.000 A 
ATOM     29  C   UNL     1      -1.033  11.204  21.973  0.00  0.00    +0.000 A 
ATOM     30  C   UNL     1      -0.867  10.464  23.142  0.00  0.00    +0.000 A 
ATOM     31  C   UNL     1       0.046   9.412  23.175  0.00  0.00    +0.000 A 
ATOM     32  C   UNL     1       0.789   9.094  22.036  0.00  0.00    +0.000 A 
ENDBRANCH  26  27
ENDBRANCH  25  26
ENDBRANCH   9  25
TORSDOF 8
ENDMDL
MODEL 2
REMARK VINA RESULT:      -8.1      2.969      8.633
REMARK  Name = 
REMARK  8 active torsions:
REMARK  status: ('A' for Active; 'I' for Inactive)
REMARK    1  A    between atoms: C_2  and  C_25
REMARK    2  A    between atoms: N_3  and  C_4
REMARK    3  A    between atoms: C_4  and  C_5
REMARK    4  A    between atoms: C_5  and  N_6
REMARK    5  A    between atoms: N_6  and  C_7
REMARK    6  A    between atoms: C_15  and  O_17
REMARK    7  A    between atoms: O_17  and  C_18
REMARK    8  A    between atoms: C_18  and  C_19
REMARK                            x       y       z     vdW  Elec       q    Type
REMARK                         _______ _______ _______ _____ _____    ______ ____
ROOT
ATOM      1  C   UNL     1       1.728   5.823  20.373  0.00  0.00    +0.000 C 
ATOM      2  C   UNL     1       2.435   5.658  19.003  0.00  0.00    +0.000 C 
ATOM      3  C   UNL     1       2.418   4.185  18.528  0.00  0.00    +0.000 C 
ATOM      4  C   UNL     1       0.995   3.605  18.542  0.00  0.00    +0.000 C 
ATOM      5  C   UNL     1       0.812   3.046  19.973  0.00  0.00    +0.000 C 
ATOM      6  C   UNL     1       2.147   3.330  20.677  0.00  0.00    +0.000 C 
ATOM      7  C   UNL     1       2.168   4.714  21.357  0.00  0.00    +0.000 C 
ATOM      8  N   UNL     1       3.056   3.385  19.556  0.00  0.00    +0.000 N 
ATOM      9  C   UNL     1       4.294   2.800  19.553  0.00  0.00    +0.000 C 
ATOM     10  O   UNL     1       4.745   2.197  20.519  0.00  0.00    +0.000 OA
ENDROOT
BRANCH   1  11
ATOM     11  N   UNL     1       1.910   7.142  21.000  0.00  0.00    +0.000 NA
ATOM     12  H   UNL     1       1.318   7.201  21.830  0.00  0.00    +0.000 HD
BRANCH  11  13
ATOM     13  C   UNL     1       1.604   8.274  20.114  0.00  0.00    +0.000 C 
BRANCH  13  14
ATOM     14  C   UNL     1       0.692   9.352  20.730  0.00  0.00    +0.000 C 
BRANCH  14  17
ATOM     15  O   UNL     1       0.488  11.245  18.656  0.00  0.00    +0.000 OA
ATOM     16  C   UNL     1      -0.485  10.559  18.936  0.00  0.00    +0.000 C 
ATOM     17  N   UNL     1      -0.488   9.604  19.936  0.00  0.00    +0.000 N 
ATOM     18  H   UNL     1      -1.272   8.970  20.022  0.00  0.00    +0.000 HD
BRANCH  16  19
ATOM     19  C   UNL     1      -1.749  10.688  18.169  0.00  0.00    +0.000 A 
ATOM     20  C   UNL     1      -1.912   9.925  17.007  0.00  0.00    +0.000 A 
ATOM     21  C   UNL     1      -3.092  10.025  16.268  0.00  0.00    +0.000 A 
ATOM     22  C   UNL     1      -4.104  10.892  16.682  0.00  0.00    +0.000 A 
ATOM     23  C   UNL     1      -3.938  11.664  17.832  0.00  0.00    +0.000 A 
ATOM     24  C   UNL     1      -2.761  11.567  18.575  0.00  0.00    +0.000 A 
ENDBRANCH  16  19
ENDBRANCH  14  17
ENDBRANCH  13  14
ENDBRANCH  11  13
ENDBRANCH   1  11
BRANCH   9  25
ATOM     25  O   UNL     1       4.935   2.939  18.367  0.00  0.00    +0.000 OA
BRANCH  25  26
ATOM     26  C   UNL     1       5.750   4.110  18.235  0.00  0.00    +0.000 C 
BRANCH  26  27
ATOM     27  C   UNL     1       6.055   4.360  16.779  0.00  0.00    +0.000 A 
ATOM     28  C   UNL     1       5.125   4.026  15.785  0.00  0.00    +0.000 A 
ATOM     29  C   UNL     1       5.405   4.273  14.439  0.00  0.00    +0.000 A 
ATOM     30  C   UNL     1       6.619   4.850  14.073  0.00  0.00    +0.000 A 
ATOM     31  C   UNL     1       7.558   5.174  15.050  0.00  0.00    +0.000 A 
ATOM     32  C   UNL     1       7.280   4.928  16.397  0.00  0.00    +0.000 A 
ENDBRANCH  26  27
ENDBRANCH  25  26
ENDBRANCH   9  25
TORSDOF 8
ENDMDL
MODEL 3
REMARK VINA RESULT:      -8.0      0.803      1.215
REMARK  Name = 
REMARK  8 active torsions:
REMARK  status: ('A' for Active; 'I' for Inactive)
REMARK    1  A    between atoms: C_2  and  C_25
REMARK    2  A    between atoms: N_3  and  C_4
REMARK    3  A    between atoms: C_4  and  C_5
REMARK    4  A    between atoms: C_5  and  N_6
REMARK    5  A    between atoms: N_6  and  C_7
REMARK    6  A    between atoms: C_15  and  O_17
REMARK    7  A    between atoms: O_17  and  C_18
REMARK    8  A    between atoms: C_18  and  C_19
REMARK                            x       y       z     vdW  Elec       q    Type
REMARK                         _______ _______ _______ _____ _____    ______ ____
ROOT
ATOM      1  C   UNL     1       4.608   4.950  19.300  0.00  0.00    +0.000 C 
ATOM      2  C   UNL     1       3.609   5.518  20.341  0.00  0.00    +0.000 C 
ATOM      3  C   UNL     1       2.228   5.805  19.706  0.00  0.00    +0.000 C 
ATOM      4  C   UNL     1       1.684   4.576  18.961  0.00  0.00    +0.000 C 
ATOM      5  C   UNL     1       2.259   4.696  17.530  0.00  0.00    +0.000 C 
ATOM      6  C   UNL     1       3.082   5.993  17.548  0.00  0.00    +0.000 C 
ATOM      7  C   UNL     1       4.543   5.754  17.979  0.00  0.00    +0.000 C 
ATOM      8  N   UNL     1       2.433   6.730  18.607  0.00  0.00    +0.000 N 
ATOM      9  C   UNL     1       2.135   8.064  18.532  0.00  0.00    +0.000 C 
ATOM     10  O   UNL     1       2.421   8.753  17.560  0.00  0.00    +0.000 OA
ENDROOT
BRANCH   1  11
ATOM     11  N   UNL     1       6.002   4.876  19.767  0.00  0.00    +0.000 NA
ATOM     12  H   UNL     1       6.065   5.298  20.694  0.00  0.00    +0.000 HD
BRANCH  11  13
ATOM     13  C   UNL     1       6.968   5.532  18.875  0.00  0.00    +0.000 C 
BRANCH  13  14
ATOM     14  C   UNL     1       7.958   4.579  18.180  0.00  0.00    +0.000 C 
BRANCH  14  17
ATOM     15  O   UNL     1       7.518   6.401  16.079  0.00  0.00    +0.000 OA
ATOM     16  C   UNL     1       7.359   5.205  15.875  0.00  0.00    +0.000 C 
ATOM     17  N   UNL     1       7.549   4.232  16.838  0.00  0.00    +0.000 N 
ATOM     18  H   UNL     1       7.545   3.256  16.572  0.00  0.00    +0.000 HD
BRANCH  16  19
ATOM     19  C   UNL     1       6.979   4.709  14.529  0.00  0.00    +0.000 A 
ATOM     20  C   UNL     1       5.875   3.857  14.412  0.00  0.00    +0.000 A 
ATOM     21  C   UNL     1       5.495   3.378  13.157  0.00  0.00    +0.000 A 
ATOM     22  C   UNL     1       6.220   3.741  12.022  0.00  0.00    +0.000 A 
ATOM     23  C   UNL     1       7.329   4.580  12.137  0.00  0.00    +0.000 A 
ATOM     24  C   UNL     1       7.713   5.062  13.389  0.00  0.00    +0.000 A 
ENDBRANCH  16  19
ENDBRANCH  14  17
ENDBRANCH  13  14
ENDBRANCH  11  13
ENDBRANCH   1  11
BRANCH   9  25
ATOM     25  O   UNL     1       1.475   8.514  19.626  0.00  0.00    +0.000 OA
BRANCH  25  26
ATOM     26  C   UNL     1       0.627   9.651  19.416  0.00  0.00    +0.000 C 
BRANCH  26  27
ATOM     27  C   UNL     1       0.023  10.087  20.727  0.00  0.00    +0.000 A 
ATOM     28  C   UNL     1      -0.437  11.400  20.903  0.00  0.00    +0.000 A 
ATOM     29  C   UNL     1      -1.010  11.795  22.113  0.00  0.00    +0.000 A 
ATOM     30  C   UNL     1      -1.124  10.884  23.162  0.00  0.00    +0.000 A 
ATOM     31  C   UNL     1      -0.659   9.580  23.005  0.00  0.00    +0.000 A 
ATOM     32  C   UNL     1      -0.085   9.183  21.795  0.00  0.00    +0.000 A 
ENDBRANCH  26  27
ENDBRANCH  25  26
ENDBRANCH   9  25
TORSDOF 8
ENDMDL
MODEL 4
REMARK VINA RESULT:      -8.0      1.500      9.321
REMARK  Name = 
REMARK  8 active torsions:
REMARK  status: ('A' for Active; 'I' for Inactive)
REMARK    1  A    between atoms: C_2  and  C_25
REMARK    2  A    between atoms: N_3  and  C_4
REMARK    3  A    between atoms: C_4  and  C_5
REMARK    4  A    between atoms: C_5  and  N_6
REMARK    5  A    between atoms: N_6  and  C_7
REMARK    6  A    between atoms: C_15  and  O_17
REMARK    7  A    between atoms: O_17  and  C_18
REMARK    8  A    between atoms: C_18  and  C_19
REMARK                            x       y       z     vdW  Elec       q    Type
REMARK                         _______ _______ _______ _____ _____    ______ ____
ROOT
ATOM      1  C   UNL     1       2.777   5.250  18.385  0.00  0.00    +0.000 C 
ATOM      2  C   UNL     1       3.439   4.712  17.091  0.00  0.00    +0.000 C 
ATOM      3  C   UNL     1       4.484   3.614  17.402  0.00  0.00    +0.000 C 
ATOM      4  C   UNL     1       3.888   2.501  18.279  0.00  0.00    +0.000 C 
ATOM      5  C   UNL     1       4.106   2.986  19.732  0.00  0.00    +0.000 C 
ATOM      6  C   UNL     1       4.825   4.336  19.590  0.00  0.00    +0.000 C 
ATOM      7  C   UNL     1       3.839   5.516  19.478  0.00  0.00    +0.000 C 
ATOM      8  N   UNL     1       5.466   4.185  18.305  0.00  0.00    +0.000 N 
ATOM      9  C   UNL     1       6.754   4.571  18.048  0.00  0.00    +0.000 C 
ATOM     10  O   UNL     1       7.467   5.105  18.891  0.00  0.00    +0.000 OA
ENDROOT
BRANCH   1  11
ATOM     11  N   UNL     1       1.951   6.454  18.194  0.00  0.00    +0.000 NA
ATOM     12  H   UNL     1       1.443   6.373  17.312  0.00  0.00    +0.000 HD
BRANCH  11  13
ATOM     13  C   UNL     1       2.714   7.710  18.192  0.00  0.00    +0.000 C 
BRANCH  13  14
ATOM     14  C   UNL     1       1.863   8.985  18.042  0.00  0.00    +0.000 C 
BRANCH  14  17
ATOM     15  O   UNL     1       1.486  11.556  19.124  0.00  0.00    +0.000 OA
ATOM     16  C   UNL     1       0.980  10.594  19.683  0.00  0.00    +0.000 C 
ATOM     17  N   UNL     1       1.106   9.293  19.233  0.00  0.00    +0.000 N 
ATOM     18  H   UNL     1       0.546   8.561  19.652  0.00  0.00    +0.000 HD
BRANCH  16  19
ATOM     19  C   UNL     1       0.142  10.775  20.894  0.00  0.00    +0.000 A 
ATOM     20  C   UNL     1       0.247   9.843  21.933  0.00  0.00    +0.000 A 
ATOM     21  C   UNL     1      -0.527   9.991  23.084  0.00  0.00    +0.000 A 
ATOM     22  C   UNL     1      -1.414  11.063  23.196  0.00  0.00    +0.000 A 
ATOM     23  C   UNL     1      -1.531  11.986  22.156  0.00  0.00    +0.000 A 
ATOM     24  C   UNL     1      -0.758  11.843  21.004  0.00  0.00    +0.000 A 
ENDBRANCH  16  19
ENDBRANCH  14  17
ENDBRANCH  13  14
ENDBRANCH  11  13
ENDBRANCH   1  11
BRANCH   9  25
ATOM     25  O   UNL     1       7.148   4.273  16.787  0.00  0.00    +0.000 OA
BRANCH  25  26
ATOM     26  C   UNL     1       7.116   5.359  15.852  0.00  0.00    +0.000 C 
BRANCH  26  27
ATOM     27  C   UNL     1       6.959   4.823  14.451  0.00  0.00    +0.000 A 
ATOM     28  C   UNL     1       6.015   3.827  14.166  0.00  0.00    +0.000 A 
ATOM     29  C   UNL     1       5.862   3.345  12.865  0.00  0.00    +0.000 A 
ATOM     30  C   UNL     1       6.656   3.848  11.836  0.00  0.00    +0.000 A 
ATOM     31  C   UNL     1       7.607   4.830  12.108  0.00  0.00    +0.000 A 
ATOM     32  C   UNL     1       7.761   5.313  13.409  0.00  0.00    +0.000 A 
ENDBRANCH  26  27
ENDBRANCH  25  26
ENDBRANCH   9  25
TORSDOF 8
ENDMDL
MODEL 5
REMARK VINA RESULT:      -8.0      2.871      8.953
REMARK  Name = 
REMARK  8 active torsions:
REMARK  status: ('A' for Active; 'I' for Inactive)
REMARK    1  A    between atoms: C_2  and  C_25
REMARK    2  A    between atoms: N_3  and  C_4
REMARK    3  A    between atoms: C_4  and  C_5
REMARK    4  A    between atoms: C_5  and  N_6
REMARK    5  A    between atoms: N_6  and  C_7
REMARK    6  A    between atoms: C_15  and  O_17
REMARK    7  A    between atoms: O_17  and  C_18
REMARK    8  A    between atoms: C_18  and  C_19
REMARK                            x       y       z     vdW  Elec       q    Type
REMARK                         _______ _______ _______ _____ _____    ______ ____
ROOT
ATOM      1  C   UNL     1       1.984   6.400  20.041  0.00  0.00    +0.000 C 
ATOM      2  C   UNL     1       2.658   6.596  18.658  0.00  0.00    +0.000 C 
ATOM      3  C   UNL     1       2.776   5.259  17.888  0.00  0.00    +0.000 C 
ATOM      4  C   UNL     1       1.422   4.538  17.800  0.00  0.00    +0.000 C 
ATOM      5  C   UNL     1       1.348   3.681  19.085  0.00  0.00    +0.000 C 
ATOM      6  C   UNL     1       2.670   3.958  19.817  0.00  0.00    +0.000 C 
ATOM      7  C   UNL     1       2.571   5.167  20.768  0.00  0.00    +0.000 C 
ATOM      8  N   UNL     1       3.529   4.339  18.720  0.00  0.00    +0.000 N 
ATOM      9  C   UNL     1       4.820   3.905  18.580  0.00  0.00    +0.000 C 
ATOM     10  O   UNL     1       5.364   3.169  19.395  0.00  0.00    +0.000 OA
ENDROOT
BRANCH   1  11
ATOM     11  N   UNL     1       2.050   7.575  20.925  0.00  0.00    +0.000 NA
ATOM     12  H   UNL     1       2.212   7.261  21.883  0.00  0.00    +0.000 HD
BRANCH  11  13
ATOM     13  C   UNL     1       0.847   8.417  20.894  0.00  0.00    +0.000 C 
BRANCH  13  14
ATOM     14  C   UNL     1       0.973   9.696  20.047  0.00  0.00    +0.000 C 
BRANCH  14  17
ATOM     15  O   UNL     1      -1.299  11.352  20.194  0.00  0.00    +0.000 OA
ATOM     16  C   UNL     1      -1.137  10.648  19.208  0.00  0.00    +0.000 C 
ATOM     17  N   UNL     1      -0.057   9.802  19.039  0.00  0.00    +0.000 N 
ATOM     18  H   UNL     1       0.097   9.358  18.143  0.00  0.00    +0.000 HD
BRANCH  16  19
ATOM     19  C   UNL     1      -2.100  10.692  18.079  0.00  0.00    +0.000 A 
ATOM     20  C   UNL     1      -3.284  11.423  18.232  0.00  0.00    +0.000 A 
ATOM     21  C   UNL     1      -4.205  11.483  17.186  0.00  0.00    +0.000 A 
ATOM     22  C   UNL     1      -3.952  10.807  15.992  0.00  0.00    +0.000 A 
ATOM     23  C   UNL     1      -2.779  10.066  15.842  0.00  0.00    +0.000 A 
ATOM     24  C   UNL     1      -1.854  10.004  16.884  0.00  0.00    +0.000 A 
ENDBRANCH  16  19
ENDBRANCH  14  17
ENDBRANCH  13  14
ENDBRANCH  11  13
ENDBRANCH   1  11
BRANCH   9  25
ATOM     25  O   UNL     1       5.401   4.352  17.441  0.00  0.00    +0.000 OA
BRANCH  25  26
ATOM     26  C   UNL     1       4.910   3.774  16.224  0.00  0.00    +0.000 C 
BRANCH  26  27
ATOM     27  C   UNL     1       5.811   4.157  15.077  0.00  0.00    +0.000 A 
ATOM     28  C   UNL     1       6.846   5.085  15.257  0.00  0.00    +0.000 A 
ATOM     29  C   UNL     1       7.687   5.424  14.196  0.00  0.00    +0.000 A 
ATOM     30  C   UNL     1       7.500   4.845  12.942  0.00  0.00    +0.000 A 
ATOM     31  C   UNL     1       6.466   3.931  12.747  0.00  0.00    +0.000 A 
ATOM     32  C   UNL     1       5.624   3.590  13.807  0.00  0.00    +0.000 A 
ENDBRANCH  26  27
ENDBRANCH  25  26
ENDBRANCH   9  25
TORSDOF 8
ENDMDL
MODEL 6
REMARK VINA RESULT:      -7.9      3.092      8.129
REMARK  Name = 
REMARK  8 active torsions:
REMARK  status: ('A' for Active; 'I' for Inactive)
REMARK    1  A    between atoms: C_2  and  C_25
REMARK    2  A    between atoms: N_3  and  C_4
REMARK    3  A    between atoms: C_4  and  C_5
REMARK    4  A    between atoms: C_5  and  N_6
REMARK    5  A    between atoms: N_6  and  C_7
REMARK    6  A    between atoms: C_15  and  O_17
REMARK    7  A    between atoms: O_17  and  C_18
REMARK    8  A    between atoms: C_18  and  C_19
REMARK                            x       y       z     vdW  Elec       q    Type
REMARK                         _______ _______ _______ _____ _____    ______ ____
ROOT
ATOM      1  C   UNL     1       3.776   7.096  18.663  0.00  0.00    +0.000 C 
ATOM      2  C   UNL     1       3.886   5.736  19.399  0.00  0.00    +0.000 C 
ATOM      3  C   UNL     1       5.116   4.929  18.920  0.00  0.00    +0.000 C 
ATOM      4  C   UNL     1       6.405   5.763  19.002  0.00  0.00    +0.000 C 
ATOM      5  C   UNL     1       6.482   6.502  17.646  0.00  0.00    +0.000 C 
ATOM      6  C   UNL     1       5.241   6.032  16.873  0.00  0.00    +0.000 C 
ATOM      7  C   UNL     1       4.010   6.920  17.144  0.00  0.00    +0.000 C 
ATOM      8  N   UNL     1       4.992   4.748  17.486  0.00  0.00    +0.000 N 
ATOM      9  C   UNL     1       4.662   3.621  16.781  0.00  0.00    +0.000 C 
ATOM     10  O   UNL     1       4.526   3.617  15.564  0.00  0.00    +0.000 OA
ENDROOT
BRANCH   1  11
ATOM     11  N   UNL     1       2.510   7.812  18.889  0.00  0.00    +0.000 NA
ATOM     12  H   UNL     1       1.757   7.131  18.998  0.00  0.00    +0.000 HD
BRANCH  11  13
ATOM     13  C   UNL     1       2.153   8.753  17.818  0.00  0.00    +0.000 C 
BRANCH  13  14
ATOM     14  C   UNL     1       1.517  10.070  18.298  0.00  0.00    +0.000 C 
BRANCH  14  17
ATOM     15  O   UNL     1      -0.887  10.363  19.733  0.00  0.00    +0.000 OA
ATOM     16  C   UNL     1      -0.908  10.435  18.512  0.00  0.00    +0.000 C 
ATOM     17  N   UNL     1       0.215  10.304  17.717  0.00  0.00    +0.000 N 
ATOM     18  H   UNL     1       0.158  10.519  16.730  0.00  0.00    +0.000 HD
BRANCH  16  19
ATOM     19  C   UNL     1      -2.175  10.714  17.791  0.00  0.00    +0.000 A 
ATOM     20  C   UNL     1      -3.200  11.386  18.467  0.00  0.00    +0.000 A 
ATOM     21  C   UNL     1      -4.401  11.664  17.812  0.00  0.00    +0.000 A 
ATOM     22  C   UNL     1      -4.583  11.264  16.488  0.00  0.00    +0.000 A 
ATOM     23  C   UNL     1      -3.568  10.582  15.816  0.00  0.00    +0.000 A 
ATOM     24  C   UNL     1      -2.366  10.302  16.466  0.00  0.00    +0.000 A 
ENDBRANCH  16  19
ENDBRANCH  14  17
ENDBRANCH  13  14
ENDBRANCH  11  13
ENDBRANCH   1  11
BRANCH   9  25
ATOM     25  O   UNL     1       4.535   2.529  17.573  0.00  0.00    +0.000 OA
BRANCH  25  26
ATOM     26  C   UNL     1       3.215   1.980  17.667  0.00  0.00    +0.000 C 
BRANCH  26  27
ATOM     27  C   UNL     1       2.550   2.461  18.933  0.00  0.00    +0.000 A 
ATOM     28  C   UNL     1       3.135   2.222  20.185  0.00  0.00    +0.000 A 
ATOM     29  C   UNL     1       2.524   2.683  21.353  0.00  0.00    +0.000 A 
ATOM     30  C   UNL     1       1.321   3.383  21.283  0.00  0.00    +0.000 A 
ATOM     31  C   UNL     1       0.723   3.616  20.045  0.00  0.00    +0.000 A 
ATOM     32  C   UNL     1       1.333   3.155  18.876  0.00  0.00    +0.000 A 
ENDBRANCH  26  27
ENDBRANCH  25  26
ENDBRANCH   9  25
TORSDOF 8
ENDMDL
MODEL 7
REMARK VINA RESULT:      -7.9      4.342      6.922
REMARK  Name = 
REMARK  8 active torsions:
REMARK  status: ('A' for Active; 'I' for Inactive)
REMARK    1  A    between atoms: C_2  and  C_25
REMARK    2  A    between atoms: N_3  and  C_4
REMARK    3  A    between atoms: C_4  and  C_5
REMARK    4  A    between atoms: C_5  and  N_6
REMARK    5  A    between atoms: N_6  and  C_7
REMARK    6  A    between atoms: C_15  and  O_17
REMARK    7  A    between atoms: O_17  and  C_18
REMARK    8  A    between atoms: C_18  and  C_19
REMARK                            x       y       z     vdW  Elec       q    Type
REMARK                         _______ _______ _______ _____ _____    ______ ____
ROOT
ATOM      1  C   UNL     1       6.597   5.898  17.434  0.00  0.00    +0.000 C 
ATOM      2  C   UNL     1       6.179   5.834  18.926  0.00  0.00    +0.000 C 
ATOM      3  C   UNL     1       4.794   5.165  19.099  0.00  0.00    +0.000 C 
ATOM      4  C   UNL     1       4.737   3.798  18.400  0.00  0.00    +0.000 C 
ATOM      5  C   UNL     1       4.296   4.115  16.952  0.00  0.00    +0.000 C 
ATOM      6  C   UNL     1       4.116   5.640  16.923  0.00  0.00    +0.000 C 
ATOM      7  C   UNL     1       5.419   6.376  16.552  0.00  0.00    +0.000 C 
ATOM      8  N   UNL     1       3.839   5.922  18.312  0.00  0.00    +0.000 N 
ATOM      9  C   UNL     1       2.866   6.788  18.732  0.00  0.00    +0.000 C 
ATOM     10  O   UNL     1       2.160   7.419  17.954  0.00  0.00    +0.000 OA
ENDROOT
BRANCH   1  11
ATOM     11  N   UNL     1       7.784   6.727  17.167  0.00  0.00    +0.000 NA
ATOM     12  H   UNL     1       8.601   6.122  17.085  0.00  0.00    +0.000 HD
BRANCH  11  13
ATOM     13  C   UNL     1       8.045   7.747  18.192  0.00  0.00    +0.000 C 
BRANCH  13  14
ATOM     14  C   UNL     1       8.311   9.162  17.645  0.00  0.00    +0.000 C 
BRANCH  14  17
ATOM     15  O   UNL     1      10.280  11.174  17.662  0.00  0.00    +0.000 OA
ATOM     16  C   UNL     1       9.507  11.088  18.606  0.00  0.00    +0.000 C 
ATOM     17  N   UNL     1       8.508  10.137  18.693  0.00  0.00    +0.000 N 
ATOM     18  H   UNL     1       7.811  10.208  19.424  0.00  0.00    +0.000 HD
BRANCH  16  19
ATOM     19  C   UNL     1       9.573  12.054  19.730  0.00  0.00    +0.000 A 
ATOM     20  C   UNL     1       9.341  11.591  21.031  0.00  0.00    +0.000 A 
ATOM     21  C   UNL     1       9.399  12.478  22.107  0.00  0.00    +0.000 A 
ATOM     22  C   UNL     1       9.680  13.827  21.886  0.00  0.00    +0.000 A 
ATOM     23  C   UNL     1       9.899  14.294  20.589  0.00  0.00    +0.000 A 
ATOM     24  C   UNL     1       9.842  13.411  19.510  0.00  0.00    +0.000 A 
ENDBRANCH  16  19
ENDBRANCH  14  17
ENDBRANCH  13  14
ENDBRANCH  11  13
ENDBRANCH   1  11
BRANCH   9  25
ATOM     25  O   UNL     1       2.759   6.840  20.081  0.00  0.00    +0.000 OA
BRANCH  25  26
ATOM     26  C   UNL     1       1.556   6.287  20.631  0.00  0.00    +0.000 C 
BRANCH  26  27
ATOM     27  C   UNL     1       1.600   4.782  20.547  0.00  0.00    +0.000 A 
ATOM     28  C   UNL     1       0.979   4.105  19.488  0.00  0.00    +0.000 A 
ATOM     29  C   UNL     1       1.036   2.713  19.405  0.00  0.00    +0.000 A 
ATOM     30  C   UNL     1       1.709   1.982  20.383  0.00  0.00    +0.000 A 
ATOM     31  C   UNL     1       2.320   2.642  21.447  0.00  0.00    +0.000 A 
ATOM     32  C   UNL     1       2.264   4.035  21.531  0.00  0.00    +0.000 A 
ENDBRANCH  26  27
ENDBRANCH  25  26
ENDBRANCH   9  25
TORSDOF 8
ENDMDL
MODEL 8
REMARK VINA RESULT:      -7.9      3.043      8.168
REMARK  Name = 
REMARK  8 active torsions:
REMARK  status: ('A' for Active; 'I' for Inactive)
REMARK    1  A    between atoms: C_2  and  C_25
REMARK    2  A    between atoms: N_3  and  C_4
REMARK    3  A    between atoms: C_4  and  C_5
REMARK    4  A    between atoms: C_5  and  N_6
REMARK    5  A    between atoms: N_6  and  C_7
REMARK    6  A    between atoms: C_15  and  O_17
REMARK    7  A    between atoms: O_17  and  C_18
REMARK    8  A    between atoms: C_18  and  C_19
REMARK                            x       y       z     vdW  Elec       q    Type
REMARK                         _______ _______ _______ _____ _____    ______ ____
ROOT
ATOM      1  C   UNL     1       1.713   5.806  20.283  0.00  0.00    +0.000 C 
ATOM      2  C   UNL     1       1.763   5.476  18.769  0.00  0.00    +0.000 C 
ATOM      3  C   UNL     1       1.781   3.948  18.521  0.00  0.00    +0.000 C 
ATOM      4  C   UNL     1       0.625   3.245  19.251  0.00  0.00    +0.000 C 
ATOM      5  C   UNL     1       1.184   2.927  20.658  0.00  0.00    +0.000 C 
ATOM      6  C   UNL     1       2.626   3.456  20.634  0.00  0.00    +0.000 C 
ATOM      7  C   UNL     1       2.716   4.931  21.071  0.00  0.00    +0.000 C 
ATOM      8  N   UNL     1       2.927   3.402  19.222  0.00  0.00    +0.000 N 
ATOM      9  C   UNL     1       4.115   2.948  18.716  0.00  0.00    +0.000 C 
ATOM     10  O   UNL     1       5.037   2.568  19.427  0.00  0.00    +0.000 OA
ENDROOT
BRANCH   1  11
ATOM     11  N   UNL     1       1.932   7.225  20.606  0.00  0.00    +0.000 NA
ATOM     12  H   UNL     1       1.207   7.535  21.255  0.00  0.00    +0.000 HD
BRANCH  11  13
ATOM     13  C   UNL     1       1.938   8.113  19.436  0.00  0.00    +0.000 C 
BRANCH  13  14
ATOM     14  C   UNL     1       1.233   9.466  19.645  0.00  0.00    +0.000 C 
BRANCH  14  17
ATOM     15  O   UNL     1      -1.061  11.005  20.189  0.00  0.00    +0.000 OA
ATOM     16  C   UNL     1      -0.965  10.437  19.110  0.00  0.00    +0.000 C 
ATOM     17  N   UNL     1       0.118   9.659  18.747  0.00  0.00    +0.000 N 
ATOM     18  H   UNL     1       0.207   9.338  17.791  0.00  0.00    +0.000 HD
BRANCH  16  19
ATOM     19  C   UNL     1      -2.022  10.587  18.078  0.00  0.00    +0.000 A 
ATOM     20  C   UNL     1      -1.880   9.903  16.865  0.00  0.00    +0.000 A 
ATOM     21  C   UNL     1      -2.860  10.024  15.879  0.00  0.00    +0.000 A 
ATOM     22  C   UNL     1      -3.975  10.833  16.098  0.00  0.00    +0.000 A 
ATOM     23  C   UNL     1      -4.112  11.527  17.301  0.00  0.00    +0.000 A 
ATOM     24  C   UNL     1      -3.136  11.408  18.290  0.00  0.00    +0.000 A 
ENDBRANCH  16  19
ENDBRANCH  14  17
ENDBRANCH  13  14
ENDBRANCH  11  13
ENDBRANCH   1  11
BRANCH   9  25
ATOM     25  O   UNL     1       4.136   2.941  17.361  0.00  0.00    +0.000 OA
BRANCH  25  26
ATOM     26  C   UNL     1       5.418   3.167  16.759  0.00  0.00    +0.000 C 
BRANCH  26  27
ATOM     27  C   UNL     1       5.822   4.608  16.945  0.00  0.00    +0.000 A 
ATOM     28  C   UNL     1       4.952   5.648  16.591  0.00  0.00    +0.000 A 
ATOM     29  C   UNL     1       5.324   6.981  16.779  0.00  0.00    +0.000 A 
ATOM     30  C   UNL     1       6.572   7.288  17.317  0.00  0.00    +0.000 A 
ATOM     31  C   UNL     1       7.452   6.263  17.662  0.00  0.00    +0.000 A 
ATOM     32  C   UNL     1       7.081   4.930  17.474  0.00  0.00    +0.000 A 
ENDBRANCH  26  27
ENDBRANCH  25  26
ENDBRANCH   9  25
TORSDOF 8
ENDMDL
MODEL 9
REMARK VINA RESULT:      -7.9      3.050      7.993
REMARK  Name = 
REMARK  8 active torsions:
REMARK  status: ('A' for Active; 'I' for Inactive)
REMARK    1  A    between atoms: C_2  and  C_25
REMARK    2  A    between atoms: N_3  and  C_4
REMARK    3  A    between atoms: C_4  and  C_5
REMARK    4  A    between atoms: C_5  and  N_6
REMARK    5  A    between atoms: N_6  and  C_7
REMARK    6  A    between atoms: C_15  and  O_17
REMARK    7  A    between atoms: O_17  and  C_18
REMARK    8  A    between atoms: C_18  and  C_19
REMARK                            x       y       z     vdW  Elec       q    Type
REMARK                         _______ _______ _______ _____ _____    ______ ____
ROOT
ATOM      1  C   UNL     1       4.469   7.424  17.516  0.00  0.00    +0.000 C 
ATOM      2  C   UNL     1       4.081   6.263  18.468  0.00  0.00    +0.000 C 
ATOM      3  C   UNL     1       5.188   5.184  18.527  0.00  0.00    +0.000 C 
ATOM      4  C   UNL     1       6.558   5.799  18.858  0.00  0.00    +0.000 C 
ATOM      5  C   UNL     1       7.152   6.196  17.486  0.00  0.00    +0.000 C 
ATOM      6  C   UNL     1       6.090   5.769  16.462  0.00  0.00    +0.000 C 
ATOM      7  C   UNL     1       5.055   6.879  16.193  0.00  0.00    +0.000 C 
ATOM      8  N   UNL     1       5.414   4.710  17.175  0.00  0.00    +0.000 N 
ATOM      9  C   UNL     1       5.047   3.522  16.602  0.00  0.00    +0.000 C 
ATOM     10  O   UNL     1       5.244   3.268  15.420  0.00  0.00    +0.000 OA
ENDROOT
BRANCH   1  11
ATOM     11  N   UNL     1       3.375   8.365  17.223  0.00  0.00    +0.000 NA
ATOM     12  H   UNL     1       3.714   9.320  17.349  0.00  0.00    +0.000 HD
BRANCH  11  13
ATOM     13  C   UNL     1       2.178   8.170  18.053  0.00  0.00    +0.000 C 
BRANCH  13  14
ATOM     14  C   UNL     1       1.511   9.469  18.544  0.00  0.00    +0.000 C 
BRANCH  14  17
ATOM     15  O   UNL     1      -0.672  10.796  19.727  0.00  0.00    +0.000 OA
ATOM     16  C   UNL     1      -0.778  10.376  18.583  0.00  0.00    +0.000 C 
ATOM     17  N   UNL     1       0.234   9.712  17.914  0.00  0.00    +0.000 N 
ATOM     18  H   UNL     1       0.139   9.519  16.925  0.00  0.00    +0.000 HD
BRANCH  16  19
ATOM     19  C   UNL     1      -2.023  10.595  17.807  0.00  0.00    +0.000 A 
ATOM     20  C   UNL     1      -3.003  11.445  18.333  0.00  0.00    +0.000 A 
ATOM     21  C   UNL     1      -4.183  11.672  17.623  0.00  0.00    +0.000 A 
ATOM     22  C   UNL     1      -4.390  11.045  16.394  0.00  0.00    +0.000 A 
ATOM     23  C   UNL     1      -3.421  10.187  15.874  0.00  0.00    +0.000 A 
ATOM     24  C   UNL     1      -2.239   9.957  16.579  0.00  0.00    +0.000 A 
ENDBRANCH  16  19
ENDBRANCH  14  17
ENDBRANCH  13  14
ENDBRANCH  11  13
ENDBRANCH   1  11
BRANCH   9  25
ATOM     25  O   UNL     1       4.481   2.668  17.488  0.00  0.00    +0.000 OA
BRANCH  25  26
ATOM     26  C   UNL     1       3.049   2.599  17.456  0.00  0.00    +0.000 C 
BRANCH  26  27
ATOM     27  C   UNL     1       2.492   2.911  18.822  0.00  0.00    +0.000 A 
ATOM     28  C   UNL     1       1.346   3.707  18.965  0.00  0.00    +0.000 A 
ATOM     29  C   UNL     1       0.825   3.980  20.230  0.00  0.00    +0.000 A 
ATOM     30  C   UNL     1       1.446   3.467  21.367  0.00  0.00    +0.000 A 
ATOM     31  C   UNL     1       2.593   2.685  21.241  0.00  0.00    +0.000 A 
ATOM     32  C   UNL     1       3.116   2.411  19.975  0.00  0.00    +0.000 A 
ENDBRANCH  26  27
ENDBRANCH  25  26
ENDBRANCH   9  25
TORSDOF 8
ENDMDL
