MODEL 1
REMARK VINA RESULT:      -8.1      0.000      0.000
REMARK  Name = 
REMARK  4 active torsions:
REMARK  status: ('A' for Active; 'I' for Inactive)
REMARK    1  A    between atoms: C_1  and  C_2
REMARK    2  A    between atoms: C_5  and  C_6
REMARK    3  A    between atoms: C_11  and  C_13
REMARK    4  A    between atoms: C_15  and  C_16
REMARK                            x       y       z     vdW  Elec       q    Type
REMARK                         _______ _______ _______ _____ _____    ______ ____
ROOT
ATOM      1  C   UNL     1       3.394   2.070  18.016  0.00  0.00    +0.000 C 
ATOM      2  C   UNL     1       3.287   3.545  17.612  0.00  0.00    +0.000 C 
ATOM      3  C   UNL     1       1.863   4.096  17.738  0.00  0.00    +0.000 C 
ATOM      4  C   UNL     1       1.441   4.327  19.190  0.00  0.00    +0.000 C 
ATOM      5  C   UNL     1       2.470   5.149  19.982  0.00  0.00    +0.000 C 
ATOM      6  C   UNL     1       3.880   4.580  19.797  0.00  0.00    +0.000 C 
ATOM      7  N   UNL     1       4.220   4.389  18.386  0.00  0.00    +0.000 N 
ATOM      8  C   UNL     1       5.461   4.870  17.931  0.00  0.00    +0.000 C 
ATOM      9  O   UNL     1       6.296   5.312  18.723  0.00  0.00    +0.000 OA
ENDROOT
BRANCH   5  10
ATOM     10  C   UNL     1       2.405   6.637  19.638  0.00  0.00    +0.000 C 
ATOM     11  N   UNL     1       1.916   7.459  20.609  0.00  0.00    +0.000 N 
ATOM     12  O   UNL     1       2.689   7.102  18.540  0.00  0.00    +0.000 OA
ATOM     13  H   UNL     1       1.806   7.187  21.576  0.00  0.00    +0.000 HD
ATOM     14  H   UNL     1       1.924   8.451  20.403  0.00  0.00    +0.000 HD
ENDBRANCH   5  10
BRANCH   8  15
ATOM     15  C   UNL     1       5.776   4.845  16.495  0.00  0.00    +0.000 A 
ATOM     16  C   UNL     1       5.934   3.685  15.686  0.00  0.00    +0.000 A 
ATOM     17  C   UNL     1       6.224   4.172  14.436  0.00  0.00    +0.000 A 
ATOM     18  O   UNL     1       6.283   5.527  14.491  0.00  0.00    +0.000 OA
ATOM     19  N   UNL     1       6.052   5.948  15.781  0.00  0.00    +0.000 NA
BRANCH  17  20
ATOM     20  C   UNL     1       6.463   3.357  13.184  0.00  0.00    +0.000 C 
ATOM     21  C   UNL     1       5.458   3.477  12.055  0.00  0.00    +0.000 C 
ATOM     22  C   UNL     1       6.793   4.123  11.918  0.00  0.00    +0.000 C 
ENDBRANCH  17  20
ENDBRANCH   8  15
TORSDOF 3
ENDMDL
MODEL 2
REMARK VINA RESULT:      -7.5      3.177      4.433
REMARK  Name = 
REMARK  4 active torsions:
REMARK  status: ('A' for Active; 'I' for Inactive)
REMARK    1  A    between atoms: C_1  and  C_2
REMARK    2  A    between atoms: C_5  and  C_6
REMARK    3  A    between atoms: C_11  and  C_13
REMARK    4  A    between atoms: C_15  and  C_16
REMARK                            x       y       z     vdW  Elec       q    Type
REMARK                         _______ _______ _______ _____ _____    ______ ____
ROOT
ATOM      1  C   UNL     1       2.220   7.134  18.257  0.00  0.00    +0.000 C 
ATOM      2  C   UNL     1       3.059   6.257  19.194  0.00  0.00    +0.000 C 
ATOM      3  C   UNL     1       2.425   6.087  20.578  0.00  0.00    +0.000 C 
ATOM      4  C   UNL     1       1.216   5.150  20.567  0.00  0.00    +0.000 C 
ATOM      5  C   UNL     1       1.514   3.808  19.880  0.00  0.00    +0.000 C 
ATOM      6  C   UNL     1       2.177   4.030  18.517  0.00  0.00    +0.000 C 
ATOM      7  N   UNL     1       3.327   4.931  18.600  0.00  0.00    +0.000 N 
ATOM      8  C   UNL     1       4.525   4.540  17.974  0.00  0.00    +0.000 C 
ATOM      9  O   UNL     1       4.564   3.537  17.259  0.00  0.00    +0.000 OA
ENDROOT
BRANCH   5  10
ATOM     10  C   UNL     1       2.336   2.876  20.770  0.00  0.00    +0.000 C 
ATOM     11  N   UNL     1       1.939   2.782  22.071  0.00  0.00    +0.000 N 
ATOM     12  O   UNL     1       3.346   2.288  20.403  0.00  0.00    +0.000 OA
ATOM     13  H   UNL     1       1.045   3.104  22.413  0.00  0.00    +0.000 HD
ATOM     14  H   UNL     1       2.448   2.122  22.648  0.00  0.00    +0.000 HD
ENDBRANCH   5  10
BRANCH   8  15
ATOM     15  C   UNL     1       5.747   5.334  18.167  0.00  0.00    +0.000 A 
ATOM     16  C   UNL     1       6.141   6.475  17.413  0.00  0.00    +0.000 A 
ATOM     17  C   UNL     1       7.341   6.853  17.960  0.00  0.00    +0.000 A 
ATOM     18  O   UNL     1       7.674   5.981  18.945  0.00  0.00    +0.000 OA
ATOM     19  N   UNL     1       6.709   5.006  19.045  0.00  0.00    +0.000 NA
BRANCH  17  20
ATOM     20  C   UNL     1       8.188   8.036  17.544  0.00  0.00    +0.000 C 
ATOM     21  C   UNL     1       7.598   9.424  17.701  0.00  0.00    +0.000 C 
ATOM     22  C   UNL     1       8.656   8.967  18.644  0.00  0.00    +0.000 C 
ENDBRANCH  17  20
ENDBRANCH   8  15
TORSDOF 3
ENDMDL
MODEL 3
REMARK VINA RESULT:      -7.4      1.167      1.270
REMARK  Name = 
REMARK  4 active torsions:
REMARK  status: ('A' for Active; 'I' for Inactive)
REMARK    1  A    between atoms: C_1  and  C_2
REMARK    2  A    between atoms: C_5  and  C_6
REMARK    3  A    between atoms: C_11  and  C_13
REMARK    4  A    between atoms: C_15  and  C_16
REMARK                            x       y       z     vdW  Elec       q    Type
REMARK                         _______ _______ _______ _____ _____    ______ ____
ROOT
ATOM      1  C   UNL     1       3.597   1.782  18.046  0.00  0.00    +0.000 C 
ATOM      2  C   UNL     1       3.575   3.266  17.661  0.00  0.00    +0.000 C 
ATOM      3  C   UNL     1       2.156   3.816  17.486  0.00  0.00    +0.000 C 
ATOM      4  C   UNL     1       1.428   4.015  18.817  0.00  0.00    +0.000 C 
ATOM      5  C   UNL     1       2.257   4.818  19.831  0.00  0.00    +0.000 C 
ATOM      6  C   UNL     1       3.675   4.252  19.944  0.00  0.00    +0.000 C 
ATOM      7  N   UNL     1       4.315   4.091  18.637  0.00  0.00    +0.000 N 
ATOM      8  C   UNL     1       5.623   4.581  18.474  0.00  0.00    +0.000 C 
ATOM      9  O   UNL     1       6.264   5.004  19.438  0.00  0.00    +0.000 OA
ENDROOT
BRANCH   5  10
ATOM     10  C   UNL     1       2.262   6.313  19.513  0.00  0.00    +0.000 C 
ATOM     11  N   UNL     1       2.654   6.659  18.254  0.00  0.00    +0.000 N 
ATOM     12  O   UNL     1       2.013   7.191  20.331  0.00  0.00    +0.000 OA
ATOM     13  H   UNL     1       2.726   6.008  17.486  0.00  0.00    +0.000 HD
ATOM     14  H   UNL     1       2.605   7.645  18.024  0.00  0.00    +0.000 HD
ENDBRANCH   5  10
BRANCH   8  15
ATOM     15  C   UNL     1       6.242   4.587  17.140  0.00  0.00    +0.000 A 
ATOM     16  C   UNL     1       5.559   4.614  15.892  0.00  0.00    +0.000 A 
ATOM     17  C   UNL     1       6.558   4.601  14.951  0.00  0.00    +0.000 A 
ATOM     18  O   UNL     1       7.759   4.525  15.579  0.00  0.00    +0.000 OA
ATOM     19  N   UNL     1       7.565   4.468  16.940  0.00  0.00    +0.000 NA
BRANCH  17  20
ATOM     20  C   UNL     1       6.381   4.644  13.449  0.00  0.00    +0.000 C 
ATOM     21  C   UNL     1       6.731   3.400  12.656  0.00  0.00    +0.000 C 
ATOM     22  C   UNL     1       5.300   3.761  12.858  0.00  0.00    +0.000 C 
ENDBRANCH  17  20
ENDBRANCH   8  15
TORSDOF 3
ENDMDL
MODEL 4
REMARK VINA RESULT:      -7.4      2.942      4.797
REMARK  Name = 
REMARK  4 active torsions:
REMARK  status: ('A' for Active; 'I' for Inactive)
REMARK    1  A    between atoms: C_1  and  C_2
REMARK    2  A    between atoms: C_5  and  C_6
REMARK    3  A    between atoms: C_11  and  C_13
REMARK    4  A    between atoms: C_15  and  C_16
REMARK                            x       y       z     vdW  Elec       q    Type
REMARK                         _______ _______ _______ _____ _____    ______ ____
ROOT
ATOM      1  C   UNL     1       2.515   6.984  18.204  0.00  0.00    +0.000 C 
ATOM      2  C   UNL     1       3.510   5.999  18.829  0.00  0.00    +0.000 C 
ATOM      3  C   UNL     1       2.947   5.283  20.060  0.00  0.00    +0.000 C 
ATOM      4  C   UNL     1       1.910   4.215  19.704  0.00  0.00    +0.000 C 
ATOM      5  C   UNL     1       2.409   3.242  18.626  0.00  0.00    +0.000 C 
ATOM      6  C   UNL     1       2.993   4.004  17.433  0.00  0.00    +0.000 C 
ATOM      7  N   UNL     1       3.980   5.004  17.843  0.00  0.00    +0.000 N 
ATOM      8  C   UNL     1       5.210   5.042  17.162  0.00  0.00    +0.000 C 
ATOM      9  O   UNL     1       5.398   4.350  16.159  0.00  0.00    +0.000 OA
ENDROOT
BRANCH   5  10
ATOM     10  C   UNL     1       3.395   2.217  19.188  0.00  0.00    +0.000 C 
ATOM     11  N   UNL     1       3.718   1.179  18.366  0.00  0.00    +0.000 N 
ATOM     12  O   UNL     1       3.835   2.243  20.331  0.00  0.00    +0.000 OA
ATOM     13  H   UNL     1       3.526   1.163  17.374  0.00  0.00    +0.000 HD
ATOM     14  H   UNL     1       4.413   0.530  18.715  0.00  0.00    +0.000 HD
ENDBRANCH   5  10
BRANCH   8  15
ATOM     15  C   UNL     1       6.288   5.918  17.643  0.00  0.00    +0.000 A 
ATOM     16  C   UNL     1       6.716   7.137  17.045  0.00  0.00    +0.000 A 
ATOM     17  C   UNL     1       7.741   7.574  17.847  0.00  0.00    +0.000 A 
ATOM     18  O   UNL     1       7.950   6.666  18.834  0.00  0.00    +0.000 OA
ATOM     19  N   UNL     1       7.081   5.610  18.682  0.00  0.00    +0.000 NA
BRANCH  17  20
ATOM     20  C   UNL     1       8.538   8.848  17.675  0.00  0.00    +0.000 C 
ATOM     21  C   UNL     1       7.908  10.149  18.131  0.00  0.00    +0.000 C 
ATOM     22  C   UNL     1       9.003   9.543  18.939  0.00  0.00    +0.000 C 
ENDBRANCH  17  20
ENDBRANCH   8  15
TORSDOF 3
ENDMDL
MODEL 5
REMARK VINA RESULT:      -7.2      1.673      2.323
REMARK  Name = 
REMARK  4 active torsions:
REMARK  status: ('A' for Active; 'I' for Inactive)
REMARK    1  A    between atoms: C_1  and  C_2
REMARK    2  A    between atoms: C_5  and  C_6
REMARK    3  A    between atoms: C_11  and  C_13
REMARK    4  A    between atoms: C_15  and  C_16
REMARK                            x       y       z     vdW  Elec       q    Type
REMARK                         _______ _______ _______ _____ _____    ______ ____
ROOT
ATOM      1  C   UNL     1       6.535   5.158  19.658  0.00  0.00    +0.000 C 
ATOM      2  C   UNL     1       5.542   4.527  18.675  0.00  0.00    +0.000 C 
ATOM      3  C   UNL     1       4.773   3.348  19.277  0.00  0.00    +0.000 C 
ATOM      4  C   UNL     1       3.704   3.786  20.280  0.00  0.00    +0.000 C 
ATOM      5  C   UNL     1       2.778   4.876  19.719  0.00  0.00    +0.000 C 
ATOM      6  C   UNL     1       3.592   6.015  19.098  0.00  0.00    +0.000 C 
ATOM      7  N   UNL     1       4.592   5.527  18.147  0.00  0.00    +0.000 N 
ATOM      8  C   UNL     1       4.674   6.153  16.889  0.00  0.00    +0.000 C 
ATOM      9  O   UNL     1       4.022   7.171  16.647  0.00  0.00    +0.000 OA
ENDROOT
BRANCH   5  10
ATOM     10  C   UNL     1       1.749   4.309  18.740  0.00  0.00    +0.000 C 
ATOM     11  N   UNL     1       1.083   3.192  19.148  0.00  0.00    +0.000 N 
ATOM     12  O   UNL     1       1.556   4.751  17.614  0.00  0.00    +0.000 OA
ATOM     13  H   UNL     1       1.068   2.860  20.102  0.00  0.00    +0.000 HD
ATOM     14  H   UNL     1       0.362   2.848  18.525  0.00  0.00    +0.000 HD
ENDBRANCH   5  10
BRANCH   8  15
ATOM     15  C   UNL     1       5.548   5.594  15.848  0.00  0.00    +0.000 A 
ATOM     16  C   UNL     1       5.251   4.493  14.997  0.00  0.00    +0.000 A 
ATOM     17  C   UNL     1       6.368   4.351  14.212  0.00  0.00    +0.000 A 
ATOM     18  O   UNL     1       7.294   5.270  14.588  0.00  0.00    +0.000 OA
ATOM     19  N   UNL     1       6.806   6.014  15.638  0.00  0.00    +0.000 NA
BRANCH  17  20
ATOM     20  C   UNL     1       6.572   3.335  13.110  0.00  0.00    +0.000 C 
ATOM     21  C   UNL     1       5.587   3.328  11.957  0.00  0.00    +0.000 C 
ATOM     22  C   UNL     1       6.958   3.869  11.745  0.00  0.00    +0.000 C 
ENDBRANCH  17  20
ENDBRANCH   8  15
TORSDOF 3
ENDMDL
MODEL 6
REMARK VINA RESULT:      -7.0      3.168      5.302
REMARK  Name = 
REMARK  4 active torsions:
REMARK  status: ('A' for Active; 'I' for Inactive)
REMARK    1  A    between atoms: C_1  and  C_2
REMARK    2  A    between atoms: C_5  and  C_6
REMARK    3  A    between atoms: C_11  and  C_13
REMARK    4  A    between atoms: C_15  and  C_16
REMARK                            x       y       z     vdW  Elec       q    Type
REMARK                         _______ _______ _______ _____ _____    ______ ____
ROOT
ATOM      1  C   UNL     1       2.905   3.271  16.645  0.00  0.00    +0.000 C 
ATOM      2  C   UNL     1       2.313   3.996  17.859  0.00  0.00    +0.000 C 
ATOM      3  C   UNL     1       1.149   3.234  18.500  0.00  0.00    +0.000 C 
ATOM      4  C   UNL     1       1.606   2.006  19.290  0.00  0.00    +0.000 C 
ATOM      5  C   UNL     1       2.728   2.329  20.288  0.00  0.00    +0.000 C 
ATOM      6  C   UNL     1       3.850   3.119  19.610  0.00  0.00    +0.000 C 
ATOM      7  N   UNL     1       3.345   4.281  18.877  0.00  0.00    +0.000 N 
ATOM      8  C   UNL     1       3.982   5.520  19.074  0.00  0.00    +0.000 C 
ATOM      9  O   UNL     1       5.020   5.598  19.734  0.00  0.00    +0.000 OA
ENDROOT
BRANCH   5  10
ATOM     10  C   UNL     1       2.201   3.040  21.535  0.00  0.00    +0.000 C 
ATOM     11  N   UNL     1       1.378   2.311  22.341  0.00  0.00    +0.000 N 
ATOM     12  O   UNL     1       2.413   4.218  21.796  0.00  0.00    +0.000 OA
ATOM     13  H   UNL     1       1.276   1.308  22.285  0.00  0.00    +0.000 HD
ATOM     14  H   UNL     1       1.073   2.762  23.196  0.00  0.00    +0.000 HD
ENDBRANCH   5  10
BRANCH   8  15
ATOM     15  C   UNL     1       3.411   6.740  18.487  0.00  0.00    +0.000 A 
ATOM     16  C   UNL     1       2.280   7.460  18.967  0.00  0.00    +0.000 A 
ATOM     17  C   UNL     1       2.137   8.505  18.089  0.00  0.00    +0.000 A 
ATOM     18  O   UNL     1       3.083   8.404  17.120  0.00  0.00    +0.000 OA
ATOM     19  N   UNL     1       3.847   7.280  17.337  0.00  0.00    +0.000 NA
BRANCH  17  20
ATOM     20  C   UNL     1       1.094   9.599  18.152  0.00  0.00    +0.000 C 
ATOM     21  C   UNL     1       0.845  10.268  19.490  0.00  0.00    +0.000 C 
ATOM     22  C   UNL     1       1.589  11.004  18.430  0.00  0.00    +0.000 C 
ENDBRANCH  17  20
ENDBRANCH   8  15
TORSDOF 3
ENDMDL
MODEL 7
REMARK VINA RESULT:      -6.9      2.596      6.162
REMARK  Name = 
REMARK  4 active torsions:
REMARK  status: ('A' for Active; 'I' for Inactive)
REMARK    1  A    between atoms: C_1  and  C_2
REMARK    2  A    between atoms: C_5  and  C_6
REMARK    3  A    between atoms: C_11  and  C_13
REMARK    4  A    between atoms: C_15  and  C_16
REMARK                            x       y       z     vdW  Elec       q    Type
REMARK                         _______ _______ _______ _____ _____    ______ ____
ROOT
ATOM      1  C   UNL     1       4.413   3.722  16.487  0.00  0.00    +0.000 C 
ATOM      2  C   UNL     1       4.980   4.551  17.645  0.00  0.00    +0.000 C 
ATOM      3  C   UNL     1       6.464   4.276  17.906  0.00  0.00    +0.000 C 
ATOM      4  C   UNL     1       7.378   4.891  16.844  0.00  0.00    +0.000 C 
ATOM      5  C   UNL     1       7.082   6.379  16.599  0.00  0.00    +0.000 C 
ATOM      6  C   UNL     1       5.584   6.607  16.379  0.00  0.00    +0.000 C 
ATOM      7  N   UNL     1       4.770   5.997  17.432  0.00  0.00    +0.000 N 
ATOM      8  C   UNL     1       3.760   6.776  18.026  0.00  0.00    +0.000 C 
ATOM      9  O   UNL     1       3.475   7.889  17.578  0.00  0.00    +0.000 OA
ENDROOT
BRANCH   5  10
ATOM     10  C   UNL     1       7.638   7.266  17.713  0.00  0.00    +0.000 C 
ATOM     11  N   UNL     1       7.631   8.608  17.474  0.00  0.00    +0.000 N 
ATOM     12  O   UNL     1       8.143   6.839  18.745  0.00  0.00    +0.000 OA
ATOM     13  H   UNL     1       7.104   9.047  16.733  0.00  0.00    +0.000 HD
ATOM     14  H   UNL     1       7.947   9.201  18.233  0.00  0.00    +0.000 HD
ENDBRANCH   5  10
BRANCH   8  15
ATOM     15  C   UNL     1       3.027   6.262  19.192  0.00  0.00    +0.000 A 
ATOM     16  C   UNL     1       3.132   4.955  19.746  0.00  0.00    +0.000 A 
ATOM     17  C   UNL     1       2.258   4.956  20.803  0.00  0.00    +0.000 A 
ATOM     18  O   UNL     1       1.634   6.161  20.862  0.00  0.00    +0.000 OA
ATOM     19  N   UNL     1       2.075   6.959  19.831  0.00  0.00    +0.000 NA
BRANCH  17  20
ATOM     20  C   UNL     1       1.996   3.812  21.757  0.00  0.00    +0.000 C 
ATOM     21  C   UNL     1       1.218   2.618  21.240  0.00  0.00    +0.000 C 
ATOM     22  C   UNL     1       2.686   2.496  21.459  0.00  0.00    +0.000 C 
ENDBRANCH  17  20
ENDBRANCH   8  15
TORSDOF 3
ENDMDL
MODEL 8
REMARK VINA RESULT:      -6.9      3.561      5.321
REMARK  Name = 
REMARK  4 active torsions:
REMARK  status: ('A' for Active; 'I' for Inactive)
REMARK    1  A    between atoms: C_1  and  C_2
REMARK    2  A    between atoms: C_5  and  C_6
REMARK    3  A    between atoms: C_11  and  C_13
REMARK    4  A    between atoms: C_15  and  C_16
REMARK                            x       y       z     vdW  Elec       q    Type
REMARK                         _______ _______ _______ _____ _____    ______ ____
ROOT
ATOM      1  C   UNL     1       3.350   7.420  17.125  0.00  0.00    +0.000 C 
ATOM      2  C   UNL     1       4.238   6.627  18.092  0.00  0.00    +0.000 C 
ATOM      3  C   UNL     1       3.443   5.946  19.210  0.00  0.00    +0.000 C 
ATOM      4  C   UNL     1       2.658   4.726  18.723  0.00  0.00    +0.000 C 
ATOM      5  C   UNL     1       3.528   3.742  17.926  0.00  0.00    +0.000 C 
ATOM      6  C   UNL     1       4.328   4.475  16.845  0.00  0.00    +0.000 C 
ATOM      7  N   UNL     1       5.057   5.626  17.379  0.00  0.00    +0.000 N 
ATOM      8  C   UNL     1       6.414   5.769  17.037  0.00  0.00    +0.000 C 
ATOM      9  O   UNL     1       6.936   5.029  16.201  0.00  0.00    +0.000 OA
ENDROOT
BRANCH   5  10
ATOM     10  C   UNL     1       4.429   2.905  18.835  0.00  0.00    +0.000 C 
ATOM     11  N   UNL     1       4.140   1.575  18.908  0.00  0.00    +0.000 N 
ATOM     12  O   UNL     1       5.320   3.370  19.536  0.00  0.00    +0.000 OA
ATOM     13  H   UNL     1       3.535   1.092  18.260  0.00  0.00    +0.000 HD
ATOM     14  H   UNL     1       4.770   1.010  19.466  0.00  0.00    +0.000 HD
ENDBRANCH   5  10
BRANCH   8  15
ATOM     15  C   UNL     1       7.225   6.815  17.677  0.00  0.00    +0.000 A 
ATOM     16  C   UNL     1       7.280   8.188  17.303  0.00  0.00    +0.000 A 
ATOM     17  C   UNL     1       8.172   8.750  18.182  0.00  0.00    +0.000 A 
ATOM     18  O   UNL     1       8.657   7.783  19.001  0.00  0.00    +0.000 OA
ATOM     19  N   UNL     1       8.107   6.569  18.659  0.00  0.00    +0.000 NA
BRANCH  17  20
ATOM     20  C   UNL     1       8.582  10.205  18.243  0.00  0.00    +0.000 C 
ATOM     21  C   UNL     1       9.337  10.680  19.469  0.00  0.00    +0.000 C 
ATOM     22  C   UNL     1      10.067  10.504  18.182  0.00  0.00    +0.000 C 
ENDBRANCH  17  20
ENDBRANCH   8  15
TORSDOF 3
ENDMDL
MODEL 9
REMARK VINA RESULT:      -6.8      1.656      1.894
REMARK  Name = 
REMARK  4 active torsions:
REMARK  status: ('A' for Active; 'I' for Inactive)
REMARK    1  A    between atoms: C_1  and  C_2
REMARK    2  A    between atoms: C_5  and  C_6
REMARK    3  A    between atoms: C_11  and  C_13
REMARK    4  A    between atoms: C_15  and  C_16
REMARK                            x       y       z     vdW  Elec       q    Type
REMARK                         _______ _______ _______ _____ _____    ______ ____
ROOT
ATOM      1  C   UNL     1       4.046   1.195  17.794  0.00  0.00    +0.000 C 
ATOM      2  C   UNL     1       3.432   2.595  17.904  0.00  0.00    +0.000 C 
ATOM      3  C   UNL     1       1.915   2.567  18.110  0.00  0.00    +0.000 C 
ATOM      4  C   UNL     1       1.514   2.137  19.522  0.00  0.00    +0.000 C 
ATOM      5  C   UNL     1       2.249   2.931  20.613  0.00  0.00    +0.000 C 
ATOM      6  C   UNL     1       3.756   2.959  20.345  0.00  0.00    +0.000 C 
ATOM      7  N   UNL     1       4.068   3.383  18.979  0.00  0.00    +0.000 N 
ATOM      8  C   UNL     1       5.053   4.372  18.799  0.00  0.00    +0.000 C 
ATOM      9  O   UNL     1       5.732   4.767  19.750  0.00  0.00    +0.000 OA
ENDROOT
BRANCH   5  10
ATOM     10  C   UNL     1       1.673   4.337  20.787  0.00  0.00    +0.000 C 
ATOM     11  N   UNL     1       2.502   5.261  21.349  0.00  0.00    +0.000 N 
ATOM     12  O   UNL     1       0.515   4.643  20.526  0.00  0.00    +0.000 OA
ATOM     13  H   UNL     1       3.499   5.138  21.450  0.00  0.00    +0.000 HD
ATOM     14  H   UNL     1       2.142   6.206  21.413  0.00  0.00    +0.000 HD
ENDBRANCH   5  10
BRANCH   8  15
ATOM     15  C   UNL     1       5.284   4.942  17.465  0.00  0.00    +0.000 A 
ATOM     16  C   UNL     1       5.426   4.215  16.249  0.00  0.00    +0.000 A 
ATOM     17  C   UNL     1       5.631   5.178  15.292  0.00  0.00    +0.000 A 
ATOM     18  O   UNL     1       5.656   6.397  15.888  0.00  0.00    +0.000 OA
ATOM     19  N   UNL     1       5.490   6.251  17.246  0.00  0.00    +0.000 NA
BRANCH  17  20
ATOM     20  C   UNL     1       5.818   4.949  13.809  0.00  0.00    +0.000 C 
ATOM     21  C   UNL     1       7.224   4.691  13.301  0.00  0.00    +0.000 C 
ATOM     22  C   UNL     1       6.254   3.563  13.377  0.00  0.00    +0.000 C 
ENDBRANCH  17  20
ENDBRANCH   8  15
TORSDOF 3
ENDMDL
