MODEL 1
REMARK VINA RESULT:      -7.5      0.000      0.000
REMARK  Name = 
REMARK  3 active torsions:
REMARK  status: ('A' for Active; 'I' for Inactive)
REMARK    1  A    between atoms: C_2  and  C_3
REMARK    2  A    between atoms: C_3  and  C_4
REMARK    3  A    between atoms: C_4  and  N_5
REMARK                            x       y       z     vdW  Elec       q    Type
REMARK                         _______ _______ _______ _____ _____    ______ ____
ROOT
ATOM      1  O   UNL     1       3.727   6.413  18.832  0.00  0.00    +0.000 OA
ATOM      2  C   UNL     1       3.585   5.549  17.964  0.00  0.00    +0.000 C 
ATOM      3  N   UNL     1       4.630   5.091  17.182  0.00  0.00    +0.000 N 
ATOM      4  C   UNL     1       4.523   3.996  16.224  0.00  0.00    +0.000 C 
ATOM      5  C   UNL     1       5.950   3.629  15.868  0.00  0.00    +0.000 C 
ATOM      6  C   UNL     1       6.690   4.947  16.040  0.00  0.00    +0.000 C 
ATOM      7  C   UNL     1       6.020   5.599  17.280  0.00  0.00    +0.000 C 
ATOM      8  C   UNL     1       6.674   5.110  18.596  0.00  0.00    +0.000 C 
ATOM      9  C   UNL     1       8.078   5.669  18.822  0.00  0.00    +0.000 C 
ATOM     10  C   UNL     1       8.112   7.187  18.701  0.00  0.00    +0.000 C 
ATOM     11  C   UNL     1       7.538   7.656  17.369  0.00  0.00    +0.000 C 
ATOM     12  C   UNL     1       6.114   7.139  17.170  0.00  0.00    +0.000 C 
ENDROOT
BRANCH   2  13
ATOM     13  C   UNL     1       2.238   4.878  17.761  0.00  0.00    +0.000 C 
BRANCH  13  14
ATOM     14  C   UNL     1       1.612   4.510  19.108  0.00  0.00    +0.000 C 
BRANCH  14  15
ATOM     15  N   UNL     1       1.461   3.053  19.312  0.00  0.00    +0.000 NA
ATOM     16  C   UNL     1       2.704   2.296  19.049  0.00  0.00    +0.000 C 
ATOM     17  C   UNL     1       3.838   2.554  20.066  0.00  0.00    +0.000 C 
ATOM     18  N   UNL     1       3.425   2.285  21.450  0.00  0.00    +0.000 NA
ATOM     19  C   UNL     1       2.176   2.996  21.764  0.00  0.00    +0.000 C 
ATOM     20  C   UNL     1       1.059   2.773  20.714  0.00  0.00    +0.000 C 
ATOM     21  H   UNL     1       4.159   2.592  22.087  0.00  0.00    +0.000 HD
ENDBRANCH  14  15
ENDBRANCH  13  14
ENDBRANCH   2  13
TORSDOF 3
ENDMDL
MODEL 2
REMARK VINA RESULT:      -6.9      0.822      1.004
REMARK  Name = 
REMARK  3 active torsions:
REMARK  status: ('A' for Active; 'I' for Inactive)
REMARK    1  A    between atoms: C_2  and  C_3
REMARK    2  A    between atoms: C_3  and  C_4
REMARK    3  A    between atoms: C_4  and  N_5
REMARK                            x       y       z     vdW  Elec       q    Type
REMARK                         _______ _______ _______ _____ _____    ______ ____
ROOT
ATOM      1  O   UNL     1       3.774   6.414  18.787  0.00  0.00    +0.000 OA
ATOM      2  C   UNL     1       3.641   5.589  17.881  0.00  0.00    +0.000 C 
ATOM      3  N   UNL     1       4.696   5.159  17.097  0.00  0.00    +0.000 N 
ATOM      4  C   UNL     1       4.599   4.108  16.091  0.00  0.00    +0.000 C 
ATOM      5  C   UNL     1       6.030   3.747  15.742  0.00  0.00    +0.000 C 
ATOM      6  C   UNL     1       6.774   5.052  15.983  0.00  0.00    +0.000 C 
ATOM      7  C   UNL     1       6.087   5.653  17.239  0.00  0.00    +0.000 C 
ATOM      8  C   UNL     1       6.717   5.104  18.543  0.00  0.00    +0.000 C 
ATOM      9  C   UNL     1       8.121   5.644  18.815  0.00  0.00    +0.000 C 
ATOM     10  C   UNL     1       8.164   7.165  18.762  0.00  0.00    +0.000 C 
ATOM     11  C   UNL     1       7.615   7.695  17.441  0.00  0.00    +0.000 C 
ATOM     12  C   UNL     1       6.192   7.196  17.198  0.00  0.00    +0.000 C 
ENDROOT
BRANCH   2  13
ATOM     13  C   UNL     1       2.294   4.936  17.627  0.00  0.00    +0.000 C 
BRANCH  13  14
ATOM     14  C   UNL     1       2.181   3.619  18.400  0.00  0.00    +0.000 C 
BRANCH  14  15
ATOM     15  N   UNL     1       1.039   3.580  19.338  0.00  0.00    +0.000 NA
ATOM     16  C   UNL     1       0.976   2.330  20.127  0.00  0.00    +0.000 C 
ATOM     17  C   UNL     1       2.121   2.161  21.151  0.00  0.00    +0.000 C 
ATOM     18  N   UNL     1       2.208   3.289  22.089  0.00  0.00    +0.000 NA
ATOM     19  C   UNL     1       2.251   4.565  21.361  0.00  0.00    +0.000 C 
ATOM     20  C   UNL     1       1.130   4.708  20.300  0.00  0.00    +0.000 C 
ATOM     21  H   UNL     1       3.051   3.193  22.654  0.00  0.00    +0.000 HD
ENDBRANCH  14  15
ENDBRANCH  13  14
ENDBRANCH   2  13
TORSDOF 3
ENDMDL
MODEL 3
REMARK VINA RESULT:      -6.6      1.474      5.645
REMARK  Name = 
REMARK  3 active torsions:
REMARK  status: ('A' for Active; 'I' for Inactive)
REMARK    1  A    between atoms: C_2  and  C_3
REMARK    2  A    between atoms: C_3  and  C_4
REMARK    3  A    between atoms: C_4  and  N_5
REMARK                            x       y       z     vdW  Elec       q    Type
REMARK                         _______ _______ _______ _____ _____    ______ ____
ROOT
ATOM      1  O   UNL     1       3.447   6.152  19.238  0.00  0.00    +0.000 OA
ATOM      2  C   UNL     1       3.723   5.534  18.208  0.00  0.00    +0.000 C 
ATOM      3  N   UNL     1       3.425   4.194  18.034  0.00  0.00    +0.000 N 
ATOM      4  C   UNL     1       3.637   3.458  16.793  0.00  0.00    +0.000 C 
ATOM      5  C   UNL     1       2.869   2.161  16.955  0.00  0.00    +0.000 C 
ATOM      6  C   UNL     1       2.913   1.930  18.459  0.00  0.00    +0.000 C 
ATOM      7  C   UNL     1       2.770   3.352  19.064  0.00  0.00    +0.000 C 
ATOM      8  C   UNL     1       1.282   3.755  19.213  0.00  0.00    +0.000 C 
ATOM      9  C   UNL     1       0.555   2.999  20.325  0.00  0.00    +0.000 C 
ATOM     10  C   UNL     1       1.301   3.084  21.650  0.00  0.00    +0.000 C 
ATOM     11  C   UNL     1       2.744   2.611  21.513  0.00  0.00    +0.000 C 
ATOM     12  C   UNL     1       3.482   3.405  20.437  0.00  0.00    +0.000 C 
ENDROOT
BRANCH   2  13
ATOM     13  C   UNL     1       4.350   6.250  17.025  0.00  0.00    +0.000 C 
BRANCH  13  14
ATOM     14  C   UNL     1       5.414   7.243  17.500  0.00  0.00    +0.000 C 
BRANCH  14  15
ATOM     15  N   UNL     1       6.744   7.020  16.895  0.00  0.00    +0.000 NA
ATOM     16  C   UNL     1       7.860   7.255  17.837  0.00  0.00    +0.000 C 
ATOM     17  C   UNL     1       7.955   6.228  18.987  0.00  0.00    +0.000 C 
ATOM     18  N   UNL     1       8.055   4.845  18.499  0.00  0.00    +0.000 NA
ATOM     19  C   UNL     1       6.981   4.558  17.537  0.00  0.00    +0.000 C 
ATOM     20  C   UNL     1       6.858   5.619  16.414  0.00  0.00    +0.000 C 
ATOM     21  H   UNL     1       7.983   4.203  19.288  0.00  0.00    +0.000 HD
ENDBRANCH  14  15
ENDBRANCH  13  14
ENDBRANCH   2  13
TORSDOF 3
ENDMDL
MODEL 4
REMARK VINA RESULT:      -6.5      4.142      5.744
REMARK  Name = 
REMARK  3 active torsions:
REMARK  status: ('A' for Active; 'I' for Inactive)
REMARK    1  A    between atoms: C_2  and  C_3
REMARK    2  A    between atoms: C_3  and  C_4
REMARK    3  A    between atoms: C_4  and  N_5
REMARK                            x       y       z     vdW  Elec       q    Type
REMARK                         _______ _______ _______ _____ _____    ______ ____
ROOT
ATOM      1  O   UNL     1       1.691   5.670  20.293  0.00  0.00    +0.000 OA
ATOM      2  C   UNL     1       2.330   6.452  19.587  0.00  0.00    +0.000 C 
ATOM      3  N   UNL     1       3.246   6.031  18.639  0.00  0.00    +0.000 N 
ATOM      4  C   UNL     1       3.939   6.919  17.713  0.00  0.00    +0.000 C 
ATOM      5  C   UNL     1       4.557   6.011  16.667  0.00  0.00    +0.000 C 
ATOM      6  C   UNL     1       4.807   4.726  17.443  0.00  0.00    +0.000 C 
ATOM      7  C   UNL     1       3.579   4.608  18.386  0.00  0.00    +0.000 C 
ATOM      8  C   UNL     1       2.394   3.902  17.682  0.00  0.00    +0.000 C 
ATOM      9  C   UNL     1       2.617   2.405  17.470  0.00  0.00    +0.000 C 
ATOM     10  C   UNL     1       3.011   1.700  18.761  0.00  0.00    +0.000 C 
ATOM     11  C   UNL     1       4.228   2.354  19.408  0.00  0.00    +0.000 C 
ATOM     12  C   UNL     1       3.982   3.839  19.667  0.00  0.00    +0.000 C 
ENDROOT
BRANCH   2  13
ATOM     13  C   UNL     1       2.080   7.947  19.674  0.00  0.00    +0.000 C 
BRANCH  13  14
ATOM     14  C   UNL     1       1.475   8.312  21.031  0.00  0.00    +0.000 C 
BRANCH  14  15
ATOM     15  N   UNL     1       0.050   8.702  20.958  0.00  0.00    +0.000 NA
ATOM     16  C   UNL     1      -0.633   8.664  22.270  0.00  0.00    +0.000 C 
ATOM     17  C   UNL     1      -0.152   9.737  23.273  0.00  0.00    +0.000 C 
ATOM     18  N   UNL     1      -0.269  11.100  22.737  0.00  0.00    +0.000 NA
ATOM     19  C   UNL     1       0.374  11.194  21.418  0.00  0.00    +0.000 C 
ATOM     20  C   UNL     1      -0.075  10.086  20.433  0.00  0.00    +0.000 C 
ATOM     21  H   UNL     1       0.178  11.755  23.379  0.00  0.00    +0.000 HD
ENDBRANCH  14  15
ENDBRANCH  13  14
ENDBRANCH   2  13
TORSDOF 3
ENDMDL
MODEL 5
REMARK VINA RESULT:      -6.5      1.933      6.097
REMARK  Name = 
REMARK  3 active torsions:
REMARK  status: ('A' for Active; 'I' for Inactive)
REMARK    1  A    between atoms: C_2  and  C_3
REMARK    2  A    between atoms: C_3  and  C_4
REMARK    3  A    between atoms: C_4  and  N_5
REMARK                            x       y       z     vdW  Elec       q    Type
REMARK                         _______ _______ _______ _____ _____    ______ ____
ROOT
ATOM      1  O   UNL     1       4.030   4.518  17.957  0.00  0.00    +0.000 OA
ATOM      2  C   UNL     1       3.722   5.693  18.165  0.00  0.00    +0.000 C 
ATOM      3  N   UNL     1       2.760   6.067  19.087  0.00  0.00    +0.000 N 
ATOM      4  C   UNL     1       2.447   7.447  19.437  0.00  0.00    +0.000 C 
ATOM      5  C   UNL     1       1.606   7.365  20.696  0.00  0.00    +0.000 C 
ATOM      6  C   UNL     1       0.905   6.022  20.545  0.00  0.00    +0.000 C 
ATOM      7  C   UNL     1       1.980   5.105  19.902  0.00  0.00    +0.000 C 
ATOM      8  C   UNL     1       2.888   4.461  20.979  0.00  0.00    +0.000 C 
ATOM      9  C   UNL     1       2.184   3.383  21.804  0.00  0.00    +0.000 C 
ATOM     10  C   UNL     1       1.521   2.335  20.920  0.00  0.00    +0.000 C 
ATOM     11  C   UNL     1       0.568   2.971  19.914  0.00  0.00    +0.000 C 
ATOM     12  C   UNL     1       1.287   4.010  19.056  0.00  0.00    +0.000 C 
ENDROOT
BRANCH   2  13
ATOM     13  C   UNL     1       4.457   6.818  17.456  0.00  0.00    +0.000 C 
BRANCH  13  14
ATOM     14  C   UNL     1       5.066   6.318  16.144  0.00  0.00    +0.000 C 
BRANCH  14  15
ATOM     15  N   UNL     1       6.524   6.548  16.044  0.00  0.00    +0.000 NA
ATOM     16  C   UNL     1       7.172   6.760  17.357  0.00  0.00    +0.000 C 
ATOM     17  C   UNL     1       7.198   5.511  18.267  0.00  0.00    +0.000 C 
ATOM     18  N   UNL     1       7.841   4.358  17.623  0.00  0.00    +0.000 NA
ATOM     19  C   UNL     1       7.252   4.112  16.298  0.00  0.00    +0.000 C 
ATOM     20  C   UNL     1       7.182   5.378  15.408  0.00  0.00    +0.000 C 
ATOM     21  H   UNL     1       7.717   3.532  18.207  0.00  0.00    +0.000 HD
ENDBRANCH  14  15
ENDBRANCH  13  14
ENDBRANCH   2  13
TORSDOF 3
ENDMDL
MODEL 6
REMARK VINA RESULT:      -6.4      4.019      5.874
REMARK  Name = 
REMARK  3 active torsions:
REMARK  status: ('A' for Active; 'I' for Inactive)
REMARK    1  A    between atoms: C_2  and  C_3
REMARK    2  A    between atoms: C_3  and  C_4
REMARK    3  A    between atoms: C_4  and  N_5
REMARK                            x       y       z     vdW  Elec       q    Type
REMARK                         _______ _______ _______ _____ _____    ______ ____
ROOT
ATOM      1  O   UNL     1       2.095   6.289  19.169  0.00  0.00    +0.000 OA
ATOM      2  C   UNL     1       2.862   6.754  18.323  0.00  0.00    +0.000 C 
ATOM      3  N   UNL     1       3.807   5.988  17.664  0.00  0.00    +0.000 N 
ATOM      4  C   UNL     1       4.655   6.477  16.584  0.00  0.00    +0.000 C 
ATOM      5  C   UNL     1       5.265   5.239  15.955  0.00  0.00    +0.000 C 
ATOM      6  C   UNL     1       5.326   4.265  17.122  0.00  0.00    +0.000 C 
ATOM      7  C   UNL     1       4.020   4.542  17.915  0.00  0.00    +0.000 C 
ATOM      8  C   UNL     1       2.833   3.723  17.349  0.00  0.00    +0.000 C 
ATOM      9  C   UNL     1       2.926   2.228  17.650  0.00  0.00    +0.000 C 
ATOM     10  C   UNL     1       3.144   1.960  19.134  0.00  0.00    +0.000 C 
ATOM     11  C   UNL     1       4.362   2.708  19.665  0.00  0.00    +0.000 C 
ATOM     12  C   UNL     1       4.241   4.209  19.409  0.00  0.00    +0.000 C 
ENDROOT
BRANCH   2  13
ATOM     13  C   UNL     1       2.752   8.209  17.901  0.00  0.00    +0.000 C 
BRANCH  13  14
ATOM     14  C   UNL     1       1.729   8.944  18.771  0.00  0.00    +0.000 C 
BRANCH  14  15
ATOM     15  N   UNL     1       1.106  10.104  18.098  0.00  0.00    +0.000 NA
ATOM     16  C   UNL     1      -0.370  10.115  18.203  0.00  0.00    +0.000 C 
ATOM     17  C   UNL     1      -0.908  10.361  19.630  0.00  0.00    +0.000 C 
ATOM     18  N   UNL     1      -0.400  11.608  20.216  0.00  0.00    +0.000 NA
ATOM     19  C   UNL     1       1.066  11.665  20.120  0.00  0.00    +0.000 C 
ATOM     20  C   UNL     1       1.603  11.369  18.697  0.00  0.00    +0.000 C 
ATOM     21  H   UNL     1      -0.678  11.658  21.196  0.00  0.00    +0.000 HD
ENDBRANCH  14  15
ENDBRANCH  13  14
ENDBRANCH   2  13
TORSDOF 3
ENDMDL
MODEL 7
REMARK VINA RESULT:      -6.4      4.768      6.769
REMARK  Name = 
REMARK  3 active torsions:
REMARK  status: ('A' for Active; 'I' for Inactive)
REMARK    1  A    between atoms: C_2  and  C_3
REMARK    2  A    between atoms: C_3  and  C_4
REMARK    3  A    between atoms: C_4  and  N_5
REMARK                            x       y       z     vdW  Elec       q    Type
REMARK                         _______ _______ _______ _____ _____    ______ ____
ROOT
ATOM      1  O   UNL     1       2.010   9.022  17.356  0.00  0.00    +0.000 OA
ATOM      2  C   UNL     1       2.014   8.449  18.447  0.00  0.00    +0.000 C 
ATOM      3  N   UNL     1       1.393   8.966  19.570  0.00  0.00    +0.000 N 
ATOM      4  C   UNL     1       1.284   8.267  20.845  0.00  0.00    +0.000 C 
ATOM      5  C   UNL     1       0.259   9.045  21.647  0.00  0.00    +0.000 C 
ATOM      6  C   UNL     1       0.419  10.461  21.114  0.00  0.00    +0.000 C 
ATOM      7  C   UNL     1       0.683  10.267  19.596  0.00  0.00    +0.000 C 
ATOM      8  C   UNL     1      -0.644  10.165  18.803  0.00  0.00    +0.000 C 
ATOM      9  C   UNL     1      -1.394  11.493  18.699  0.00  0.00    +0.000 C 
ATOM     10  C   UNL     1      -0.502  12.610  18.172  0.00  0.00    +0.000 C 
ATOM     11  C   UNL     1       0.765  12.756  19.007  0.00  0.00    +0.000 C 
ATOM     12  C   UNL     1       1.540  11.440  19.065  0.00  0.00    +0.000 C 
ENDROOT
BRANCH   2  13
ATOM     13  C   UNL     1       2.651   7.078  18.592  0.00  0.00    +0.000 C 
BRANCH  13  14
ATOM     14  C   UNL     1       3.898   6.969  17.712  0.00  0.00    +0.000 C 
BRANCH  14  15
ATOM     15  N   UNL     1       4.056   5.646  17.071  0.00  0.00    +0.000 NA
ATOM     16  C   UNL     1       5.379   5.460  16.436  0.00  0.00    +0.000 C 
ATOM     17  C   UNL     1       6.560   5.376  17.429  0.00  0.00    +0.000 C 
ATOM     18  N   UNL     1       6.380   4.314  18.428  0.00  0.00    +0.000 NA
ATOM     19  C   UNL     1       5.067   4.433  19.079  0.00  0.00    +0.000 C 
ATOM     20  C   UNL     1       3.892   4.567  18.078  0.00  0.00    +0.000 C 
ATOM     21  H   UNL     1       7.115   4.384  19.131  0.00  0.00    +0.000 HD
ENDBRANCH  14  15
ENDBRANCH  13  14
ENDBRANCH   2  13
TORSDOF 3
ENDMDL
MODEL 8
REMARK VINA RESULT:      -6.4      3.964      5.212
REMARK  Name = 
REMARK  3 active torsions:
REMARK  status: ('A' for Active; 'I' for Inactive)
REMARK    1  A    between atoms: C_2  and  C_3
REMARK    2  A    between atoms: C_3  and  C_4
REMARK    3  A    between atoms: C_4  and  N_5
REMARK                            x       y       z     vdW  Elec       q    Type
REMARK                         _______ _______ _______ _____ _____    ______ ____
ROOT
ATOM      1  O   UNL     1       3.016   7.110  18.881  0.00  0.00    +0.000 OA
ATOM      2  C   UNL     1       2.584   6.230  19.628  0.00  0.00    +0.000 C 
ATOM      3  N   UNL     1       3.055   4.930  19.608  0.00  0.00    +0.000 N 
ATOM      4  C   UNL     1       2.648   3.892  20.547  0.00  0.00    +0.000 C 
ATOM      5  C   UNL     1       3.648   2.766  20.366  0.00  0.00    +0.000 C 
ATOM      6  C   UNL     1       4.056   2.910  18.908  0.00  0.00    +0.000 C 
ATOM      7  C   UNL     1       4.104   4.445  18.678  0.00  0.00    +0.000 C 
ATOM      8  C   UNL     1       5.481   5.032  19.077  0.00  0.00    +0.000 C 
ATOM      9  C   UNL     1       6.605   4.658  18.111  0.00  0.00    +0.000 C 
ATOM     10  C   UNL     1       6.245   4.986  16.667  0.00  0.00    +0.000 C 
ATOM     11  C   UNL     1       4.926   4.339  16.258  0.00  0.00    +0.000 C 
ATOM     12  C   UNL     1       3.795   4.757  17.195  0.00  0.00    +0.000 C 
ENDROOT
BRANCH   2  13
ATOM     13  C   UNL     1       1.542   6.560  20.683  0.00  0.00    +0.000 C 
BRANCH  13  14
ATOM     14  C   UNL     1       1.445   8.073  20.888  0.00  0.00    +0.000 C 
BRANCH  14  15
ATOM     15  N   UNL     1       0.060   8.588  20.849  0.00  0.00    +0.000 NA
ATOM     16  C   UNL     1      -0.595   8.602  22.175  0.00  0.00    +0.000 C 
ATOM     17  C   UNL     1       0.000   9.621  23.172  0.00  0.00    +0.000 C 
ATOM     18  N   UNL     1      -0.007  10.993  22.646  0.00  0.00    +0.000 NA
ATOM     19  C   UNL     1       0.613  11.039  21.313  0.00  0.00    +0.000 C 
ATOM     20  C   UNL     1       0.047   9.980  20.333  0.00  0.00    +0.000 C 
ATOM     21  H   UNL     1       0.510  11.600  23.281  0.00  0.00    +0.000 HD
ENDBRANCH  14  15
ENDBRANCH  13  14
ENDBRANCH   2  13
TORSDOF 3
ENDMDL
MODEL 9
REMARK VINA RESULT:      -6.3      0.681      1.012
REMARK  Name = 
REMARK  3 active torsions:
REMARK  status: ('A' for Active; 'I' for Inactive)
REMARK    1  A    between atoms: C_2  and  C_3
REMARK    2  A    between atoms: C_3  and  C_4
REMARK    3  A    between atoms: C_4  and  N_5
REMARK                            x       y       z     vdW  Elec       q    Type
REMARK                         _______ _______ _______ _____ _____    ______ ____
ROOT
ATOM      1  O   UNL     1       3.701   6.681  18.638  0.00  0.00    +0.000 OA
ATOM      2  C   UNL     1       3.564   5.799  17.789  0.00  0.00    +0.000 C 
ATOM      3  N   UNL     1       4.628   5.259  17.088  0.00  0.00    +0.000 N 
ATOM      4  C   UNL     1       4.518   4.142  16.157  0.00  0.00    +0.000 C 
ATOM      5  C   UNL     1       5.941   3.685  15.903  0.00  0.00    +0.000 C 
ATOM      6  C   UNL     1       6.743   4.965  16.084  0.00  0.00    +0.000 C 
ATOM      7  C   UNL     1       6.035   5.692  17.260  0.00  0.00    +0.000 C 
ATOM      8  C   UNL     1       6.578   5.210  18.628  0.00  0.00    +0.000 C 
ATOM      9  C   UNL     1       7.995   5.698  18.927  0.00  0.00    +0.000 C 
ATOM     10  C   UNL     1       8.123   7.207  18.766  0.00  0.00    +0.000 C 
ATOM     11  C   UNL     1       7.660   7.664  17.386  0.00  0.00    +0.000 C 
ATOM     12  C   UNL     1       6.225   7.220  17.112  0.00  0.00    +0.000 C 
ENDROOT
BRANCH   2  13
ATOM     13  C   UNL     1       2.196   5.197  17.519  0.00  0.00    +0.000 C 
BRANCH  13  14
ATOM     14  C   UNL     1       1.683   4.454  18.755  0.00  0.00    +0.000 C 
BRANCH  14  15
ATOM     15  N   UNL     1       2.575   3.361  19.200  0.00  0.00    +0.000 NA
ATOM     16  C   UNL     1       3.388   3.718  20.383  0.00  0.00    +0.000 C 
ATOM     17  C   UNL     1       2.577   3.899  21.686  0.00  0.00    +0.000 C 
ATOM     18  N   UNL     1       1.781   2.712  22.023  0.00  0.00    +0.000 NA
ATOM     19  C   UNL     1       0.965   2.294  20.873  0.00  0.00    +0.000 C 
ATOM     20  C   UNL     1       1.774   2.162  19.558  0.00  0.00    +0.000 C 
ATOM     21  H   UNL     1       1.170   2.927  22.810  0.00  0.00    +0.000 HD
ENDBRANCH  14  15
ENDBRANCH  13  14
ENDBRANCH   2  13
TORSDOF 3
ENDMDL
