MODEL 1
REMARK VINA RESULT:      -6.9      0.000      0.000
REMARK  Name = 
REMARK  12 active torsions:
REMARK  status: ('A' for Active; 'I' for Inactive)
REMARK    1  A    between atoms: C_1  and  C_2
REMARK    2  A    between atoms: C_2  and  C_3
REMARK    3  A    between atoms: C_3  and  N_4
REMARK    4  A    between atoms: C_7  and  C_8
REMARK    5  A    between atoms: C_8  and  N_9
REMARK    6  A    between atoms: N_12  and  C_13
REMARK    7  A    between atoms: C_13  and  C_14
REMARK    8  A    between atoms: C_14  and  C_15
REMARK    9  A    between atoms: C_21  and  C_22
REMARK   10  A    between atoms: C_22  and  C_23
REMARK   11  A    between atoms: C_23  and  O_24
REMARK   12  A    between atoms: C_26  and  C_27
REMARK                            x       y       z     vdW  Elec       q    Type
REMARK                         _______ _______ _______ _____ _____    ______ ____
ROOT
ATOM      1  N   UNL     1       2.813   6.678  17.896  0.00  0.00    +0.000 NA
ATOM      2  C   UNL     1       4.171   7.026  17.434  0.00  0.00    +0.000 C 
ATOM      3  C   UNL     1       5.300   6.206  18.103  0.00  0.00    +0.000 C 
ATOM      4  N   UNL     1       5.155   4.730  18.004  0.00  0.00    +0.000 NA
ATOM      5  C   UNL     1       3.776   4.353  18.445  0.00  0.00    +0.000 C 
ATOM      6  C   UNL     1       2.649   5.213  17.780  0.00  0.00    +0.000 C 
ENDROOT
BRANCH   1   7
ATOM      7  C   UNL     1       2.539   7.128  19.274  0.00  0.00    +0.000 C 
BRANCH   7  11
ATOM      8  N   UNL     1       0.490  10.134  19.836  0.00  0.00    +0.000 N 
ATOM      9  N   UNL     1       0.689  10.266  18.512  0.00  0.00    +0.000 NA
ATOM     10  C   UNL     1       1.412   9.198  18.187  0.00  0.00    +0.000 A 
ATOM     11  C   UNL     1       1.713   8.374  19.295  0.00  0.00    +0.000 A 
ATOM     12  C   UNL     1       1.127   9.033  20.366  0.00  0.00    +0.000 A 
ATOM     13  C   UNL     1       1.134   8.708  21.816  0.00  0.00    +0.000 C 
BRANCH   8  14
ATOM     14  C   UNL     1      -0.286  11.148  20.532  0.00  0.00    +0.000 C 
BRANCH  14  16
ATOM     15  C   UNL     1       1.322  13.071  20.804  0.00  0.00    +0.000 C 
ATOM     16  C   UNL     1       0.074  12.569  20.094  0.00  0.00    +0.000 C 
ENDBRANCH  14  16
ENDBRANCH   8  14
ENDBRANCH   7  11
ENDBRANCH   1   7
BRANCH   4  17
ATOM     17  C   UNL     1       5.493   4.238  16.650  0.00  0.00    +0.000 C 
BRANCH  17  18
ATOM     18  C   UNL     1       6.737   4.895  16.014  0.00  0.00    +0.000 C 
BRANCH  18  19
ATOM     19  C   UNL     1       6.817   4.597  14.534  0.00  0.00    +0.000 A 
ATOM     20  C   UNL     1       7.719   5.296  13.719  0.00  0.00    +0.000 A 
ATOM     21  C   UNL     1       7.756   5.062  12.343  0.00  0.00    +0.000 A 
ATOM     22  C   UNL     1       6.892   4.131  11.770  0.00  0.00    +0.000 A 
ATOM     23  C   UNL     1       6.001   3.422  12.572  0.00  0.00    +0.000 A 
ATOM     24  C   UNL     1       5.969   3.647  13.948  0.00  0.00    +0.000 A 
ENDBRANCH  18  19
ENDBRANCH  17  18
ENDBRANCH   4  17
BRANCH   5  25
ATOM     25  C   UNL     1       3.405   2.858  18.311  0.00  0.00    +0.000 C 
BRANCH  25  26
ATOM     26  C   UNL     1       3.744   2.023  19.538  0.00  0.00    +0.000 C 
BRANCH  26  27
ATOM     27  O   UNL     1       5.133   2.164  19.836  0.00  0.00    +0.000 OA
ATOM     28  H   UNL     1       5.212   2.638  20.682  0.00  0.00    +0.000 HD
ENDBRANCH  26  27
ENDBRANCH  25  26
ENDBRANCH   5  25
TORSDOF 10
ENDMDL
MODEL 2
REMARK VINA RESULT:      -6.8      0.607      1.303
REMARK  Name = 
REMARK  12 active torsions:
REMARK  status: ('A' for Active; 'I' for Inactive)
REMARK    1  A    between atoms: C_1  and  C_2
REMARK    2  A    between atoms: C_2  and  C_3
REMARK    3  A    between atoms: C_3  and  N_4
REMARK    4  A    between atoms: C_7  and  C_8
REMARK    5  A    between atoms: C_8  and  N_9
REMARK    6  A    between atoms: N_12  and  C_13
REMARK    7  A    between atoms: C_13  and  C_14
REMARK    8  A    between atoms: C_14  and  C_15
REMARK    9  A    between atoms: C_21  and  C_22
REMARK   10  A    between atoms: C_22  and  C_23
REMARK   11  A    between atoms: C_23  and  O_24
REMARK   12  A    between atoms: C_26  and  C_27
REMARK                            x       y       z     vdW  Elec       q    Type
REMARK                         _______ _______ _______ _____ _____    ______ ____
ROOT
ATOM      1  N   UNL     1       2.958   6.461  17.781  0.00  0.00    +0.000 NA
ATOM      2  C   UNL     1       4.362   6.771  17.450  0.00  0.00    +0.000 C 
ATOM      3  C   UNL     1       5.400   5.896  18.194  0.00  0.00    +0.000 C 
ATOM      4  N   UNL     1       5.214   4.430  18.044  0.00  0.00    +0.000 NA
ATOM      5  C   UNL     1       3.790   4.091  18.352  0.00  0.00    +0.000 C 
ATOM      6  C   UNL     1       2.756   5.006  17.613  0.00  0.00    +0.000 C 
ENDROOT
BRANCH   1   7
ATOM      7  C   UNL     1       2.578   6.889  19.141  0.00  0.00    +0.000 C 
BRANCH   7  11
ATOM      8  N   UNL     1       0.870  10.114  19.624  0.00  0.00    +0.000 N 
ATOM      9  N   UNL     1       1.291  10.292  18.358  0.00  0.00    +0.000 NA
ATOM     10  C   UNL     1       1.913   9.155  18.063  0.00  0.00    +0.000 A 
ATOM     11  C   UNL     1       1.926   8.235  19.136  0.00  0.00    +0.000 A 
ATOM     12  C   UNL     1       1.267   8.907  20.155  0.00  0.00    +0.000 A 
ATOM     13  C   UNL     1       1.003   8.501  21.560  0.00  0.00    +0.000 C 
BRANCH   8  14
ATOM     14  C   UNL     1       0.130  11.185  20.273  0.00  0.00    +0.000 C 
BRANCH  14  16
ATOM     15  C   UNL     1      -1.941  11.166  18.835  0.00  0.00    +0.000 C 
ATOM     16  C   UNL     1      -0.740  11.977  19.294  0.00  0.00    +0.000 C 
ENDBRANCH  14  16
ENDBRANCH   8  14
ENDBRANCH   7  11
ENDBRANCH   1   7
BRANCH   4  17
ATOM     17  C   UNL     1       5.654   3.957  16.713  0.00  0.00    +0.000 C 
BRANCH  17  18
ATOM     18  C   UNL     1       6.757   4.814  16.053  0.00  0.00    +0.000 C 
BRANCH  18  19
ATOM     19  C   UNL     1       6.791   4.604  14.556  0.00  0.00    +0.000 A 
ATOM     20  C   UNL     1       5.937   3.669  13.953  0.00  0.00    +0.000 A 
ATOM     21  C   UNL     1       6.003   3.434  12.579  0.00  0.00    +0.000 A 
ATOM     22  C   UNL     1       6.924   4.127  11.797  0.00  0.00    +0.000 A 
ATOM     23  C   UNL     1       7.769   5.067  12.383  0.00  0.00    +0.000 A 
ATOM     24  C   UNL     1       7.697   5.311  13.754  0.00  0.00    +0.000 A 
ENDBRANCH  18  19
ENDBRANCH  17  18
ENDBRANCH   4  17
BRANCH   5  25
ATOM     25  C   UNL     1       3.382   2.614  18.148  0.00  0.00    +0.000 C 
BRANCH  25  26
ATOM     26  C   UNL     1       4.043   1.648  19.121  0.00  0.00    +0.000 C 
BRANCH  26  27
ATOM     27  O   UNL     1       4.993   2.356  19.917  0.00  0.00    +0.000 OA
ATOM     28  H   UNL     1       4.912   2.039  20.833  0.00  0.00    +0.000 HD
ENDBRANCH  26  27
ENDBRANCH  25  26
ENDBRANCH   5  25
TORSDOF 10
ENDMDL
MODEL 3
REMARK VINA RESULT:      -6.7      0.671      1.027
REMARK  Name = 
REMARK  12 active torsions:
REMARK  status: ('A' for Active; 'I' for Inactive)
REMARK    1  A    between atoms: C_1  and  C_2
REMARK    2  A    between atoms: C_2  and  C_3
REMARK    3  A    between atoms: C_3  and  N_4
REMARK    4  A    between atoms: C_7  and  C_8
REMARK    5  A    between atoms: C_8  and  N_9
REMARK    6  A    between atoms: N_12  and  C_13
REMARK    7  A    between atoms: C_13  and  C_14
REMARK    8  A    between atoms: C_14  and  C_15
REMARK    9  A    between atoms: C_21  and  C_22
REMARK   10  A    between atoms: C_22  and  C_23
REMARK   11  A    between atoms: C_23  and  O_24
REMARK   12  A    between atoms: C_26  and  C_27
REMARK                            x       y       z     vdW  Elec       q    Type
REMARK                         _______ _______ _______ _____ _____    ______ ____
ROOT
ATOM      1  N   UNL     1       2.955   6.359  17.728  0.00  0.00    +0.000 NA
ATOM      2  C   UNL     1       4.294   6.812  17.304  0.00  0.00    +0.000 C 
ATOM      3  C   UNL     1       5.463   6.146  18.070  0.00  0.00    +0.000 C 
ATOM      4  N   UNL     1       5.464   4.660  18.056  0.00  0.00    +0.000 NA
ATOM      5  C   UNL     1       4.108   4.174  18.459  0.00  0.00    +0.000 C 
ATOM      6  C   UNL     1       2.937   4.880  17.694  0.00  0.00    +0.000 C 
ENDROOT
BRANCH   1   7
ATOM      7  C   UNL     1       2.572   6.857  19.062  0.00  0.00    +0.000 C 
BRANCH   7  11
ATOM      8  N   UNL     1       1.027  10.183  19.386  0.00  0.00    +0.000 N 
ATOM      9  N   UNL     1       1.513  10.303  18.137  0.00  0.00    +0.000 NA
ATOM     10  C   UNL     1       2.083   9.126  17.899  0.00  0.00    +0.000 A 
ATOM     11  C   UNL     1       1.997   8.236  18.994  0.00  0.00    +0.000 A 
ATOM     12  C   UNL     1       1.332   8.970  19.965  0.00  0.00    +0.000 A 
ATOM     13  C   UNL     1       0.983   8.618  21.366  0.00  0.00    +0.000 C 
BRANCH   8  14
ATOM     14  C   UNL     1       0.319  11.310  19.974  0.00  0.00    +0.000 C 
BRANCH  14  16
ATOM     15  C   UNL     1      -1.676  10.658  18.577  0.00  0.00    +0.000 C 
ATOM     16  C   UNL     1      -1.200  11.133  19.941  0.00  0.00    +0.000 C 
ENDBRANCH  14  16
ENDBRANCH   8  14
ENDBRANCH   7  11
ENDBRANCH   1   7
BRANCH   4  17
ATOM     17  C   UNL     1       5.913   4.127  16.751  0.00  0.00    +0.000 C 
BRANCH  17  18
ATOM     18  C   UNL     1       6.817   5.081  15.938  0.00  0.00    +0.000 C 
BRANCH  18  19
ATOM     19  C   UNL     1       6.855   4.687  14.479  0.00  0.00    +0.000 A 
ATOM     20  C   UNL     1       7.740   5.324  13.597  0.00  0.00    +0.000 A 
ATOM     21  C   UNL     1       7.739   5.001  12.239  0.00  0.00    +0.000 A 
ATOM     22  C   UNL     1       6.853   4.044  11.750  0.00  0.00    +0.000 A 
ATOM     23  C   UNL     1       5.978   3.396  12.619  0.00  0.00    +0.000 A 
ATOM     24  C   UNL     1       5.984   3.709  13.978  0.00  0.00    +0.000 A 
ENDBRANCH  18  19
ENDBRANCH  17  18
ENDBRANCH   4  17
BRANCH   5  25
ATOM     25  C   UNL     1       3.888   2.645  18.401  0.00  0.00    +0.000 C 
BRANCH  25  26
ATOM     26  C   UNL     1       3.901   1.965  19.763  0.00  0.00    +0.000 C 
BRANCH  26  27
ATOM     27  O   UNL     1       5.252   1.736  20.163  0.00  0.00    +0.000 OA
ATOM     28  H   UNL     1       5.740   2.571  20.063  0.00  0.00    +0.000 HD
ENDBRANCH  26  27
ENDBRANCH  25  26
ENDBRANCH   5  25
TORSDOF 10
ENDMDL
MODEL 4
REMARK VINA RESULT:      -6.6      0.713      1.299
REMARK  Name = 
REMARK  12 active torsions:
REMARK  status: ('A' for Active; 'I' for Inactive)
REMARK    1  A    between atoms: C_1  and  C_2
REMARK    2  A    between atoms: C_2  and  C_3
REMARK    3  A    between atoms: C_3  and  N_4
REMARK    4  A    between atoms: C_7  and  C_8
REMARK    5  A    between atoms: C_8  and  N_9
REMARK    6  A    between atoms: N_12  and  C_13
REMARK    7  A    between atoms: C_13  and  C_14
REMARK    8  A    between atoms: C_14  and  C_15
REMARK    9  A    between atoms: C_21  and  C_22
REMARK   10  A    between atoms: C_22  and  C_23
REMARK   11  A    between atoms: C_23  and  O_24
REMARK   12  A    between atoms: C_26  and  C_27
REMARK                            x       y       z     vdW  Elec       q    Type
REMARK                         _______ _______ _______ _____ _____    ______ ____
ROOT
ATOM      1  N   UNL     1       2.659   6.683  18.254  0.00  0.00    +0.000 NA
ATOM      2  C   UNL     1       4.007   6.956  17.720  0.00  0.00    +0.000 C 
ATOM      3  C   UNL     1       5.071   5.901  18.109  0.00  0.00    +0.000 C 
ATOM      4  N   UNL     1       4.726   4.497  17.765  0.00  0.00    +0.000 NA
ATOM      5  C   UNL     1       3.351   4.202  18.274  0.00  0.00    +0.000 C 
ATOM      6  C   UNL     1       2.295   5.295  17.896  0.00  0.00    +0.000 C 
ENDROOT
BRANCH   1   7
ATOM      7  C   UNL     1       2.562   6.891  19.711  0.00  0.00    +0.000 C 
BRANCH   7  11
ATOM      8  N   UNL     1       0.421   9.865  20.068  0.00  0.00    +0.000 N 
ATOM      9  N   UNL     1       0.131   9.261  21.235  0.00  0.00    +0.000 NA
ATOM     10  C   UNL     1       0.883   8.165  21.226  0.00  0.00    +0.000 A 
ATOM     11  C   UNL     1       1.651   8.028  20.048  0.00  0.00    +0.000 A 
ATOM     12  C   UNL     1       1.299   9.139  19.294  0.00  0.00    +0.000 A 
ATOM     13  C   UNL     1       1.717   9.544  17.926  0.00  0.00    +0.000 C 
BRANCH   8  14
ATOM     14  C   UNL     1      -0.234  11.124  19.749  0.00  0.00    +0.000 C 
BRANCH  14  16
ATOM     15  C   UNL     1       1.664  12.640  20.422  0.00  0.00    +0.000 C 
ATOM     16  C   UNL     1       0.210  12.267  20.663  0.00  0.00    +0.000 C 
ENDBRANCH  14  16
ENDBRANCH   8  14
ENDBRANCH   7  11
ENDBRANCH   1   7
BRANCH   4  17
ATOM     17  C   UNL     1       4.883   4.236  16.317  0.00  0.00    +0.000 C 
BRANCH  17  18
ATOM     18  C   UNL     1       5.853   5.191  15.588  0.00  0.00    +0.000 C 
BRANCH  18  19
ATOM     19  C   UNL     1       6.236   4.649  14.229  0.00  0.00    +0.000 A 
ATOM     20  C   UNL     1       7.389   5.115  13.581  0.00  0.00    +0.000 A 
ATOM     21  C   UNL     1       7.716   4.657  12.304  0.00  0.00    +0.000 A 
ATOM     22  C   UNL     1       6.893   3.734  11.662  0.00  0.00    +0.000 A 
ATOM     23  C   UNL     1       5.753   3.254  12.302  0.00  0.00    +0.000 A 
ATOM     24  C   UNL     1       5.429   3.703  13.582  0.00  0.00    +0.000 A 
ENDBRANCH  18  19
ENDBRANCH  17  18
ENDBRANCH   4  17
BRANCH   5  25
ATOM     25  C   UNL     1       2.777   2.811  17.917  0.00  0.00    +0.000 C 
BRANCH  25  26
ATOM     26  C   UNL     1       3.166   1.711  18.893  0.00  0.00    +0.000 C 
BRANCH  26  27
ATOM     27  O   UNL     1       4.540   1.859  19.250  0.00  0.00    +0.000 OA
ATOM     28  H   UNL     1       5.046   2.017  18.435  0.00  0.00    +0.000 HD
ENDBRANCH  26  27
ENDBRANCH  25  26
ENDBRANCH   5  25
TORSDOF 10
ENDMDL
MODEL 5
REMARK VINA RESULT:      -6.4      1.241      1.882
REMARK  Name = 
REMARK  12 active torsions:
REMARK  status: ('A' for Active; 'I' for Inactive)
REMARK    1  A    between atoms: C_1  and  C_2
REMARK    2  A    between atoms: C_2  and  C_3
REMARK    3  A    between atoms: C_3  and  N_4
REMARK    4  A    between atoms: C_7  and  C_8
REMARK    5  A    between atoms: C_8  and  N_9
REMARK    6  A    between atoms: N_12  and  C_13
REMARK    7  A    between atoms: C_13  and  C_14
REMARK    8  A    between atoms: C_14  and  C_15
REMARK    9  A    between atoms: C_21  and  C_22
REMARK   10  A    between atoms: C_22  and  C_23
REMARK   11  A    between atoms: C_23  and  O_24
REMARK   12  A    between atoms: C_26  and  C_27
REMARK                            x       y       z     vdW  Elec       q    Type
REMARK                         _______ _______ _______ _____ _____    ______ ____
ROOT
ATOM      1  N   UNL     1       2.812   6.539  18.310  0.00  0.00    +0.000 NA
ATOM      2  C   UNL     1       4.040   7.026  17.653  0.00  0.00    +0.000 C 
ATOM      3  C   UNL     1       5.337   6.333  18.137  0.00  0.00    +0.000 C 
ATOM      4  N   UNL     1       5.335   4.850  18.045  0.00  0.00    +0.000 NA
ATOM      5  C   UNL     1       4.086   4.332  18.684  0.00  0.00    +0.000 C 
ATOM      6  C   UNL     1       2.787   5.064  18.204  0.00  0.00    +0.000 C 
ENDROOT
BRANCH   1   7
ATOM      7  C   UNL     1       2.702   6.965  19.717  0.00  0.00    +0.000 C 
BRANCH   7  11
ATOM      8  N   UNL     1       0.399   9.837  19.668  0.00  0.00    +0.000 N 
ATOM      9  N   UNL     1      -0.007   9.267  20.818  0.00  0.00    +0.000 NA
ATOM     10  C   UNL     1       0.789   8.212  20.953  0.00  0.00    +0.000 A 
ATOM     11  C   UNL     1       1.704   8.066  19.885  0.00  0.00    +0.000 A 
ATOM     12  C   UNL     1       1.399   9.126  19.043  0.00  0.00    +0.000 A 
ATOM     13  C   UNL     1       1.965   9.495  17.719  0.00  0.00    +0.000 C 
BRANCH   8  14
ATOM     14  C   UNL     1      -0.269  11.046  19.212  0.00  0.00    +0.000 C 
BRANCH  14  16
ATOM     15  C   UNL     1      -1.721  10.088  17.388  0.00  0.00    +0.000 C 
ATOM     16  C   UNL     1      -1.700  10.786  18.738  0.00  0.00    +0.000 C 
ENDBRANCH  14  16
ENDBRANCH   8  14
ENDBRANCH   7  11
ENDBRANCH   1   7
BRANCH   4  17
ATOM     17  C   UNL     1       5.516   4.389  16.652  0.00  0.00    +0.000 C 
BRANCH  17  18
ATOM     18  C   UNL     1       6.846   4.818  15.995  0.00  0.00    +0.000 C 
BRANCH  18  19
ATOM     19  C   UNL     1       6.838   4.538  14.509  0.00  0.00    +0.000 A 
ATOM     20  C   UNL     1       7.699   5.238  13.652  0.00  0.00    +0.000 A 
ATOM     21  C   UNL     1       7.656   5.020  12.274  0.00  0.00    +0.000 A 
ATOM     22  C   UNL     1       6.751   4.105  11.740  0.00  0.00    +0.000 A 
ATOM     23  C   UNL     1       5.901   3.394  12.583  0.00  0.00    +0.000 A 
ATOM     24  C   UNL     1       5.949   3.602  13.962  0.00  0.00    +0.000 A 
ENDBRANCH  18  19
ENDBRANCH  17  18
ENDBRANCH   4  17
BRANCH   5  25
ATOM     25  C   UNL     1       3.858   2.805  18.592  0.00  0.00    +0.000 C 
BRANCH  25  26
ATOM     26  C   UNL     1       2.397   2.390  18.682  0.00  0.00    +0.000 C 
BRANCH  26  27
ATOM     27  O   UNL     1       2.009   1.761  17.461  0.00  0.00    +0.000 OA
ATOM     28  H   UNL     1       1.075   1.500  17.541  0.00  0.00    +0.000 HD
ENDBRANCH  26  27
ENDBRANCH  25  26
ENDBRANCH   5  25
TORSDOF 10
ENDMDL
MODEL 6
REMARK VINA RESULT:      -6.4      1.228      2.059
REMARK  Name = 
REMARK  12 active torsions:
REMARK  status: ('A' for Active; 'I' for Inactive)
REMARK    1  A    between atoms: C_1  and  C_2
REMARK    2  A    between atoms: C_2  and  C_3
REMARK    3  A    between atoms: C_3  and  N_4
REMARK    4  A    between atoms: C_7  and  C_8
REMARK    5  A    between atoms: C_8  and  N_9
REMARK    6  A    between atoms: N_12  and  C_13
REMARK    7  A    between atoms: C_13  and  C_14
REMARK    8  A    between atoms: C_14  and  C_15
REMARK    9  A    between atoms: C_21  and  C_22
REMARK   10  A    between atoms: C_22  and  C_23
REMARK   11  A    between atoms: C_23  and  O_24
REMARK   12  A    between atoms: C_26  and  C_27
REMARK                            x       y       z     vdW  Elec       q    Type
REMARK                         _______ _______ _______ _____ _____    ______ ____
ROOT
ATOM      1  N   UNL     1       2.726   6.439  18.233  0.00  0.00    +0.000 NA
ATOM      2  C   UNL     1       4.150   6.559  17.863  0.00  0.00    +0.000 C 
ATOM      3  C   UNL     1       5.025   5.360  18.301  0.00  0.00    +0.000 C 
ATOM      4  N   UNL     1       4.550   4.029  17.841  0.00  0.00    +0.000 NA
ATOM      5  C   UNL     1       3.101   3.891  18.184  0.00  0.00    +0.000 C 
ATOM      6  C   UNL     1       2.237   5.126  17.760  0.00  0.00    +0.000 C 
ENDROOT
BRANCH   1   7
ATOM      7  C   UNL     1       2.492   6.594  19.681  0.00  0.00    +0.000 C 
BRANCH   7  11
ATOM      8  N   UNL     1       0.833   9.869  19.959  0.00  0.00    +0.000 N 
ATOM      9  N   UNL     1       0.547   9.388  21.184  0.00  0.00    +0.000 NA
ATOM     10  C   UNL     1       1.131   8.195  21.205  0.00  0.00    +0.000 A 
ATOM     11  C   UNL     1       1.781   7.872  19.993  0.00  0.00    +0.000 A 
ATOM     12  C   UNL     1       1.537   8.973  19.185  0.00  0.00    +0.000 A 
ATOM     13  C   UNL     1       1.906   9.226  17.767  0.00  0.00    +0.000 C 
BRANCH   8  14
ATOM     14  C   UNL     1       0.343  11.188  19.593  0.00  0.00    +0.000 C 
BRANCH  14  16
ATOM     15  C   UNL     1      -1.703  10.226  18.478  0.00  0.00    +0.000 C 
ATOM     16  C   UNL     1      -1.182  11.241  19.482  0.00  0.00    +0.000 C 
ENDBRANCH  14  16
ENDBRANCH   8  14
ENDBRANCH   7  11
ENDBRANCH   1   7
BRANCH   4  17
ATOM     17  C   UNL     1       4.836   3.813  16.406  0.00  0.00    +0.000 C 
BRANCH  17  18
ATOM     18  C   UNL     1       5.444   5.032  15.677  0.00  0.00    +0.000 C 
BRANCH  18  19
ATOM     19  C   UNL     1       6.001   4.639  14.327  0.00  0.00    +0.000 A 
ATOM     20  C   UNL     1       5.341   3.684  13.539  0.00  0.00    +0.000 A 
ATOM     21  C   UNL     1       5.882   3.280  12.318  0.00  0.00    +0.000 A 
ATOM     22  C   UNL     1       7.086   3.821  11.874  0.00  0.00    +0.000 A 
ATOM     23  C   UNL     1       7.744   4.779  12.642  0.00  0.00    +0.000 A 
ATOM     24  C   UNL     1       7.201   5.193  13.858  0.00  0.00    +0.000 A 
ENDBRANCH  18  19
ENDBRANCH  17  18
ENDBRANCH   4  17
BRANCH   5  25
ATOM     25  C   UNL     1       2.404   2.603  17.688  0.00  0.00    +0.000 C 
BRANCH  25  26
ATOM     26  C   UNL     1       1.520   1.935  18.732  0.00  0.00    +0.000 C 
BRANCH  26  27
ATOM     27  O   UNL     1       1.826   2.468  20.020  0.00  0.00    +0.000 OA
ATOM     28  H   UNL     1       1.912   3.432  19.934  0.00  0.00    +0.000 HD
ENDBRANCH  26  27
ENDBRANCH  25  26
ENDBRANCH   5  25
TORSDOF 10
ENDMDL
MODEL 7
REMARK VINA RESULT:      -6.3      0.809      1.280
REMARK  Name = 
REMARK  12 active torsions:
REMARK  status: ('A' for Active; 'I' for Inactive)
REMARK    1  A    between atoms: C_1  and  C_2
REMARK    2  A    between atoms: C_2  and  C_3
REMARK    3  A    between atoms: C_3  and  N_4
REMARK    4  A    between atoms: C_7  and  C_8
REMARK    5  A    between atoms: C_8  and  N_9
REMARK    6  A    between atoms: N_12  and  C_13
REMARK    7  A    between atoms: C_13  and  C_14
REMARK    8  A    between atoms: C_14  and  C_15
REMARK    9  A    between atoms: C_21  and  C_22
REMARK   10  A    between atoms: C_22  and  C_23
REMARK   11  A    between atoms: C_23  and  O_24
REMARK   12  A    between atoms: C_26  and  C_27
REMARK                            x       y       z     vdW  Elec       q    Type
REMARK                         _______ _______ _______ _____ _____    ______ ____
ROOT
ATOM      1  N   UNL     1       2.313   6.962  18.088  0.00  0.00    +0.000 NA
ATOM      2  C   UNL     1       3.498   7.402  17.326  0.00  0.00    +0.000 C 
ATOM      3  C   UNL     1       4.819   6.718  17.752  0.00  0.00    +0.000 C 
ATOM      4  N   UNL     1       4.798   5.233  17.734  0.00  0.00    +0.000 NA
ATOM      5  C   UNL     1       3.592   4.760  18.481  0.00  0.00    +0.000 C 
ATOM      6  C   UNL     1       2.269   5.484  18.057  0.00  0.00    +0.000 C 
ENDROOT
BRANCH   1   7
ATOM      7  C   UNL     1       2.305   7.457  19.478  0.00  0.00    +0.000 C 
BRANCH   7  11
ATOM      8  N   UNL     1       0.269  10.399  20.345  0.00  0.00    +0.000 N 
ATOM      9  N   UNL     1       0.307  10.561  19.009  0.00  0.00    +0.000 NA
ATOM     10  C   UNL     1       1.010   9.519  18.578  0.00  0.00    +0.000 A 
ATOM     11  C   UNL     1       1.459   8.681  19.624  0.00  0.00    +0.000 A 
ATOM     12  C   UNL     1       0.988   9.304  20.771  0.00  0.00    +0.000 A 
ATOM     13  C   UNL     1       1.174   8.950  22.202  0.00  0.00    +0.000 C 
BRANCH   8  14
ATOM     14  C   UNL     1      -0.443  11.379  21.149  0.00  0.00    +0.000 C 
BRANCH  14  16
ATOM     15  C   UNL     1      -1.887  13.438  20.965  0.00  0.00    +0.000 C 
ATOM     16  C   UNL     1      -1.564  12.075  20.374  0.00  0.00    +0.000 C 
ENDBRANCH  14  16
ENDBRANCH   8  14
ENDBRANCH   7  11
ENDBRANCH   1   7
BRANCH   4  17
ATOM     17  C   UNL     1       4.878   4.703  16.355  0.00  0.00    +0.000 C 
BRANCH  17  18
ATOM     18  C   UNL     1       6.224   4.037  15.994  0.00  0.00    +0.000 C 
BRANCH  18  19
ATOM     19  C   UNL     1       6.552   4.226  14.530  0.00  0.00    +0.000 A 
ATOM     20  C   UNL     1       5.925   3.436  13.556  0.00  0.00    +0.000 A 
ATOM     21  C   UNL     1       6.266   3.571  12.209  0.00  0.00    +0.000 A 
ATOM     22  C   UNL     1       7.238   4.493  11.825  0.00  0.00    +0.000 A 
ATOM     23  C   UNL     1       7.858   5.292  12.782  0.00  0.00    +0.000 A 
ATOM     24  C   UNL     1       7.512   5.166  14.127  0.00  0.00    +0.000 A 
ENDBRANCH  18  19
ENDBRANCH  17  18
ENDBRANCH   4  17
BRANCH   5  25
ATOM     25  C   UNL     1       3.345   3.234  18.480  0.00  0.00    +0.000 C 
BRANCH  25  26
ATOM     26  C   UNL     1       3.710   2.546  19.788  0.00  0.00    +0.000 C 
BRANCH  26  27
ATOM     27  O   UNL     1       5.100   2.224  19.781  0.00  0.00    +0.000 OA
ATOM     28  H   UNL     1       5.383   2.138  18.855  0.00  0.00    +0.000 HD
ENDBRANCH  26  27
ENDBRANCH  25  26
ENDBRANCH   5  25
TORSDOF 10
ENDMDL
MODEL 8
REMARK VINA RESULT:      -6.3      1.299      2.057
REMARK  Name = 
REMARK  12 active torsions:
REMARK  status: ('A' for Active; 'I' for Inactive)
REMARK    1  A    between atoms: C_1  and  C_2
REMARK    2  A    between atoms: C_2  and  C_3
REMARK    3  A    between atoms: C_3  and  N_4
REMARK    4  A    between atoms: C_7  and  C_8
REMARK    5  A    between atoms: C_8  and  N_9
REMARK    6  A    between atoms: N_12  and  C_13
REMARK    7  A    between atoms: C_13  and  C_14
REMARK    8  A    between atoms: C_14  and  C_15
REMARK    9  A    between atoms: C_21  and  C_22
REMARK   10  A    between atoms: C_22  and  C_23
REMARK   11  A    between atoms: C_23  and  O_24
REMARK   12  A    between atoms: C_26  and  C_27
REMARK                            x       y       z     vdW  Elec       q    Type
REMARK                         _______ _______ _______ _____ _____    ______ ____
ROOT
ATOM      1  N   UNL     1       2.286   6.639  18.379  0.00  0.00    +0.000 NA
ATOM      2  C   UNL     1       3.248   7.145  17.381  0.00  0.00    +0.000 C 
ATOM      3  C   UNL     1       4.693   6.624  17.568  0.00  0.00    +0.000 C 
ATOM      4  N   UNL     1       4.832   5.145  17.618  0.00  0.00    +0.000 NA
ATOM      5  C   UNL     1       3.849   4.604  18.606  0.00  0.00    +0.000 C 
ATOM      6  C   UNL     1       2.399   5.164  18.420  0.00  0.00    +0.000 C 
ENDROOT
BRANCH   1   7
ATOM      7  C   UNL     1       2.489   7.217  19.720  0.00  0.00    +0.000 C 
BRANCH   7  11
ATOM      8  N   UNL     1       0.164  10.055  20.028  0.00  0.00    +0.000 N 
ATOM      9  N   UNL     1      -0.248   9.336  21.088  0.00  0.00    +0.000 NA
ATOM     10  C   UNL     1       0.556   8.277  21.090  0.00  0.00    +0.000 A 
ATOM     11  C   UNL     1       1.481   8.280  20.023  0.00  0.00    +0.000 A 
ATOM     12  C   UNL     1       1.176   9.439  19.324  0.00  0.00    +0.000 A 
ATOM     13  C   UNL     1       1.752   9.984  18.067  0.00  0.00    +0.000 C 
BRANCH   8  14
ATOM     14  C   UNL     1      -0.508  11.310  19.729  0.00  0.00    +0.000 C 
BRANCH  14  16
ATOM     15  C   UNL     1      -1.858  10.932  17.633  0.00  0.00    +0.000 C 
ATOM     16  C   UNL     1      -1.906  11.103  19.143  0.00  0.00    +0.000 C 
ENDBRANCH  14  16
ENDBRANCH   8  14
ENDBRANCH   7  11
ENDBRANCH   1   7
BRANCH   4  17
ATOM     17  C   UNL     1       4.705   4.540  16.274  0.00  0.00    +0.000 C 
BRANCH  17  18
ATOM     18  C   UNL     1       5.903   3.667  15.840  0.00  0.00    +0.000 C 
BRANCH  18  19
ATOM     19  C   UNL     1       6.377   4.039  14.453  0.00  0.00    +0.000 A 
ATOM     20  C   UNL     1       5.845   3.395  13.327  0.00  0.00    +0.000 A 
ATOM     21  C   UNL     1       6.319   3.697  12.050  0.00  0.00    +0.000 A 
ATOM     22  C   UNL     1       7.330   4.641  11.886  0.00  0.00    +0.000 A 
ATOM     23  C   UNL     1       7.857   5.297  12.996  0.00  0.00    +0.000 A 
ATOM     24  C   UNL     1       7.378   5.004  14.273  0.00  0.00    +0.000 A 
ENDBRANCH  18  19
ENDBRANCH  17  18
ENDBRANCH   4  17
BRANCH   5  25
ATOM     25  C   UNL     1       3.776   3.063  18.719  0.00  0.00    +0.000 C 
BRANCH  25  26
ATOM     26  C   UNL     1       2.392   2.533  19.066  0.00  0.00    +0.000 C 
BRANCH  26  27
ATOM     27  O   UNL     1       2.042   1.493  18.152  0.00  0.00    +0.000 OA
ATOM     28  H   UNL     1       2.092   0.647  18.628  0.00  0.00    +0.000 HD
ENDBRANCH  26  27
ENDBRANCH  25  26
ENDBRANCH   5  25
TORSDOF 10
ENDMDL
MODEL 9
REMARK VINA RESULT:      -6.3      1.039      1.817
REMARK  Name = 
REMARK  12 active torsions:
REMARK  status: ('A' for Active; 'I' for Inactive)
REMARK    1  A    between atoms: C_1  and  C_2
REMARK    2  A    between atoms: C_2  and  C_3
REMARK    3  A    between atoms: C_3  and  N_4
REMARK    4  A    between atoms: C_7  and  C_8
REMARK    5  A    between atoms: C_8  and  N_9
REMARK    6  A    between atoms: N_12  and  C_13
REMARK    7  A    between atoms: C_13  and  C_14
REMARK    8  A    between atoms: C_14  and  C_15
REMARK    9  A    between atoms: C_21  and  C_22
REMARK   10  A    between atoms: C_22  and  C_23
REMARK   11  A    between atoms: C_23  and  O_24
REMARK   12  A    between atoms: C_26  and  C_27
REMARK                            x       y       z     vdW  Elec       q    Type
REMARK                         _______ _______ _______ _____ _____    ______ ____
ROOT
ATOM      1  N   UNL     1       2.753   6.509  18.311  0.00  0.00    +0.000 NA
ATOM      2  C   UNL     1       3.995   6.957  17.652  0.00  0.00    +0.000 C 
ATOM      3  C   UNL     1       5.254   6.150  18.051  0.00  0.00    +0.000 C 
ATOM      4  N   UNL     1       5.149   4.680  17.863  0.00  0.00    +0.000 NA
ATOM      5  C   UNL     1       3.883   4.203  18.502  0.00  0.00    +0.000 C 
ATOM      6  C   UNL     1       2.626   5.050  18.109  0.00  0.00    +0.000 C 
ENDROOT
BRANCH   1   7
ATOM      7  C   UNL     1       2.707   6.846  19.746  0.00  0.00    +0.000 C 
BRANCH   7  11
ATOM      8  N   UNL     1       0.356   9.670  19.976  0.00  0.00    +0.000 N 
ATOM      9  N   UNL     1       0.060   9.060  21.139  0.00  0.00    +0.000 NA
ATOM     10  C   UNL     1       0.885   8.019  21.175  0.00  0.00    +0.000 A 
ATOM     11  C   UNL     1       1.708   7.922  20.030  0.00  0.00    +0.000 A 
ATOM     12  C   UNL     1       1.312   8.997  19.248  0.00  0.00    +0.000 A 
ATOM     13  C   UNL     1       1.756   9.414  17.892  0.00  0.00    +0.000 C 
BRANCH   8  14
ATOM     14  C   UNL     1      -0.370  10.877  19.614  0.00  0.00    +0.000 C 
BRANCH  14  16
ATOM     15  C   UNL     1      -0.047  13.045  20.858  0.00  0.00    +0.000 C 
ATOM     16  C   UNL     1      -0.773  11.710  20.832  0.00  0.00    +0.000 C 
ENDBRANCH  14  16
ENDBRANCH   8  14
ENDBRANCH   7  11
ENDBRANCH   1   7
BRANCH   4  17
ATOM     17  C   UNL     1       5.264   4.303  16.437  0.00  0.00    +0.000 C 
BRANCH  17  18
ATOM     18  C   UNL     1       6.278   5.138  15.626  0.00  0.00    +0.000 C 
BRANCH  18  19
ATOM     19  C   UNL     1       6.391   4.633  14.205  0.00  0.00    +0.000 A 
ATOM     20  C   UNL     1       5.443   3.733  13.697  0.00  0.00    +0.000 A 
ATOM     21  C   UNL     1       5.575   3.223  12.404  0.00  0.00    +0.000 A 
ATOM     22  C   UNL     1       6.655   3.604  11.610  0.00  0.00    +0.000 A 
ATOM     23  C   UNL     1       7.594   4.507  12.100  0.00  0.00    +0.000 A 
ATOM     24  C   UNL     1       7.460   5.027  13.387  0.00  0.00    +0.000 A 
ENDBRANCH  18  19
ENDBRANCH  17  18
ENDBRANCH   4  17
BRANCH   5  25
ATOM     25  C   UNL     1       3.551   2.704  18.317  0.00  0.00    +0.000 C 
BRANCH  25  26
ATOM     26  C   UNL     1       2.116   2.437  17.882  0.00  0.00    +0.000 C 
BRANCH  26  27
ATOM     27  O   UNL     1       1.543   1.443  18.731  0.00  0.00    +0.000 OA
ATOM     28  H   UNL     1       2.163   0.696  18.779  0.00  0.00    +0.000 HD
ENDBRANCH  26  27
ENDBRANCH  25  26
ENDBRANCH   5  25
TORSDOF 10
ENDMDL
