MODEL 1
REMARK VINA RESULT:      -8.2      0.000      0.000
REMARK  Name = 
REMARK  4 active torsions:
REMARK  status: ('A' for Active; 'I' for Inactive)
REMARK    1  A    between atoms: O_1  and  C_2
REMARK    2  A    between atoms: C_5  and  C_6
REMARK    3  A    between atoms: C_6  and  C_7
REMARK    4  A    between atoms: N_13  and  C_14
REMARK                            x       y       z     vdW  Elec       q    Type
REMARK                         _______ _______ _______ _____ _____    ______ ____
ROOT
ATOM      1  C   UNL     1       1.929   4.923  20.224  0.00  0.00    +0.000 A 
ATOM      2  N   UNL     1       0.729   4.406  20.466  0.00  0.00    +0.000 NA
ATOM      3  N   UNL     1       0.599   3.227  19.726  0.00  0.00    +0.000 NA
ATOM      4  C   UNL     1       1.727   3.090  19.087  0.00  0.00    +0.000 A 
ATOM      5  S   UNL     1       2.425   2.026  17.948  0.00  0.00    +0.000 S 
ATOM      6  C   UNL     1       3.825   3.149  17.930  0.00  0.00    +0.000 A 
ATOM      7  N   UNL     1       4.829   2.860  17.049  0.00  0.00    +0.000 N 
ATOM      8  N   UNL     1       3.777   4.165  18.748  0.00  0.00    +0.000 NA
ATOM      9  N   UNL     1       2.581   4.097  19.359  0.00  0.00    +0.000 N 
ATOM     10  H   UNL     1       4.742   2.003  16.517  0.00  0.00    +0.000 HD
ENDROOT
BRANCH   7  11
ATOM     11  C   UNL     1       5.658   3.830  16.448  0.00  0.00    +0.000 A 
ATOM     12  C   UNL     1       5.907   3.850  15.064  0.00  0.00    +0.000 A 
ATOM     13  C   UNL     1       6.695   4.844  14.481  0.00  0.00    +0.000 A 
ATOM     14  C   UNL     1       7.240   5.846  15.274  0.00  0.00    +0.000 A 
ATOM     15  C   UNL     1       6.993   5.846  16.646  0.00  0.00    +0.000 A 
ATOM     16 CL   UNL     1       7.651   7.099  17.625  0.00  0.00    +0.000 Cl
ATOM     17  C   UNL     1       6.211   4.846  17.233  0.00  0.00    +0.000 A 
ENDBRANCH   7  11
BRANCH   1  18
ATOM     18  C   UNL     1       2.516   6.193  20.722  0.00  0.00    +0.000 C 
BRANCH  18  22
ATOM     19  C   UNL     1       1.149   9.659  18.528  0.00  0.00    +0.000 A 
ATOM     20  C   UNL     1       1.930   8.698  17.887  0.00  0.00    +0.000 A 
ATOM     21  C   UNL     1       2.366   7.576  18.602  0.00  0.00    +0.000 A 
ATOM     22  C   UNL     1       2.033   7.409  19.956  0.00  0.00    +0.000 A 
ATOM     23  C   UNL     1       1.243   8.384  20.584  0.00  0.00    +0.000 A 
ATOM     24  C   UNL     1       0.807   9.497  19.866  0.00  0.00    +0.000 A 
ATOM     25  F   UNL     1       0.057  10.417  20.491  0.00  0.00    +0.000 F 
BRANCH  19  26
ATOM     26  O   UNL     1       0.714  10.764  17.855  0.00  0.00    +0.000 OA
ATOM     27  H   UNL     1       0.834  10.627  16.902  0.00  0.00    +0.000 HD
ENDBRANCH  19  26
ENDBRANCH  18  22
ENDBRANCH   1  18
TORSDOF 4
ENDMDL
MODEL 2
REMARK VINA RESULT:      -8.0      0.909      1.326
REMARK  Name = 
REMARK  4 active torsions:
REMARK  status: ('A' for Active; 'I' for Inactive)
REMARK    1  A    between atoms: O_1  and  C_2
REMARK    2  A    between atoms: C_5  and  C_6
REMARK    3  A    between atoms: C_6  and  C_7
REMARK    4  A    between atoms: N_13  and  C_14
REMARK                            x       y       z     vdW  Elec       q    Type
REMARK                         _______ _______ _______ _____ _____    ______ ____
ROOT
ATOM      1  C   UNL     1       1.872   4.820  20.331  0.00  0.00    +0.000 A 
ATOM      2  N   UNL     1       0.662   4.307  20.525  0.00  0.00    +0.000 NA
ATOM      3  N   UNL     1       0.534   3.164  19.730  0.00  0.00    +0.000 NA
ATOM      4  C   UNL     1       1.672   3.042  19.108  0.00  0.00    +0.000 A 
ATOM      5  S   UNL     1       2.381   2.023  17.936  0.00  0.00    +0.000 S 
ATOM      6  C   UNL     1       3.794   3.127  17.997  0.00  0.00    +0.000 A 
ATOM      7  N   UNL     1       4.813   2.866  17.124  0.00  0.00    +0.000 N 
ATOM      8  N   UNL     1       3.741   4.106  18.858  0.00  0.00    +0.000 NA
ATOM      9  N   UNL     1       2.532   4.026  19.443  0.00  0.00    +0.000 N 
ATOM     10  H   UNL     1       4.726   2.035  16.552  0.00  0.00    +0.000 HD
ENDROOT
BRANCH   7  11
ATOM     11  C   UNL     1       5.665   3.852  16.583  0.00  0.00    +0.000 A 
ATOM     12  C   UNL     1       5.927   3.943  15.205  0.00  0.00    +0.000 A 
ATOM     13  C   UNL     1       6.738   4.953  14.683  0.00  0.00    +0.000 A 
ATOM     14  C   UNL     1       7.293   5.900  15.535  0.00  0.00    +0.000 A 
ATOM     15  C   UNL     1       7.034   5.829  16.903  0.00  0.00    +0.000 A 
ATOM     16 CL   UNL     1       7.705   7.014  17.955  0.00  0.00    +0.000 Cl
ATOM     17  C   UNL     1       6.228   4.814  17.428  0.00  0.00    +0.000 A 
ENDBRANCH   7  11
BRANCH   1  18
ATOM     18  C   UNL     1       2.463   6.059  20.897  0.00  0.00    +0.000 C 
BRANCH  18  22
ATOM     19  C   UNL     1       1.069   9.647  18.928  0.00  0.00    +0.000 A 
ATOM     20  C   UNL     1       0.702   9.395  20.250  0.00  0.00    +0.000 A 
ATOM     21  C   UNL     1       1.160   8.234  20.883  0.00  0.00    +0.000 A 
ATOM     22  C   UNL     1       1.979   7.316  20.204  0.00  0.00    +0.000 A 
ATOM     23  C   UNL     1       2.341   7.587  18.876  0.00  0.00    +0.000 A 
ATOM     24  C   UNL     1       1.886   8.748  18.251  0.00  0.00    +0.000 A 
ATOM     25  F   UNL     1       2.245   8.981  16.980  0.00  0.00    +0.000 F 
BRANCH  19  26
ATOM     26  O   UNL     1       0.633  10.769  18.286  0.00  0.00    +0.000 OA
ATOM     27  H   UNL     1      -0.078  10.530  17.671  0.00  0.00    +0.000 HD
ENDBRANCH  19  26
ENDBRANCH  18  22
ENDBRANCH   1  18
TORSDOF 4
ENDMDL
MODEL 3
REMARK VINA RESULT:      -8.0      1.218      1.549
REMARK  Name = 
REMARK  4 active torsions:
REMARK  status: ('A' for Active; 'I' for Inactive)
REMARK    1  A    between atoms: O_1  and  C_2
REMARK    2  A    between atoms: C_5  and  C_6
REMARK    3  A    between atoms: C_6  and  C_7
REMARK    4  A    between atoms: N_13  and  C_14
REMARK                            x       y       z     vdW  Elec       q    Type
REMARK                         _______ _______ _______ _____ _____    ______ ____
ROOT
ATOM      1  C   UNL     1       2.048   5.088  20.172  0.00  0.00    +0.000 A 
ATOM      2  N   UNL     1       0.857   4.603  20.506  0.00  0.00    +0.000 NA
ATOM      3  N   UNL     1       0.681   3.378  19.856  0.00  0.00    +0.000 NA
ATOM      4  C   UNL     1       1.775   3.183  19.176  0.00  0.00    +0.000 A 
ATOM      5  S   UNL     1       2.408   2.035  18.081  0.00  0.00    +0.000 S 
ATOM      6  C   UNL     1       3.815   3.137  17.919  0.00  0.00    +0.000 A 
ATOM      7  N   UNL     1       4.773   2.776  17.013  0.00  0.00    +0.000 N 
ATOM      8  N   UNL     1       3.815   4.207  18.665  0.00  0.00    +0.000 NA
ATOM      9  N   UNL     1       2.650   4.196  19.337  0.00  0.00    +0.000 N 
ATOM     10  H   UNL     1       4.652   1.885  16.546  0.00  0.00    +0.000 HD
ENDROOT
BRANCH   7  11
ATOM     11  C   UNL     1       5.580   3.692  16.307  0.00  0.00    +0.000 A 
ATOM     12  C   UNL     1       6.271   4.734  16.950  0.00  0.00    +0.000 A 
ATOM     13  C   UNL     1       7.101   5.604  16.241  0.00  0.00    +0.000 A 
ATOM     14  C   UNL     1       7.262   5.439  14.871  0.00  0.00    +0.000 A 
ATOM     15  C   UNL     1       6.592   4.405  14.220  0.00  0.00    +0.000 A 
ATOM     16 CL   UNL     1       6.808   4.188  12.527  0.00  0.00    +0.000 Cl
ATOM     17  C   UNL     1       5.754   3.536  14.928  0.00  0.00    +0.000 A 
ENDBRANCH   7  11
BRANCH   1  18
ATOM     18  C   UNL     1       2.670   6.382  20.552  0.00  0.00    +0.000 C 
BRANCH  18  22
ATOM     19  C   UNL     1       0.909   9.765  18.516  0.00  0.00    +0.000 A 
ATOM     20  C   UNL     1       1.730   8.885  17.813  0.00  0.00    +0.000 A 
ATOM     21  C   UNL     1       2.294   7.789  18.477  0.00  0.00    +0.000 A 
ATOM     22  C   UNL     1       2.048   7.568  19.842  0.00  0.00    +0.000 A 
ATOM     23  C   UNL     1       1.216   8.461  20.533  0.00  0.00    +0.000 A 
ATOM     24  C   UNL     1       0.653   9.549  19.866  0.00  0.00    +0.000 A 
ATOM     25  F   UNL     1      -0.136  10.390  20.551  0.00  0.00    +0.000 F 
BRANCH  19  26
ATOM     26  O   UNL     1       0.349  10.843  17.894  0.00  0.00    +0.000 OA
ATOM     27  H   UNL     1       1.043  11.490  17.688  0.00  0.00    +0.000 HD
ENDBRANCH  19  26
ENDBRANCH  18  22
ENDBRANCH   1  18
TORSDOF 4
ENDMDL
MODEL 4
REMARK VINA RESULT:      -7.8      2.115      2.635
REMARK  Name = 
REMARK  4 active torsions:
REMARK  status: ('A' for Active; 'I' for Inactive)
REMARK    1  A    between atoms: O_1  and  C_2
REMARK    2  A    between atoms: C_5  and  C_6
REMARK    3  A    between atoms: C_6  and  C_7
REMARK    4  A    between atoms: N_13  and  C_14
REMARK                            x       y       z     vdW  Elec       q    Type
REMARK                         _______ _______ _______ _____ _____    ______ ____
ROOT
ATOM      1  C   UNL     1       2.124   6.264  20.059  0.00  0.00    +0.000 A 
ATOM      2  N   UNL     1       1.186   5.697  20.809  0.00  0.00    +0.000 NA
ATOM      3  N   UNL     1       1.510   4.347  20.977  0.00  0.00    +0.000 NA
ATOM      4  C   UNL     1       2.628   4.174  20.331  0.00  0.00    +0.000 A 
ATOM      5  S   UNL     1       3.694   2.896  19.948  0.00  0.00    +0.000 S 
ATOM      6  C   UNL     1       4.595   4.095  18.963  0.00  0.00    +0.000 A 
ATOM      7  N   UNL     1       5.659   3.623  18.248  0.00  0.00    +0.000 N 
ATOM      8  N   UNL     1       4.161   5.326  18.991  0.00  0.00    +0.000 NA
ATOM      9  N   UNL     1       3.054   5.316  19.754  0.00  0.00    +0.000 N 
ATOM     10  H   UNL     1       5.901   2.648  18.373  0.00  0.00    +0.000 HD
ENDROOT
BRANCH   7  11
ATOM     11  C   UNL     1       6.099   4.174  17.026  0.00  0.00    +0.000 A 
ATOM     12  C   UNL     1       7.081   5.179  16.967  0.00  0.00    +0.000 A 
ATOM     13  C   UNL     1       7.536   5.681  15.745  0.00  0.00    +0.000 A 
ATOM     14  C   UNL     1       7.021   5.177  14.558  0.00  0.00    +0.000 A 
ATOM     15  C   UNL     1       6.054   4.173  14.600  0.00  0.00    +0.000 A 
ATOM     16 CL   UNL     1       5.431   3.533  13.129  0.00  0.00    +0.000 Cl
ATOM     17  C   UNL     1       5.592   3.674  15.822  0.00  0.00    +0.000 A 
ENDBRANCH   7  11
BRANCH   1  18
ATOM     18  C   UNL     1       2.200   7.658  19.554  0.00  0.00    +0.000 C 
BRANCH  18  22
ATOM     19  C   UNL     1      -0.289  10.410  21.773  0.00  0.00    +0.000 A 
ATOM     20  C   UNL     1      -0.219  10.506  20.384  0.00  0.00    +0.000 A 
ATOM     21  C   UNL     1       0.586   9.610  19.671  0.00  0.00    +0.000 A 
ATOM     22  C   UNL     1       1.328   8.619  20.336  0.00  0.00    +0.000 A 
ATOM     23  C   UNL     1       1.242   8.535  21.734  0.00  0.00    +0.000 A 
ATOM     24  C   UNL     1       0.436   9.427  22.439  0.00  0.00    +0.000 A 
ATOM     25  F   UNL     1       0.375   9.327  23.776  0.00  0.00    +0.000 F 
BRANCH  19  26
ATOM     26  O   UNL     1      -1.062  11.274  22.493  0.00  0.00    +0.000 OA
ATOM     27  H   UNL     1      -1.777  11.610  21.929  0.00  0.00    +0.000 HD
ENDBRANCH  19  26
ENDBRANCH  18  22
ENDBRANCH   1  18
TORSDOF 4
ENDMDL
MODEL 5
REMARK VINA RESULT:      -7.7      1.382      1.941
REMARK  Name = 
REMARK  4 active torsions:
REMARK  status: ('A' for Active; 'I' for Inactive)
REMARK    1  A    between atoms: O_1  and  C_2
REMARK    2  A    between atoms: C_5  and  C_6
REMARK    3  A    between atoms: C_6  and  C_7
REMARK    4  A    between atoms: N_13  and  C_14
REMARK                            x       y       z     vdW  Elec       q    Type
REMARK                         _______ _______ _______ _____ _____    ______ ____
ROOT
ATOM      1  C   UNL     1       1.900   4.825  20.319  0.00  0.00    +0.000 A 
ATOM      2  N   UNL     1       0.696   4.300  20.516  0.00  0.00    +0.000 NA
ATOM      3  N   UNL     1       0.575   3.160  19.717  0.00  0.00    +0.000 NA
ATOM      4  C   UNL     1       1.712   3.050  19.090  0.00  0.00    +0.000 A 
ATOM      5  S   UNL     1       2.426   2.041  17.912  0.00  0.00    +0.000 S 
ATOM      6  C   UNL     1       3.829   3.159  17.971  0.00  0.00    +0.000 A 
ATOM      7  N   UNL     1       4.847   2.910  17.093  0.00  0.00    +0.000 N 
ATOM      8  N   UNL     1       3.770   4.134  18.836  0.00  0.00    +0.000 NA
ATOM      9  N   UNL     1       2.565   4.040  19.425  0.00  0.00    +0.000 N 
ATOM     10  H   UNL     1       4.765   2.080  16.518  0.00  0.00    +0.000 HD
ENDROOT
BRANCH   7  11
ATOM     11  C   UNL     1       5.687   3.906  16.553  0.00  0.00    +0.000 A 
ATOM     12  C   UNL     1       6.296   4.888  17.353  0.00  0.00    +0.000 A 
ATOM     13  C   UNL     1       7.161   5.839  16.807  0.00  0.00    +0.000 A 
ATOM     14  C   UNL     1       7.440   5.816  15.447  0.00  0.00    +0.000 A 
ATOM     15  C   UNL     1       6.852   4.842  14.642  0.00  0.00    +0.000 A 
ATOM     16 CL   UNL     1       7.214   4.800  12.960  0.00  0.00    +0.000 Cl
ATOM     17  C   UNL     1       5.980   3.893  15.185  0.00  0.00    +0.000 A 
ENDBRANCH   7  11
BRANCH   1  18
ATOM     18  C   UNL     1       2.483   6.067  20.887  0.00  0.00    +0.000 C 
BRANCH  18  22
ATOM     19  C   UNL     1       1.079   9.647  18.910  0.00  0.00    +0.000 A 
ATOM     20  C   UNL     1       0.721   9.402  20.235  0.00  0.00    +0.000 A 
ATOM     21  C   UNL     1       1.182   8.244  20.870  0.00  0.00    +0.000 A 
ATOM     22  C   UNL     1       1.995   7.322  20.191  0.00  0.00    +0.000 A 
ATOM     23  C   UNL     1       2.350   7.586  18.859  0.00  0.00    +0.000 A 
ATOM     24  C   UNL     1       1.892   8.744  18.232  0.00  0.00    +0.000 A 
ATOM     25  F   UNL     1       2.242   8.971  16.957  0.00  0.00    +0.000 F 
BRANCH  19  26
ATOM     26  O   UNL     1       0.641  10.767  18.265  0.00  0.00    +0.000 OA
ATOM     27  H   UNL     1       0.636  10.604  17.308  0.00  0.00    +0.000 HD
ENDBRANCH  19  26
ENDBRANCH  18  22
ENDBRANCH   1  18
TORSDOF 4
ENDMDL
MODEL 6
REMARK VINA RESULT:      -7.7      2.042      2.654
REMARK  Name = 
REMARK  4 active torsions:
REMARK  status: ('A' for Active; 'I' for Inactive)
REMARK    1  A    between atoms: O_1  and  C_2
REMARK    2  A    between atoms: C_5  and  C_6
REMARK    3  A    between atoms: C_6  and  C_7
REMARK    4  A    between atoms: N_13  and  C_14
REMARK                            x       y       z     vdW  Elec       q    Type
REMARK                         _______ _______ _______ _____ _____    ______ ____
ROOT
ATOM      1  C   UNL     1       2.120   6.230  20.042  0.00  0.00    +0.000 A 
ATOM      2  N   UNL     1       1.198   5.637  20.792  0.00  0.00    +0.000 NA
ATOM      3  N   UNL     1       1.556   4.295  20.954  0.00  0.00    +0.000 NA
ATOM      4  C   UNL     1       2.676   4.152  20.304  0.00  0.00    +0.000 A 
ATOM      5  S   UNL     1       3.773   2.903  19.914  0.00  0.00    +0.000 S 
ATOM      6  C   UNL     1       4.642   4.128  18.932  0.00  0.00    +0.000 A 
ATOM      7  N   UNL     1       5.716   3.685  18.212  0.00  0.00    +0.000 N 
ATOM      8  N   UNL     1       4.177   5.347  18.965  0.00  0.00    +0.000 NA
ATOM      9  N   UNL     1       3.072   5.307  19.731  0.00  0.00    +0.000 N 
ATOM     10  H   UNL     1       5.982   2.716  18.334  0.00  0.00    +0.000 HD
ENDROOT
BRANCH   7  11
ATOM     11  C   UNL     1       6.139   4.251  16.992  0.00  0.00    +0.000 A 
ATOM     12  C   UNL     1       7.022   5.344  16.938  0.00  0.00    +0.000 A 
ATOM     13  C   UNL     1       7.464   5.863  15.719  0.00  0.00    +0.000 A 
ATOM     14  C   UNL     1       7.037   5.288  14.529  0.00  0.00    +0.000 A 
ATOM     15  C   UNL     1       6.169   4.197  14.567  0.00  0.00    +0.000 A 
ATOM     16 CL   UNL     1       5.656   3.471  13.093  0.00  0.00    +0.000 Cl
ATOM     17  C   UNL     1       5.719   3.680  15.786  0.00  0.00    +0.000 A 
ENDBRANCH   7  11
BRANCH   1  18
ATOM     18  C   UNL     1       2.160   7.627  19.541  0.00  0.00    +0.000 C 
BRANCH  18  22
ATOM     19  C   UNL     1      -0.207  10.333  21.944  0.00  0.00    +0.000 A 
ATOM     20  C   UNL     1       0.651   9.426  22.565  0.00  0.00    +0.000 A 
ATOM     21  C   UNL     1       1.418   8.556  21.781  0.00  0.00    +0.000 A 
ATOM     22  C   UNL     1       1.330   8.579  20.379  0.00  0.00    +0.000 A 
ATOM     23  C   UNL     1       0.465   9.501  19.771  0.00  0.00    +0.000 A 
ATOM     24  C   UNL     1      -0.293  10.369  20.556  0.00  0.00    +0.000 A 
ATOM     25  F   UNL     1      -1.116  11.238  19.950  0.00  0.00    +0.000 F 
BRANCH  19  26
ATOM     26  O   UNL     1      -0.968  11.190  22.684  0.00  0.00    +0.000 OA
ATOM     27  H   UNL     1      -0.746  11.086  23.623  0.00  0.00    +0.000 HD
ENDBRANCH  19  26
ENDBRANCH  18  22
ENDBRANCH   1  18
TORSDOF 4
ENDMDL
MODEL 7
REMARK VINA RESULT:      -7.4      4.997      6.799
REMARK  Name = 
REMARK  4 active torsions:
REMARK  status: ('A' for Active; 'I' for Inactive)
REMARK    1  A    between atoms: O_1  and  C_2
REMARK    2  A    between atoms: C_5  and  C_6
REMARK    3  A    between atoms: C_6  and  C_7
REMARK    4  A    between atoms: N_13  and  C_14
REMARK                            x       y       z     vdW  Elec       q    Type
REMARK                         _______ _______ _______ _____ _____    ______ ____
ROOT
ATOM      1  C   UNL     1      -0.675  11.080  19.896  0.00  0.00    +0.000 A 
ATOM      2  N   UNL     1      -1.270  11.792  20.847  0.00  0.00    +0.000 NA
ATOM      3  N   UNL     1      -0.854  11.305  22.089  0.00  0.00    +0.000 NA
ATOM      4  C   UNL     1      -0.025  10.336  21.825  0.00  0.00    +0.000 A 
ATOM      5  S   UNL     1       0.892   9.174  22.677  0.00  0.00    +0.000 S 
ATOM      6  C   UNL     1       1.346   8.520  21.069  0.00  0.00    +0.000 A 
ATOM      7  N   UNL     1       2.113   7.389  21.062  0.00  0.00    +0.000 N 
ATOM      8  N   UNL     1       0.899   9.162  20.024  0.00  0.00    +0.000 NA
ATOM      9  N   UNL     1       0.128  10.157  20.497  0.00  0.00    +0.000 N 
ATOM     10  H   UNL     1       2.422   7.038  21.961  0.00  0.00    +0.000 HD
ENDROOT
BRANCH   7  11
ATOM     11  C   UNL     1       2.077   6.414  20.044  0.00  0.00    +0.000 A 
ATOM     12  C   UNL     1       2.702   6.607  18.799  0.00  0.00    +0.000 A 
ATOM     13  C   UNL     1       2.694   5.612  17.819  0.00  0.00    +0.000 A 
ATOM     14  C   UNL     1       2.068   4.399  18.073  0.00  0.00    +0.000 A 
ATOM     15  C   UNL     1       1.453   4.188  19.307  0.00  0.00    +0.000 A 
ATOM     16 CL   UNL     1       0.696   2.677  19.630  0.00  0.00    +0.000 Cl
ATOM     17  C   UNL     1       1.454   5.186  20.287  0.00  0.00    +0.000 A 
ENDBRANCH   7  11
BRANCH   1  18
ATOM     18  C   UNL     1      -0.835  11.170  18.423  0.00  0.00    +0.000 C 
BRANCH  18  22
ATOM     19  C   UNL     1      -4.965  11.588  17.212  0.00  0.00    +0.000 A 
ATOM     20  C   UNL     1      -4.560  12.051  18.464  0.00  0.00    +0.000 A 
ATOM     21  C   UNL     1      -3.221  11.916  18.848  0.00  0.00    +0.000 A 
ATOM     22  C   UNL     1      -2.281  11.316  17.993  0.00  0.00    +0.000 A 
ATOM     23  C   UNL     1      -2.705  10.859  16.736  0.00  0.00    +0.000 A 
ATOM     24  C   UNL     1      -4.039  11.000  16.356  0.00  0.00    +0.000 A 
ATOM     25  F   UNL     1      -4.419  10.552  15.150  0.00  0.00    +0.000 F 
BRANCH  19  26
ATOM     26  O   UNL     1      -6.265  11.703  16.814  0.00  0.00    +0.000 OA
ATOM     27  H   UNL     1      -6.847  11.566  17.578  0.00  0.00    +0.000 HD
ENDBRANCH  19  26
ENDBRANCH  18  22
ENDBRANCH   1  18
TORSDOF 4
ENDMDL
MODEL 8
REMARK VINA RESULT:      -7.4      5.029      6.824
REMARK  Name = 
REMARK  4 active torsions:
REMARK  status: ('A' for Active; 'I' for Inactive)
REMARK    1  A    between atoms: O_1  and  C_2
REMARK    2  A    between atoms: C_5  and  C_6
REMARK    3  A    between atoms: C_6  and  C_7
REMARK    4  A    between atoms: N_13  and  C_14
REMARK                            x       y       z     vdW  Elec       q    Type
REMARK                         _______ _______ _______ _____ _____    ______ ____
ROOT
ATOM      1  C   UNL     1      -0.782  11.214  19.982  0.00  0.00    +0.000 A 
ATOM      2  N   UNL     1      -1.383  11.923  20.931  0.00  0.00    +0.000 NA
ATOM      3  N   UNL     1      -0.978  11.429  22.175  0.00  0.00    +0.000 NA
ATOM      4  C   UNL     1      -0.149  10.459  21.912  0.00  0.00    +0.000 A 
ATOM      5  S   UNL     1       0.759   9.291  22.765  0.00  0.00    +0.000 S 
ATOM      6  C   UNL     1       1.223   8.644  21.157  0.00  0.00    +0.000 A 
ATOM      7  N   UNL     1       1.988   7.511  21.152  0.00  0.00    +0.000 N 
ATOM      8  N   UNL     1       0.787   9.292  20.113  0.00  0.00    +0.000 NA
ATOM      9  N   UNL     1       0.014  10.287  20.584  0.00  0.00    +0.000 N 
ATOM     10  H   UNL     1       2.290   7.156  22.051  0.00  0.00    +0.000 HD
ENDROOT
BRANCH   7  11
ATOM     11  C   UNL     1       1.959   6.541  20.128  0.00  0.00    +0.000 A 
ATOM     12  C   UNL     1       2.522   6.771  18.861  0.00  0.00    +0.000 A 
ATOM     13  C   UNL     1       2.523   5.783  17.874  0.00  0.00    +0.000 A 
ATOM     14  C   UNL     1       1.966   4.539  18.145  0.00  0.00    +0.000 A 
ATOM     15  C   UNL     1       1.413   4.293  19.400  0.00  0.00    +0.000 A 
ATOM     16 CL   UNL     1       0.743   2.745  19.742  0.00  0.00    +0.000 Cl
ATOM     17  C   UNL     1       1.405   5.283  20.387  0.00  0.00    +0.000 A 
ENDBRANCH   7  11
BRANCH   1  18
ATOM     18  C   UNL     1      -0.931  11.311  18.508  0.00  0.00    +0.000 C 
BRANCH  18  22
ATOM     19  C   UNL     1      -5.049  11.636  17.231  0.00  0.00    +0.000 A 
ATOM     20  C   UNL     1      -4.083  11.167  16.341  0.00  0.00    +0.000 A 
ATOM     21  C   UNL     1      -2.753  11.060  16.762  0.00  0.00    +0.000 A 
ATOM     22  C   UNL     1      -2.376  11.424  18.065  0.00  0.00    +0.000 A 
ATOM     23  C   UNL     1      -3.362  11.890  18.949  0.00  0.00    +0.000 A 
ATOM     24  C   UNL     1      -4.687  11.990  18.526  0.00  0.00    +0.000 A 
ATOM     25  F   UNL     1      -5.609  12.442  19.389  0.00  0.00    +0.000 F 
BRANCH  19  26
ATOM     26  O   UNL     1      -6.353  11.753  16.845  0.00  0.00    +0.000 OA
ATOM     27  H   UNL     1      -6.752  10.869  16.794  0.00  0.00    +0.000 HD
ENDBRANCH  19  26
ENDBRANCH  18  22
ENDBRANCH   1  18
TORSDOF 4
ENDMDL
MODEL 9
REMARK VINA RESULT:      -7.4      4.443      6.303
REMARK  Name = 
REMARK  4 active torsions:
REMARK  status: ('A' for Active; 'I' for Inactive)
REMARK    1  A    between atoms: O_1  and  C_2
REMARK    2  A    between atoms: C_5  and  C_6
REMARK    3  A    between atoms: C_6  and  C_7
REMARK    4  A    between atoms: N_13  and  C_14
REMARK                            x       y       z     vdW  Elec       q    Type
REMARK                         _______ _______ _______ _____ _____    ______ ____
ROOT
ATOM      1  C   UNL     1      -0.280  10.380  19.214  0.00  0.00    +0.000 A 
ATOM      2  N   UNL     1      -0.679  11.349  20.031  0.00  0.00    +0.000 NA
ATOM      3  N   UNL     1      -0.135  11.112  21.296  0.00  0.00    +0.000 NA
ATOM      4  C   UNL     1       0.569  10.023  21.176  0.00  0.00    +0.000 A 
ATOM      5  S   UNL     1       1.499   8.990  22.168  0.00  0.00    +0.000 S 
ATOM      6  C   UNL     1       1.672   7.944  20.720  0.00  0.00    +0.000 A 
ATOM      7  N   UNL     1       2.338   6.764  20.894  0.00  0.00    +0.000 N 
ATOM      8  N   UNL     1       1.138   8.380  19.611  0.00  0.00    +0.000 NA
ATOM      9  N   UNL     1       0.522   9.534  19.920  0.00  0.00    +0.000 N 
ATOM     10  H   UNL     1       2.740   6.593  21.808  0.00  0.00    +0.000 HD
ENDROOT
BRANCH   7  11
ATOM     11  C   UNL     1       2.085   5.594  20.148  0.00  0.00    +0.000 A 
ATOM     12  C   UNL     1       1.050   4.702  20.480  0.00  0.00    +0.000 A 
ATOM     13  C   UNL     1       0.785   3.572  19.703  0.00  0.00    +0.000 A 
ATOM     14  C   UNL     1       1.548   3.321  18.570  0.00  0.00    +0.000 A 
ATOM     15  C   UNL     1       2.571   4.202  18.222  0.00  0.00    +0.000 A 
ATOM     16 CL   UNL     1       3.502   3.901  16.806  0.00  0.00    +0.000 Cl
ATOM     17  C   UNL     1       2.842   5.330  19.002  0.00  0.00    +0.000 A 
ENDBRANCH   7  11
BRANCH   1  18
ATOM     18  C   UNL     1      -0.635  10.152  17.790  0.00  0.00    +0.000 C 
BRANCH  18  22
ATOM     19  C   UNL     1      -4.662  11.393  16.822  0.00  0.00    +0.000 A 
ATOM     20  C   UNL     1      -3.853  10.835  15.833  0.00  0.00    +0.000 A 
ATOM     21  C   UNL     1      -2.552  10.431  16.154  0.00  0.00    +0.000 A 
ATOM     22  C   UNL     1      -2.048  10.587  17.456  0.00  0.00    +0.000 A 
ATOM     23  C   UNL     1      -2.877  11.147  18.440  0.00  0.00    +0.000 A 
ATOM     24  C   UNL     1      -4.174  11.543  18.116  0.00  0.00    +0.000 A 
ATOM     25  F   UNL     1      -4.945  12.079  19.074  0.00  0.00    +0.000 F 
BRANCH  19  26
ATOM     26  O   UNL     1      -5.933  11.798  16.536  0.00  0.00    +0.000 OA
ATOM     27  H   UNL     1      -6.275  12.327  17.275  0.00  0.00    +0.000 HD
ENDBRANCH  19  26
ENDBRANCH  18  22
ENDBRANCH   1  18
TORSDOF 4
ENDMDL
