MODEL 1
REMARK VINA RESULT:      -8.6      0.000      0.000
REMARK  Name = 
REMARK  4 active torsions:
REMARK  status: ('A' for Active; 'I' for Inactive)
REMARK    1  A    between atoms: C_2  and  C_3
REMARK    2  A    between atoms: C_4  and  N_5
REMARK    3  A    between atoms: C_14  and  C_15
REMARK    4  A    between atoms: C_19  and  C_20
REMARK                            x       y       z     vdW  Elec       q    Type
REMARK                         _______ _______ _______ _____ _____    ______ ____
ROOT
ATOM      1  C   UNL     1       2.740   6.696  18.677  0.00  0.00    +0.000 C 
ATOM      2  C   UNL     1       2.139   6.862  19.875  0.00  0.00    +0.000 C 
ATOM      3  O   UNL     1       1.781   5.776  20.666  0.00  0.00    +0.000 OA
ATOM      4  C   UNL     1       1.966   4.480  20.214  0.00  0.00    +0.000 C 
ATOM      5  C   UNL     1       2.547   4.213  19.031  0.00  0.00    +0.000 C 
ATOM      6  C   UNL     1       2.680   2.794  18.589  0.00  0.00    +0.000 C 
ATOM      7  O   UNL     1       3.118   2.528  17.471  0.00  0.00    +0.000 OA
ATOM      8  C   UNL     1       2.311   1.701  19.568  0.00  0.00    +0.000 C 
ATOM      9  C   UNL     1       1.131   2.123  20.428  0.00  0.00    +0.000 C 
ATOM     10  C   UNL     1       1.421   3.436  21.145  0.00  0.00    +0.000 C 
ATOM     11  C   UNL     1       3.045   5.310  18.127  0.00  0.00    +0.000 C 
ENDROOT
BRANCH  11  12
ATOM     12  C   UNL     1       4.532   5.172  17.803  0.00  0.00    +0.000 A 
ATOM     13  C   UNL     1       5.521   5.339  18.782  0.00  0.00    +0.000 A 
ATOM     14  C   UNL     1       6.870   5.282  18.433  0.00  0.00    +0.000 A 
ATOM     15  C   UNL     1       7.244   5.066  17.104  0.00  0.00    +0.000 A 
ATOM     16  C   UNL     1       6.276   4.879  16.110  0.00  0.00    +0.000 A 
ATOM     17  C   UNL     1       4.923   4.928  16.474  0.00  0.00    +0.000 A 
BRANCH  16  18
ATOM     18  C   UNL     1       6.674   4.687  14.722  0.00  0.00    +0.000 A 
ATOM     19  N   UNL     1       7.528   5.402  14.014  0.00  0.00    +0.000 NA
ATOM     20  N   UNL     1       7.532   4.867  12.748  0.00  0.00    +0.000 NA
ATOM     21  N   UNL     1       6.721   3.822  12.672  0.00  0.00    +0.000 NA
ATOM     22  N   UNL     1       6.201   3.700  13.899  0.00  0.00    +0.000 N 
ATOM     23  H   UNL     1       5.558   2.946  14.099  0.00  0.00    +0.000 HD
ENDBRANCH  16  18
ENDBRANCH  11  12
BRANCH   2  24
ATOM     24  N   UNL     1       1.815   8.068  20.449  0.00  0.00    +0.000 N 
ATOM     25  H   UNL     1       2.394   8.860  20.174  0.00  0.00    +0.000 HD
ATOM     26  H   UNL     1       1.680   7.998  21.455  0.00  0.00    +0.000 HD
ENDBRANCH   2  24
BRANCH   1  28
ATOM     27  N   UNL     1       3.372   8.744  17.228  0.00  0.00    +0.000 NA
ATOM     28  C   UNL     1       3.100   7.827  17.880  0.00  0.00    +0.000 C 
ENDBRANCH   1  28
TORSDOF 4
ENDMDL
MODEL 2
REMARK VINA RESULT:      -7.8      1.878      6.604
REMARK  Name = 
REMARK  4 active torsions:
REMARK  status: ('A' for Active; 'I' for Inactive)
REMARK    1  A    between atoms: C_2  and  C_3
REMARK    2  A    between atoms: C_4  and  N_5
REMARK    3  A    between atoms: C_14  and  C_15
REMARK    4  A    between atoms: C_19  and  C_20
REMARK                            x       y       z     vdW  Elec       q    Type
REMARK                         _______ _______ _______ _____ _____    ______ ____
ROOT
ATOM      1  C   UNL     1       4.603   5.723  17.602  0.00  0.00    +0.000 C 
ATOM      2  C   UNL     1       4.628   4.728  16.689  0.00  0.00    +0.000 C 
ATOM      3  O   UNL     1       3.764   3.641  16.774  0.00  0.00    +0.000 OA
ATOM      4  C   UNL     1       2.896   3.508  17.845  0.00  0.00    +0.000 C 
ATOM      5  C   UNL     1       2.805   4.441  18.809  0.00  0.00    +0.000 C 
ATOM      6  C   UNL     1       1.876   4.217  19.955  0.00  0.00    +0.000 C 
ATOM      7  O   UNL     1       1.846   5.005  20.897  0.00  0.00    +0.000 OA
ATOM      8  C   UNL     1       0.943   3.025  19.898  0.00  0.00    +0.000 C 
ATOM      9  C   UNL     1       1.619   1.844  19.222  0.00  0.00    +0.000 C 
ATOM     10  C   UNL     1       2.121   2.223  17.834  0.00  0.00    +0.000 C 
ATOM     11  C   UNL     1       3.636   5.697  18.778  0.00  0.00    +0.000 C 
ENDROOT
BRANCH  11  12
ATOM     12  C   UNL     1       2.783   6.964  18.804  0.00  0.00    +0.000 A 
ATOM     13  C   UNL     1       2.613   7.765  17.665  0.00  0.00    +0.000 A 
ATOM     14  C   UNL     1       1.891   8.955  17.746  0.00  0.00    +0.000 A 
ATOM     15  C   UNL     1       1.339   9.361  18.963  0.00  0.00    +0.000 A 
ATOM     16  C   UNL     1       1.479   8.572  20.111  0.00  0.00    +0.000 A 
ATOM     17  C   UNL     1       2.198   7.372  20.016  0.00  0.00    +0.000 A 
BRANCH  16  18
ATOM     18  C   UNL     1       0.929   9.018  21.384  0.00  0.00    +0.000 A 
ATOM     19  N   UNL     1       1.582   9.462  22.442  0.00  0.00    +0.000 NA
ATOM     20  N   UNL     1       0.638   9.709  23.410  0.00  0.00    +0.000 NA
ATOM     21  N   UNL     1      -0.581   9.455  22.958  0.00  0.00    +0.000 NA
ATOM     22  N   UNL     1      -0.404   9.042  21.698  0.00  0.00    +0.000 N 
ATOM     23  H   UNL     1      -1.206   8.806  21.130  0.00  0.00    +0.000 HD
ENDBRANCH  16  18
ENDBRANCH  11  12
BRANCH   2  24
ATOM     24  N   UNL     1       5.467   4.657  15.603  0.00  0.00    +0.000 N 
ATOM     25  H   UNL     1       6.332   4.138  15.744  0.00  0.00    +0.000 HD
ATOM     26  H   UNL     1       5.607   5.561  15.158  0.00  0.00    +0.000 HD
ENDBRANCH   2  24
BRANCH   1  28
ATOM     27  N   UNL     1       6.241   7.716  17.411  0.00  0.00    +0.000 NA
ATOM     28  C   UNL     1       5.499   6.831  17.495  0.00  0.00    +0.000 C 
ENDBRANCH   1  28
TORSDOF 4
ENDMDL
MODEL 3
REMARK VINA RESULT:      -7.2      2.445      3.053
REMARK  Name = 
REMARK  4 active torsions:
REMARK  status: ('A' for Active; 'I' for Inactive)
REMARK    1  A    between atoms: C_2  and  C_3
REMARK    2  A    between atoms: C_4  and  N_5
REMARK    3  A    between atoms: C_14  and  C_15
REMARK    4  A    between atoms: C_19  and  C_20
REMARK                            x       y       z     vdW  Elec       q    Type
REMARK                         _______ _______ _______ _____ _____    ______ ____
ROOT
ATOM      1  C   UNL     1       2.127   7.408  18.956  0.00  0.00    +0.000 C 
ATOM      2  C   UNL     1       1.768   7.328  20.255  0.00  0.00    +0.000 C 
ATOM      3  O   UNL     1       1.635   6.103  20.899  0.00  0.00    +0.000 OA
ATOM      4  C   UNL     1       1.796   4.916  20.203  0.00  0.00    +0.000 C 
ATOM      5  C   UNL     1       2.143   4.892  18.905  0.00  0.00    +0.000 C 
ATOM      6  C   UNL     1       2.263   3.579  18.206  0.00  0.00    +0.000 C 
ATOM      7  O   UNL     1       2.484   3.533  16.998  0.00  0.00    +0.000 OA
ATOM      8  C   UNL     1       2.156   2.316  19.033  0.00  0.00    +0.000 C 
ATOM      9  C   UNL     1       1.150   2.492  20.158  0.00  0.00    +0.000 C 
ATOM     10  C   UNL     1       1.504   3.694  21.025  0.00  0.00    +0.000 C 
ATOM     11  C   UNL     1       2.391   6.159  18.127  0.00  0.00    +0.000 C 
ENDROOT
BRANCH  11  12
ATOM     12  C   UNL     1       3.789   6.204  17.512  0.00  0.00    +0.000 A 
ATOM     13  C   UNL     1       3.995   6.537  16.165  0.00  0.00    +0.000 A 
ATOM     14  C   UNL     1       5.277   6.493  15.620  0.00  0.00    +0.000 A 
ATOM     15  C   UNL     1       6.364   6.109  16.409  0.00  0.00    +0.000 A 
ATOM     16  C   UNL     1       6.189   5.789  17.760  0.00  0.00    +0.000 A 
ATOM     17  C   UNL     1       4.897   5.847  18.301  0.00  0.00    +0.000 A 
BRANCH  16  18
ATOM     18  C   UNL     1       7.322   5.359  18.569  0.00  0.00    +0.000 A 
ATOM     19  N   UNL     1       8.277   4.508  18.243  0.00  0.00    +0.000 NA
ATOM     20  N   UNL     1       9.087   4.386  19.347  0.00  0.00    +0.000 NA
ATOM     21  N   UNL     1       8.666   5.166  20.331  0.00  0.00    +0.000 NA
ATOM     22  N   UNL     1       7.582   5.781  19.845  0.00  0.00    +0.000 N 
ATOM     23  H   UNL     1       7.089   6.455  20.415  0.00  0.00    +0.000 HD
ENDBRANCH  16  18
ENDBRANCH  11  12
BRANCH   2  24
ATOM     24  N   UNL     1       1.500   8.395  21.080  0.00  0.00    +0.000 N 
ATOM     25  H   UNL     1       2.303   8.960  21.349  0.00  0.00    +0.000 HD
ATOM     26  H   UNL     1       0.904   8.142  21.864  0.00  0.00    +0.000 HD
ENDBRANCH   2  24
BRANCH   1  28
ATOM     27  N   UNL     1       2.346   9.710  17.796  0.00  0.00    +0.000 NA
ATOM     28  C   UNL     1       2.260   8.678  18.314  0.00  0.00    +0.000 C 
ENDBRANCH   1  28
TORSDOF 4
ENDMDL
MODEL 4
REMARK VINA RESULT:      -7.2      2.509      2.981
REMARK  Name = 
REMARK  4 active torsions:
REMARK  status: ('A' for Active; 'I' for Inactive)
REMARK    1  A    between atoms: C_2  and  C_3
REMARK    2  A    between atoms: C_4  and  N_5
REMARK    3  A    between atoms: C_14  and  C_15
REMARK    4  A    between atoms: C_19  and  C_20
REMARK                            x       y       z     vdW  Elec       q    Type
REMARK                         _______ _______ _______ _____ _____    ______ ____
ROOT
ATOM      1  C   UNL     1       2.271   6.960  18.745  0.00  0.00    +0.000 C 
ATOM      2  C   UNL     1       1.993   7.051  20.064  0.00  0.00    +0.000 C 
ATOM      3  O   UNL     1       1.941   5.922  20.875  0.00  0.00    +0.000 OA
ATOM      4  C   UNL     1       2.101   4.656  20.338  0.00  0.00    +0.000 C 
ATOM      5  C   UNL     1       2.372   4.463  19.035  0.00  0.00    +0.000 C 
ATOM      6  C   UNL     1       2.496   3.070  18.515  0.00  0.00    +0.000 C 
ATOM      7  O   UNL     1       2.645   2.864  17.313  0.00  0.00    +0.000 OA
ATOM      8  C   UNL     1       2.482   1.930  19.511  0.00  0.00    +0.000 C 
ATOM      9  C   UNL     1       1.539   2.232  20.663  0.00  0.00    +0.000 C 
ATOM     10  C   UNL     1       1.902   3.551  21.335  0.00  0.00    +0.000 C 
ATOM     11  C   UNL     1       2.528   5.616  18.079  0.00  0.00    +0.000 C 
ENDROOT
BRANCH  11  12
ATOM     12  C   UNL     1       3.885   5.613  17.375  0.00  0.00    +0.000 A 
ATOM     13  C   UNL     1       4.188   4.701  16.355  0.00  0.00    +0.000 A 
ATOM     14  C   UNL     1       5.462   4.677  15.790  0.00  0.00    +0.000 A 
ATOM     15  C   UNL     1       6.448   5.558  16.242  0.00  0.00    +0.000 A 
ATOM     16  C   UNL     1       6.167   6.491  17.247  0.00  0.00    +0.000 A 
ATOM     17  C   UNL     1       4.879   6.513  17.800  0.00  0.00    +0.000 A 
BRANCH  16  18
ATOM     18  C   UNL     1       7.209   7.385  17.735  0.00  0.00    +0.000 A 
ATOM     19  N   UNL     1       8.144   7.130  18.630  0.00  0.00    +0.000 NA
ATOM     20  N   UNL     1       8.855   8.295  18.797  0.00  0.00    +0.000 NA
ATOM     21  N   UNL     1       8.395   9.248  18.001  0.00  0.00    +0.000 NA
ATOM     22  N   UNL     1       7.385   8.681  17.331  0.00  0.00    +0.000 N 
ATOM     23  H   UNL     1       6.881   9.215  16.636  0.00  0.00    +0.000 HD
ENDBRANCH  16  18
ENDBRANCH  11  12
BRANCH   2  24
ATOM     24  N   UNL     1       1.738   8.213  20.751  0.00  0.00    +0.000 N 
ATOM     25  H   UNL     1       2.538   8.824  20.902  0.00  0.00    +0.000 HD
ATOM     26  H   UNL     1       1.186   8.057  21.592  0.00  0.00    +0.000 HD
ENDBRANCH   2  24
BRANCH   1  28
ATOM     27  N   UNL     1       2.341   9.088  17.275  0.00  0.00    +0.000 NA
ATOM     28  C   UNL     1       2.321   8.133  17.930  0.00  0.00    +0.000 C 
ENDBRANCH   1  28
TORSDOF 4
ENDMDL
MODEL 5
REMARK VINA RESULT:      -6.7      7.944     10.388
REMARK  Name = 
REMARK  4 active torsions:
REMARK  status: ('A' for Active; 'I' for Inactive)
REMARK    1  A    between atoms: C_2  and  C_3
REMARK    2  A    between atoms: C_4  and  N_5
REMARK    3  A    between atoms: C_14  and  C_15
REMARK    4  A    between atoms: C_19  and  C_20
REMARK                            x       y       z     vdW  Elec       q    Type
REMARK                         _______ _______ _______ _____ _____    ______ ____
ROOT
ATOM      1  C   UNL     1      -1.381  11.860  22.451  0.00  0.00    +0.000 C 
ATOM      2  C   UNL     1      -2.519  12.462  22.861  0.00  0.00    +0.000 C 
ATOM      3  O   UNL     1      -2.933  13.677  22.326  0.00  0.00    +0.000 OA
ATOM      4  C   UNL     1      -2.148  14.348  21.403  0.00  0.00    +0.000 C 
ATOM      5  C   UNL     1      -0.994  13.835  20.941  0.00  0.00    +0.000 C 
ATOM      6  C   UNL     1      -0.179  14.628  19.975  0.00  0.00    +0.000 C 
ATOM      7  O   UNL     1       0.926  14.227  19.614  0.00  0.00    +0.000 OA
ATOM      8  C   UNL     1      -0.769  15.907  19.420  0.00  0.00    +0.000 C 
ATOM      9  C   UNL     1      -1.606  16.615  20.473  0.00  0.00    +0.000 C 
ATOM     10  C   UNL     1      -2.691  15.694  21.018  0.00  0.00    +0.000 C 
ATOM     11  C   UNL     1      -0.487  12.490  21.392  0.00  0.00    +0.000 C 
ENDROOT
BRANCH  11  12
ATOM     12  C   UNL     1      -0.269  11.525  20.227  0.00  0.00    +0.000 A 
ATOM     13  C   UNL     1       0.916  10.789  20.088  0.00  0.00    +0.000 A 
ATOM     14  C   UNL     1       1.110   9.977  18.971  0.00  0.00    +0.000 A 
ATOM     15  C   UNL     1       0.129   9.899  17.979  0.00  0.00    +0.000 A 
ATOM     16  C   UNL     1      -1.071  10.610  18.102  0.00  0.00    +0.000 A 
ATOM     17  C   UNL     1      -1.260  11.415  19.235  0.00  0.00    +0.000 A 
BRANCH  16  18
ATOM     18  C   UNL     1      -2.075  10.548  17.049  0.00  0.00    +0.000 A 
ATOM     19  N   UNL     1      -2.938   9.579  16.805  0.00  0.00    +0.000 NA
ATOM     20  N   UNL     1      -3.639   9.953  15.683  0.00  0.00    +0.000 NA
ATOM     21  N   UNL     1      -3.245  11.142  15.252  0.00  0.00    +0.000 NA
ATOM     22  N   UNL     1      -2.288  11.519  16.108  0.00  0.00    +0.000 N 
ATOM     23  H   UNL     1      -1.841  12.419  15.996  0.00  0.00    +0.000 HD
ENDBRANCH  16  18
ENDBRANCH  11  12
BRANCH   2  24
ATOM     24  N   UNL     1      -3.383  11.979  23.815  0.00  0.00    +0.000 N 
ATOM     25  H   UNL     1      -4.349  12.291  23.736  0.00  0.00    +0.000 HD
ATOM     26  H   UNL     1      -3.008  12.059  24.757  0.00  0.00    +0.000 HD
ENDBRANCH   2  24
BRANCH   1  28
ATOM     27  N   UNL     1      -0.628   9.600  23.460  0.00  0.00    +0.000 NA
ATOM     28  C   UNL     1      -0.975  10.611  23.015  0.00  0.00    +0.000 C 
ENDBRANCH   1  28
TORSDOF 4
ENDMDL
MODEL 6
REMARK VINA RESULT:      -6.7      5.328      7.679
REMARK  Name = 
REMARK  4 active torsions:
REMARK  status: ('A' for Active; 'I' for Inactive)
REMARK    1  A    between atoms: C_2  and  C_3
REMARK    2  A    between atoms: C_4  and  N_5
REMARK    3  A    between atoms: C_14  and  C_15
REMARK    4  A    between atoms: C_19  and  C_20
REMARK                            x       y       z     vdW  Elec       q    Type
REMARK                         _______ _______ _______ _____ _____    ______ ____
ROOT
ATOM      1  C   UNL     1      -0.138  12.518  20.123  0.00  0.00    +0.000 C 
ATOM      2  C   UNL     1      -1.163  13.286  20.553  0.00  0.00    +0.000 C 
ATOM      3  O   UNL     1      -2.471  13.043  20.150  0.00  0.00    +0.000 OA
ATOM      4  C   UNL     1      -2.756  12.047  19.232  0.00  0.00    +0.000 C 
ATOM      5  C   UNL     1      -1.803  11.237  18.739  0.00  0.00    +0.000 C 
ATOM      6  C   UNL     1      -2.174  10.208  17.724  0.00  0.00    +0.000 C 
ATOM      7  O   UNL     1      -1.307   9.522  17.186  0.00  0.00    +0.000 OA
ATOM      8  C   UNL     1      -3.642  10.002  17.416  0.00  0.00    +0.000 C 
ATOM      9  C   UNL     1      -4.395  11.320  17.475  0.00  0.00    +0.000 C 
ATOM     10  C   UNL     1      -4.201  12.000  18.825  0.00  0.00    +0.000 C 
ATOM     11  C   UNL     1      -0.363  11.357  19.165  0.00  0.00    +0.000 C 
ENDROOT
BRANCH  11  12
ATOM     12  C   UNL     1       0.184  10.057  19.753  0.00  0.00    +0.000 A 
ATOM     13  C   UNL     1      -0.186   9.609  21.029  0.00  0.00    +0.000 A 
ATOM     14  C   UNL     1       0.393   8.459  21.564  0.00  0.00    +0.000 A 
ATOM     15  C   UNL     1       1.351   7.750  20.835  0.00  0.00    +0.000 A 
ATOM     16  C   UNL     1       1.726   8.166  19.552  0.00  0.00    +0.000 A 
ATOM     17  C   UNL     1       1.129   9.318  19.019  0.00  0.00    +0.000 A 
BRANCH  16  18
ATOM     18  C   UNL     1       2.748   7.440  18.811  0.00  0.00    +0.000 A 
ATOM     19  N   UNL     1       3.343   7.793  17.686  0.00  0.00    +0.000 NA
ATOM     20  N   UNL     1       4.191   6.765  17.352  0.00  0.00    +0.000 NA
ATOM     21  N   UNL     1       4.152   5.803  18.261  0.00  0.00    +0.000 NA
ATOM     22  N   UNL     1       3.270   6.227  19.174  0.00  0.00    +0.000 N 
ATOM     23  H   UNL     1       3.083   5.663  19.992  0.00  0.00    +0.000 HD
ENDBRANCH  16  18
ENDBRANCH  11  12
BRANCH   2  24
ATOM     24  N   UNL     1      -1.058  14.357  21.407  0.00  0.00    +0.000 N 
ATOM     25  H   UNL     1      -1.052  15.276  20.967  0.00  0.00    +0.000 HD
ATOM     26  H   UNL     1      -0.321  14.236  22.098  0.00  0.00    +0.000 HD
ENDBRANCH   2  24
BRANCH   1  28
ATOM     27  N   UNL     1       2.286  12.979  20.902  0.00  0.00    +0.000 NA
ATOM     28  C   UNL     1       1.200  12.784  20.551  0.00  0.00    +0.000 C 
ENDBRANCH   1  28
TORSDOF 4
ENDMDL
MODEL 7
REMARK VINA RESULT:      -6.7      3.985      7.075
REMARK  Name = 
REMARK  4 active torsions:
REMARK  status: ('A' for Active; 'I' for Inactive)
REMARK    1  A    between atoms: C_2  and  C_3
REMARK    2  A    between atoms: C_4  and  N_5
REMARK    3  A    between atoms: C_14  and  C_15
REMARK    4  A    between atoms: C_19  and  C_20
REMARK                            x       y       z     vdW  Elec       q    Type
REMARK                         _______ _______ _______ _____ _____    ______ ____
ROOT
ATOM      1  C   UNL     1       3.025   4.440  19.117  0.00  0.00    +0.000 C 
ATOM      2  C   UNL     1       3.897   3.839  19.956  0.00  0.00    +0.000 C 
ATOM      3  O   UNL     1       5.229   4.232  20.023  0.00  0.00    +0.000 OA
ATOM      4  C   UNL     1       5.724   5.207  19.174  0.00  0.00    +0.000 C 
ATOM      5  C   UNL     1       4.937   5.856  18.297  0.00  0.00    +0.000 C 
ATOM      6  C   UNL     1       5.542   6.869  17.385  0.00  0.00    +0.000 C 
ATOM      7  O   UNL     1       4.865   7.404  16.510  0.00  0.00    +0.000 OA
ATOM      8  C   UNL     1       6.991   7.253  17.602  0.00  0.00    +0.000 C 
ATOM      9  C   UNL     1       7.804   6.051  18.053  0.00  0.00    +0.000 C 
ATOM     10  C   UNL     1       7.203   5.424  19.306  0.00  0.00    +0.000 C 
ATOM     11  C   UNL     1       3.462   5.568  18.193  0.00  0.00    +0.000 C 
ENDROOT
BRANCH  11  12
ATOM     12  C   UNL     1       2.605   6.813  18.418  0.00  0.00    +0.000 A 
ATOM     13  C   UNL     1       2.226   7.652  17.360  0.00  0.00    +0.000 A 
ATOM     14  C   UNL     1       1.509   8.821  17.614  0.00  0.00    +0.000 A 
ATOM     15  C   UNL     1       1.170   9.167  18.925  0.00  0.00    +0.000 A 
ATOM     16  C   UNL     1       1.521   8.338  19.997  0.00  0.00    +0.000 A 
ATOM     17  C   UNL     1       2.232   7.160  19.729  0.00  0.00    +0.000 A 
BRANCH  16  18
ATOM     18  C   UNL     1       1.191   8.721  21.363  0.00  0.00    +0.000 A 
ATOM     19  N   UNL     1      -0.005   8.896  21.892  0.00  0.00    +0.000 NA
ATOM     20  N   UNL     1       0.196   9.303  23.190  0.00  0.00    +0.000 NA
ATOM     21  N   UNL     1       1.488   9.353  23.476  0.00  0.00    +0.000 NA
ATOM     22  N   UNL     1       2.106   8.978  22.349  0.00  0.00    +0.000 N 
ATOM     23  H   UNL     1       3.114   8.916  22.326  0.00  0.00    +0.000 HD
ENDBRANCH  16  18
ENDBRANCH  11  12
BRANCH   2  24
ATOM     24  N   UNL     1       3.601   2.810  20.818  0.00  0.00    +0.000 N 
ATOM     25  H   UNL     1       3.864   2.957  21.791  0.00  0.00    +0.000 HD
ATOM     26  H   UNL     1       3.885   1.904  20.455  0.00  0.00    +0.000 HD
ENDBRANCH   2  24
BRANCH   1  28
ATOM     27  N   UNL     1       0.559   3.662  19.025  0.00  0.00    +0.000 NA
ATOM     28  C   UNL     1       1.659   4.021  19.065  0.00  0.00    +0.000 C 
ENDBRANCH   1  28
TORSDOF 4
ENDMDL
MODEL 8
REMARK VINA RESULT:      -6.5      6.883     10.607
REMARK  Name = 
REMARK  4 active torsions:
REMARK  status: ('A' for Active; 'I' for Inactive)
REMARK    1  A    between atoms: C_2  and  C_3
REMARK    2  A    between atoms: C_4  and  N_5
REMARK    3  A    between atoms: C_14  and  C_15
REMARK    4  A    between atoms: C_19  and  C_20
REMARK                            x       y       z     vdW  Elec       q    Type
REMARK                         _______ _______ _______ _____ _____    ______ ____
ROOT
ATOM      1  C   UNL     1       0.960  13.150  19.584  0.00  0.00    +0.000 C 
ATOM      2  C   UNL     1       1.541  12.324  18.686  0.00  0.00    +0.000 C 
ATOM      3  O   UNL     1       1.543  10.945  18.862  0.00  0.00    +0.000 OA
ATOM      4  C   UNL     1       1.012  10.376  20.007  0.00  0.00    +0.000 C 
ATOM      5  C   UNL     1       0.422  11.116  20.963  0.00  0.00    +0.000 C 
ATOM      6  C   UNL     1      -0.097  10.442  22.189  0.00  0.00    +0.000 C 
ATOM      7  O   UNL     1      -0.551  11.105  23.120  0.00  0.00    +0.000 OA
ATOM      8  C   UNL     1      -0.092   8.929  22.232  0.00  0.00    +0.000 C 
ATOM      9  C   UNL     1       1.127   8.374  21.515  0.00  0.00    +0.000 C 
ATOM     10  C   UNL     1       1.201   8.889  20.083  0.00  0.00    +0.000 C 
ATOM     11  C   UNL     1       0.292  12.612  20.841  0.00  0.00    +0.000 C 
ENDROOT
BRANCH  11  12
ATOM     12  C   UNL     1      -1.160  13.082  20.924  0.00  0.00    +0.000 A 
ATOM     13  C   UNL     1      -1.585  14.000  21.895  0.00  0.00    +0.000 A 
ATOM     14  C   UNL     1      -2.932  14.347  21.990  0.00  0.00    +0.000 A 
ATOM     15  C   UNL     1      -3.868  13.777  21.122  0.00  0.00    +0.000 A 
ATOM     16  C   UNL     1      -3.467  12.872  20.132  0.00  0.00    +0.000 A 
ATOM     17  C   UNL     1      -2.108  12.538  20.040  0.00  0.00    +0.000 A 
BRANCH  16  18
ATOM     18  C   UNL     1      -4.452  12.258  19.252  0.00  0.00    +0.000 A 
ATOM     19  N   UNL     1      -5.656  11.814  19.563  0.00  0.00    +0.000 NA
ATOM     20  N   UNL     1      -6.184  11.276  18.414  0.00  0.00    +0.000 NA
ATOM     21  N   UNL     1      -5.343  11.407  17.400  0.00  0.00    +0.000 NA
ATOM     22  N   UNL     1      -4.275  12.029  17.914  0.00  0.00    +0.000 N 
ATOM     23  H   UNL     1      -3.494  12.263  17.317  0.00  0.00    +0.000 HD
ENDBRANCH  16  18
ENDBRANCH  11  12
BRANCH   2  24
ATOM     24  N   UNL     1       2.175  12.715  17.531  0.00  0.00    +0.000 N 
ATOM     25  H   UNL     1       1.586  13.163  16.832  0.00  0.00    +0.000 HD
ATOM     26  H   UNL     1       2.772  11.986  17.148  0.00  0.00    +0.000 HD
ENDBRANCH   2  24
BRANCH   1  28
ATOM     27  N   UNL     1       0.995  15.710  19.213  0.00  0.00    +0.000 NA
ATOM     28  C   UNL     1       0.969  14.565  19.383  0.00  0.00    +0.000 C 
ENDBRANCH   1  28
TORSDOF 4
ENDMDL
MODEL 9
REMARK VINA RESULT:      -6.3      7.844     11.837
REMARK  Name = 
REMARK  4 active torsions:
REMARK  status: ('A' for Active; 'I' for Inactive)
REMARK    1  A    between atoms: C_2  and  C_3
REMARK    2  A    between atoms: C_4  and  N_5
REMARK    3  A    between atoms: C_14  and  C_15
REMARK    4  A    between atoms: C_19  and  C_20
REMARK                            x       y       z     vdW  Elec       q    Type
REMARK                         _______ _______ _______ _____ _____    ______ ____
ROOT
ATOM      1  C   UNL     1      -0.744  13.335  19.862  0.00  0.00    +0.000 C 
ATOM      2  C   UNL     1      -0.746  12.597  18.731  0.00  0.00    +0.000 C 
ATOM      3  O   UNL     1      -0.702  11.207  18.769  0.00  0.00    +0.000 OA
ATOM      4  C   UNL     1      -0.580  10.536  19.974  0.00  0.00    +0.000 C 
ATOM      5  C   UNL     1      -0.560  11.183  21.153  0.00  0.00    +0.000 C 
ATOM      6  C   UNL     1      -0.388  10.401  22.412  0.00  0.00    +0.000 C 
ATOM      7  O   UNL     1      -0.268  10.975  23.492  0.00  0.00    +0.000 OA
ATOM      8  C   UNL     1      -0.417   8.890  22.325  0.00  0.00    +0.000 C 
ATOM      9  C   UNL     1       0.231   8.412  21.036  0.00  0.00    +0.000 C 
ATOM     10  C   UNL     1      -0.433   9.050  19.822  0.00  0.00    +0.000 C 
ATOM     11  C   UNL     1      -0.680  12.683  21.236  0.00  0.00    +0.000 C 
ENDROOT
BRANCH  11  12
ATOM     12  C   UNL     1      -1.858  13.129  22.101  0.00  0.00    +0.000 A 
ATOM     13  C   UNL     1      -1.685  13.969  23.210  0.00  0.00    +0.000 A 
ATOM     14  C   UNL     1      -2.772  14.293  24.021  0.00  0.00    +0.000 A 
ATOM     15  C   UNL     1      -4.039  13.775  23.738  0.00  0.00    +0.000 A 
ATOM     16  C   UNL     1      -4.242  12.948  22.627  0.00  0.00    +0.000 A 
ATOM     17  C   UNL     1      -3.144  12.638  21.812  0.00  0.00    +0.000 A 
BRANCH  16  18
ATOM     18  C   UNL     1      -5.559  12.387  22.357  0.00  0.00    +0.000 A 
ATOM     19  N   UNL     1      -6.574  12.256  23.192  0.00  0.00    +0.000 NA
ATOM     20  N   UNL     1      -7.577  11.627  22.493  0.00  0.00    +0.000 NA
ATOM     21  N   UNL     1      -7.210  11.396  21.242  0.00  0.00    +0.000 NA
ATOM     22  N   UNL     1      -5.965  11.881  21.152  0.00  0.00    +0.000 N 
ATOM     23  H   UNL     1      -5.473  11.839  20.270  0.00  0.00    +0.000 HD
ENDBRANCH  16  18
ENDBRANCH  11  12
BRANCH   2  24
ATOM     24  N   UNL     1      -0.792  13.093  17.450  0.00  0.00    +0.000 N 
ATOM     25  H   UNL     1      -0.324  12.531  16.740  0.00  0.00    +0.000 HD
ATOM     26  H   UNL     1      -0.552  14.080  17.404  0.00  0.00    +0.000 HD
ENDBRANCH   2  24
BRANCH   1  28
ATOM     27  N   UNL     1      -0.838  15.917  19.729  0.00  0.00    +0.000 NA
ATOM     28  C   UNL     1      -0.791  14.763  19.799  0.00  0.00    +0.000 C 
ENDBRANCH   1  28
TORSDOF 4
ENDMDL
