MODEL 1
REMARK VINA RESULT:      -7.4      0.000      0.000
REMARK  Name = 
REMARK  5 active torsions:
REMARK  status: ('A' for Active; 'I' for Inactive)
REMARK    1  A    between atoms: C_2  and  C_3
REMARK    2  A    between atoms: C_3  and  C_13
REMARK    3  A    between atoms: C_4  and  C_5
REMARK    4  A    between atoms: C_8  and  N_9
REMARK    5  A    between atoms: C_16  and  C_17
REMARK                            x       y       z     vdW  Elec       q    Type
REMARK                         _______ _______ _______ _____ _____    ______ ____
ROOT
ATOM      1  C   UNL     1       3.855   5.694  18.766  0.00  0.00    +0.000 C 
ATOM      2  C   UNL     1       3.588   5.453  17.461  0.00  0.00    +0.000 C 
ENDROOT
BRANCH   1   3
ATOM      3  C   UNL     1       2.875   6.202  19.673  0.00  0.00    +0.000 A 
ATOM      4  N   UNL     1       2.266   5.487  20.633  0.00  0.00    +0.000 NA
ATOM      5  N   UNL     1       1.452   6.396  21.184  0.00  0.00    +0.000 N 
ATOM      6  C   UNL     1       1.566   7.616  20.580  0.00  0.00    +0.000 A 
ATOM      7  N   UNL     1       2.453   7.508  19.607  0.00  0.00    +0.000 NA
ATOM      8  H   UNL     1       0.830   6.117  21.934  0.00  0.00    +0.000 HD
BRANCH   6   9
ATOM      9  C   UNL     1       0.763   8.781  20.946  0.00  0.00    +0.000 A 
ATOM     10  C   UNL     1       0.435   9.773  20.008  0.00  0.00    +0.000 A 
ATOM     11  C   UNL     1      -0.284  10.907  20.395  0.00  0.00    +0.000 A 
ATOM     12  C   UNL     1      -0.684  11.061  21.720  0.00  0.00    +0.000 A 
ATOM     13  C   UNL     1      -0.384  10.073  22.655  0.00  0.00    +0.000 A 
ATOM     14  C   UNL     1       0.329   8.937  22.268  0.00  0.00    +0.000 A 
ENDBRANCH   6   9
ENDBRANCH   1   3
BRANCH   2  15
ATOM     15  C   UNL     1       4.555   4.935  16.552  0.00  0.00    +0.000 A 
ATOM     16  C   UNL     1       4.966   3.626  16.357  0.00  0.00    +0.000 A 
ATOM     17  C   UNL     1       5.970   3.505  15.347  0.00  0.00    +0.000 A 
ATOM     18  C   UNL     1       6.293   4.730  14.810  0.00  0.00    +0.000 A 
ATOM     19  S   UNL     1       5.415   6.005  15.509  0.00  0.00    +0.000 S 
BRANCH  18  20
ATOM     20  N   UNL     1       7.266   4.985  13.777  0.00  0.00    +0.000 N 
ATOM     21  O   UNL     1       7.052   4.453  12.680  0.00  0.00    +0.000 OA
ATOM     22  O   UNL     1       8.241   5.696  14.051  0.00  0.00    +0.000 OA
ENDBRANCH  18  20
ENDBRANCH   2  15
BRANCH   1  24
ATOM     23  N   UNL     1       6.421   5.160  19.695  0.00  0.00    +0.000 NA
ATOM     24  C   UNL     1       5.257   5.402  19.274  0.00  0.00    +0.000 C 
ENDBRANCH   1  24
TORSDOF 5
ENDMDL
MODEL 2
REMARK VINA RESULT:      -7.4      1.231      1.566
REMARK  Name = 
REMARK  5 active torsions:
REMARK  status: ('A' for Active; 'I' for Inactive)
REMARK    1  A    between atoms: C_2  and  C_3
REMARK    2  A    between atoms: C_3  and  C_13
REMARK    3  A    between atoms: C_4  and  C_5
REMARK    4  A    between atoms: C_8  and  N_9
REMARK    5  A    between atoms: C_16  and  C_17
REMARK                            x       y       z     vdW  Elec       q    Type
REMARK                         _______ _______ _______ _____ _____    ______ ____
ROOT
ATOM      1  C   UNL     1       3.459   5.601  18.545  0.00  0.00    +0.000 C 
ATOM      2  C   UNL     1       4.703   6.060  18.272  0.00  0.00    +0.000 C 
ENDROOT
BRANCH   1   3
ATOM      3  C   UNL     1       2.615   6.200  19.531  0.00  0.00    +0.000 A 
ATOM      4  N   UNL     1       2.054   5.551  20.565  0.00  0.00    +0.000 NA
ATOM      5  N   UNL     1       1.370   6.530  21.170  0.00  0.00    +0.000 N 
ATOM      6  C   UNL     1       1.513   7.727  20.526  0.00  0.00    +0.000 A 
ATOM      7  N   UNL     1       2.287   7.533  19.473  0.00  0.00    +0.000 NA
ATOM      8  H   UNL     1       0.807   6.314  21.984  0.00  0.00    +0.000 HD
BRANCH   6   9
ATOM      9  C   UNL     1       0.840   8.956  20.939  0.00  0.00    +0.000 A 
ATOM     10  C   UNL     1       0.769  10.076  20.095  0.00  0.00    +0.000 A 
ATOM     11  C   UNL     1       0.171  11.260  20.533  0.00  0.00    +0.000 A 
ATOM     12  C   UNL     1      -0.363  11.338  21.817  0.00  0.00    +0.000 A 
ATOM     13  C   UNL     1      -0.318  10.227  22.657  0.00  0.00    +0.000 A 
ATOM     14  C   UNL     1       0.274   9.041  22.217  0.00  0.00    +0.000 A 
ENDBRANCH   6   9
ENDBRANCH   1   3
BRANCH   2  15
ATOM     15  C   UNL     1       5.546   5.477  17.282  0.00  0.00    +0.000 A 
ATOM     16  C   UNL     1       6.579   4.565  17.434  0.00  0.00    +0.000 A 
ATOM     17  C   UNL     1       7.199   4.220  16.193  0.00  0.00    +0.000 A 
ATOM     18  C   UNL     1       6.616   4.884  15.138  0.00  0.00    +0.000 A 
ATOM     19  S   UNL     1       5.355   5.912  15.626  0.00  0.00    +0.000 S 
BRANCH  18  20
ATOM     20  N   UNL     1       6.989   4.781  13.749  0.00  0.00    +0.000 N 
ATOM     21  O   UNL     1       7.831   5.593  13.347  0.00  0.00    +0.000 OA
ATOM     22  O   UNL     1       6.444   3.911  13.057  0.00  0.00    +0.000 OA
ENDBRANCH  18  20
ENDBRANCH   2  15
BRANCH   1  24
ATOM     23  N   UNL     1       2.528   3.411  17.108  0.00  0.00    +0.000 NA
ATOM     24  C   UNL     1       2.950   4.404  17.760  0.00  0.00    +0.000 C 
ENDBRANCH   1  24
TORSDOF 5
ENDMDL
MODEL 3
REMARK VINA RESULT:      -7.3      1.281      1.772
REMARK  Name = 
REMARK  5 active torsions:
REMARK  status: ('A' for Active; 'I' for Inactive)
REMARK    1  A    between atoms: C_2  and  C_3
REMARK    2  A    between atoms: C_3  and  C_13
REMARK    3  A    between atoms: C_4  and  C_5
REMARK    4  A    between atoms: C_8  and  N_9
REMARK    5  A    between atoms: C_16  and  C_17
REMARK                            x       y       z     vdW  Elec       q    Type
REMARK                         _______ _______ _______ _____ _____    ______ ____
ROOT
ATOM      1  C   UNL     1       3.368   5.649  18.668  0.00  0.00    +0.000 C 
ATOM      2  C   UNL     1       4.618   6.116  18.441  0.00  0.00    +0.000 C 
ENDROOT
BRANCH   1   3
ATOM      3  C   UNL     1       2.489   6.232  19.631  0.00  0.00    +0.000 A 
ATOM      4  N   UNL     1       1.865   5.562  20.614  0.00  0.00    +0.000 NA
ATOM      5  N   UNL     1       1.171   6.534  21.218  0.00  0.00    +0.000 N 
ATOM      6  C   UNL     1       1.369   7.749  20.623  0.00  0.00    +0.000 A 
ATOM      7  N   UNL     1       2.190   7.573  19.603  0.00  0.00    +0.000 NA
ATOM      8  H   UNL     1       0.565   6.304  21.996  0.00  0.00    +0.000 HD
BRANCH   6   9
ATOM      9  C   UNL     1       0.701   8.978  21.044  0.00  0.00    +0.000 A 
ATOM     10  C   UNL     1       0.380   9.218  22.390  0.00  0.00    +0.000 A 
ATOM     11  C   UNL     1      -0.312  10.374  22.760  0.00  0.00    +0.000 A 
ATOM     12  C   UNL     1      -0.687  11.303  21.793  0.00  0.00    +0.000 A 
ATOM     13  C   UNL     1      -0.353  11.088  20.457  0.00  0.00    +0.000 A 
ATOM     14  C   UNL     1       0.343   9.935  20.087  0.00  0.00    +0.000 A 
ENDBRANCH   6   9
ENDBRANCH   1   3
BRANCH   2  15
ATOM     15  C   UNL     1       5.497   5.549  17.474  0.00  0.00    +0.000 A 
ATOM     16  C   UNL     1       6.517   4.627  17.647  0.00  0.00    +0.000 A 
ATOM     17  C   UNL     1       7.184   4.303  16.425  0.00  0.00    +0.000 A 
ATOM     18  C   UNL     1       6.649   4.994  15.362  0.00  0.00    +0.000 A 
ATOM     19  S   UNL     1       5.376   6.020  15.820  0.00  0.00    +0.000 S 
BRANCH  18  20
ATOM     20  N   UNL     1       7.077   4.918  13.987  0.00  0.00    +0.000 N 
ATOM     21  O   UNL     1       6.514   4.069  13.285  0.00  0.00    +0.000 OA
ATOM     22  O   UNL     1       7.971   5.685  13.607  0.00  0.00    +0.000 OA
ENDBRANCH  18  20
ENDBRANCH   2  15
BRANCH   1  24
ATOM     23  N   UNL     1       2.496   3.470  17.177  0.00  0.00    +0.000 NA
ATOM     24  C   UNL     1       2.892   4.458  17.853  0.00  0.00    +0.000 C 
ENDBRANCH   1  24
TORSDOF 5
ENDMDL
MODEL 4
REMARK VINA RESULT:      -7.3      0.067      1.197
REMARK  Name = 
REMARK  5 active torsions:
REMARK  status: ('A' for Active; 'I' for Inactive)
REMARK    1  A    between atoms: C_2  and  C_3
REMARK    2  A    between atoms: C_3  and  C_13
REMARK    3  A    between atoms: C_4  and  C_5
REMARK    4  A    between atoms: C_8  and  N_9
REMARK    5  A    between atoms: C_16  and  C_17
REMARK                            x       y       z     vdW  Elec       q    Type
REMARK                         _______ _______ _______ _____ _____    ______ ____
ROOT
ATOM      1  C   UNL     1       3.872   5.703  18.753  0.00  0.00    +0.000 C 
ATOM      2  C   UNL     1       3.601   5.463  17.449  0.00  0.00    +0.000 C 
ENDROOT
BRANCH   1   3
ATOM      3  C   UNL     1       2.896   6.212  19.664  0.00  0.00    +0.000 A 
ATOM      4  N   UNL     1       2.243   5.482  20.583  0.00  0.00    +0.000 NA
ATOM      5  N   UNL     1       1.454   6.399  21.158  0.00  0.00    +0.000 N 
ATOM      6  C   UNL     1       1.626   7.638  20.607  0.00  0.00    +0.000 A 
ATOM      7  N   UNL     1       2.526   7.534  19.645  0.00  0.00    +0.000 NA
ATOM      8  H   UNL     1       0.808   6.115  21.885  0.00  0.00    +0.000 HD
BRANCH   6   9
ATOM      9  C   UNL     1       0.862   8.818  21.007  0.00  0.00    +0.000 A 
ATOM     10  C   UNL     1       0.342   8.954  22.304  0.00  0.00    +0.000 A 
ATOM     11  C   UNL     1      -0.436  10.063  22.645  0.00  0.00    +0.000 A 
ATOM     12  C   UNL     1      -0.699  11.049  21.697  0.00  0.00    +0.000 A 
ATOM     13  C   UNL     1      -0.169  10.938  20.413  0.00  0.00    +0.000 A 
ATOM     14  C   UNL     1       0.613   9.831  20.073  0.00  0.00    +0.000 A 
ENDBRANCH   6   9
ENDBRANCH   1   3
BRANCH   2  15
ATOM     15  C   UNL     1       4.564   4.944  16.537  0.00  0.00    +0.000 A 
ATOM     16  C   UNL     1       4.965   3.633  16.333  0.00  0.00    +0.000 A 
ATOM     17  C   UNL     1       5.969   3.512  15.322  0.00  0.00    +0.000 A 
ATOM     18  C   UNL     1       6.299   4.739  14.792  0.00  0.00    +0.000 A 
ATOM     19  S   UNL     1       5.430   6.014  15.500  0.00  0.00    +0.000 S 
BRANCH  18  20
ATOM     20  N   UNL     1       7.273   4.993  13.761  0.00  0.00    +0.000 N 
ATOM     21  O   UNL     1       8.239   5.697  14.081  0.00  0.00    +0.000 OA
ATOM     22  O   UNL     1       7.080   4.510  12.638  0.00  0.00    +0.000 OA
ENDBRANCH  18  20
ENDBRANCH   2  15
BRANCH   1  24
ATOM     23  N   UNL     1       6.441   5.168  19.675  0.00  0.00    +0.000 NA
ATOM     24  C   UNL     1       5.276   5.410  19.256  0.00  0.00    +0.000 C 
ENDBRANCH   1  24
TORSDOF 5
ENDMDL
MODEL 5
REMARK VINA RESULT:      -7.1      2.099      3.228
REMARK  Name = 
REMARK  5 active torsions:
REMARK  status: ('A' for Active; 'I' for Inactive)
REMARK    1  A    between atoms: C_2  and  C_3
REMARK    2  A    between atoms: C_3  and  C_13
REMARK    3  A    between atoms: C_4  and  C_5
REMARK    4  A    between atoms: C_8  and  N_9
REMARK    5  A    between atoms: C_16  and  C_17
REMARK                            x       y       z     vdW  Elec       q    Type
REMARK                         _______ _______ _______ _____ _____    ______ ____
ROOT
ATOM      1  C   UNL     1       2.366   7.755  18.669  0.00  0.00    +0.000 C 
ATOM      2  C   UNL     1       3.235   7.641  17.638  0.00  0.00    +0.000 C 
ENDROOT
BRANCH   1   3
ATOM      3  C   UNL     1       1.495   8.877  18.825  0.00  0.00    +0.000 A 
ATOM      4  N   UNL     1       1.190   9.758  17.858  0.00  0.00    +0.000 NA
ATOM      5  N   UNL     1       0.367  10.599  18.497  0.00  0.00    +0.000 N 
ATOM      6  C   UNL     1       0.180  10.238  19.801  0.00  0.00    +0.000 A 
ATOM      7  N   UNL     1       0.902   9.156  20.032  0.00  0.00    +0.000 NA
ATOM      8  H   UNL     1      -0.001  11.405  18.005  0.00  0.00    +0.000 HD
BRANCH   6   9
ATOM      9  C   UNL     1      -0.632  11.002  20.746  0.00  0.00    +0.000 A 
ATOM     10  C   UNL     1      -0.557  10.778  22.131  0.00  0.00    +0.000 A 
ATOM     11  C   UNL     1      -1.385  11.479  23.010  0.00  0.00    +0.000 A 
ATOM     12  C   UNL     1      -2.294  12.412  22.518  0.00  0.00    +0.000 A 
ATOM     13  C   UNL     1      -2.363  12.660  21.148  0.00  0.00    +0.000 A 
ATOM     14  C   UNL     1      -1.531  11.964  20.269  0.00  0.00    +0.000 A 
ENDBRANCH   6   9
ENDBRANCH   1   3
BRANCH   2  15
ATOM     15  C   UNL     1       4.099   6.521  17.468  0.00  0.00    +0.000 A 
ATOM     16  C   UNL     1       3.781   5.181  17.318  0.00  0.00    +0.000 A 
ATOM     17  C   UNL     1       4.935   4.350  17.178  0.00  0.00    +0.000 A 
ATOM     18  C   UNL     1       6.095   5.089  17.229  0.00  0.00    +0.000 A 
ATOM     19  S   UNL     1       5.807   6.748  17.451  0.00  0.00    +0.000 S 
BRANCH  18  20
ATOM     20  N   UNL     1       7.441   4.581  17.126  0.00  0.00    +0.000 N 
ATOM     21  O   UNL     1       7.892   4.453  15.981  0.00  0.00    +0.000 OA
ATOM     22  O   UNL     1       8.044   4.300  18.170  0.00  0.00    +0.000 OA
ENDBRANCH  18  20
ENDBRANCH   2  15
BRANCH   1  24
ATOM     23  N   UNL     1       2.287   5.702  20.544  0.00  0.00    +0.000 NA
ATOM     24  C   UNL     1       2.322   6.633  19.694  0.00  0.00    +0.000 C 
ENDBRANCH   1  24
TORSDOF 5
ENDMDL
MODEL 6
REMARK VINA RESULT:      -7.1      2.118      3.164
REMARK  Name = 
REMARK  5 active torsions:
REMARK  status: ('A' for Active; 'I' for Inactive)
REMARK    1  A    between atoms: C_2  and  C_3
REMARK    2  A    between atoms: C_3  and  C_13
REMARK    3  A    between atoms: C_4  and  C_5
REMARK    4  A    between atoms: C_8  and  N_9
REMARK    5  A    between atoms: C_16  and  C_17
REMARK                            x       y       z     vdW  Elec       q    Type
REMARK                         _______ _______ _______ _____ _____    ______ ____
ROOT
ATOM      1  C   UNL     1       2.360   7.809  18.665  0.00  0.00    +0.000 C 
ATOM      2  C   UNL     1       3.224   7.683  17.631  0.00  0.00    +0.000 C 
ENDROOT
BRANCH   1   3
ATOM      3  C   UNL     1       1.499   8.939  18.819  0.00  0.00    +0.000 A 
ATOM      4  N   UNL     1       1.269   9.868  17.876  0.00  0.00    +0.000 NA
ATOM      5  N   UNL     1       0.422  10.696  18.501  0.00  0.00    +0.000 N 
ATOM      6  C   UNL     1       0.150  10.281  19.775  0.00  0.00    +0.000 A 
ATOM      7  N   UNL     1       0.839   9.177  19.999  0.00  0.00    +0.000 NA
ATOM      8  H   UNL     1       0.098  11.529  18.025  0.00  0.00    +0.000 HD
BRANCH   6   9
ATOM      9  C   UNL     1      -0.705  11.018  20.703  0.00  0.00    +0.000 A 
ATOM     10  C   UNL     1      -1.624  11.979  20.253  0.00  0.00    +0.000 A 
ATOM     11  C   UNL     1      -2.389  12.713  21.164  0.00  0.00    +0.000 A 
ATOM     12  C   UNL     1      -2.246  12.492  22.532  0.00  0.00    +0.000 A 
ATOM     13  C   UNL     1      -1.354  11.525  22.990  0.00  0.00    +0.000 A 
ATOM     14  C   UNL     1      -0.593  10.787  22.080  0.00  0.00    +0.000 A 
ENDBRANCH   6   9
ENDBRANCH   1   3
BRANCH   2  15
ATOM     15  C   UNL     1       4.077   6.554  17.464  0.00  0.00    +0.000 A 
ATOM     16  C   UNL     1       3.746   5.215  17.321  0.00  0.00    +0.000 A 
ATOM     17  C   UNL     1       4.892   4.374  17.180  0.00  0.00    +0.000 A 
ATOM     18  C   UNL     1       6.059   5.102  17.224  0.00  0.00    +0.000 A 
ATOM     19  S   UNL     1       5.787   6.765  17.440  0.00  0.00    +0.000 S 
BRANCH  18  20
ATOM     20  N   UNL     1       7.400   4.582  17.119  0.00  0.00    +0.000 N 
ATOM     21  O   UNL     1       7.968   4.314  18.186  0.00  0.00    +0.000 OA
ATOM     22  O   UNL     1       7.893   4.450  15.992  0.00  0.00    +0.000 OA
ENDBRANCH  18  20
ENDBRANCH   2  15
BRANCH   1  24
ATOM     23  N   UNL     1       2.268   5.766  20.549  0.00  0.00    +0.000 NA
ATOM     24  C   UNL     1       2.310   6.693  19.695  0.00  0.00    +0.000 C 
ENDBRANCH   1  24
TORSDOF 5
ENDMDL
MODEL 7
REMARK VINA RESULT:      -6.7      2.807      3.930
REMARK  Name = 
REMARK  5 active torsions:
REMARK  status: ('A' for Active; 'I' for Inactive)
REMARK    1  A    between atoms: C_2  and  C_3
REMARK    2  A    between atoms: C_3  and  C_13
REMARK    3  A    between atoms: C_4  and  C_5
REMARK    4  A    between atoms: C_8  and  N_9
REMARK    5  A    between atoms: C_16  and  C_17
REMARK                            x       y       z     vdW  Elec       q    Type
REMARK                         _______ _______ _______ _____ _____    ______ ____
ROOT
ATOM      1  C   UNL     1       2.420   8.151  18.289  0.00  0.00    +0.000 C 
ATOM      2  C   UNL     1       3.325   7.871  17.322  0.00  0.00    +0.000 C 
ENDROOT
BRANCH   1   3
ATOM      3  C   UNL     1       1.588   9.312  18.254  0.00  0.00    +0.000 A 
ATOM      4  N   UNL     1       2.028  10.573  18.115  0.00  0.00    +0.000 NA
ATOM      5  N   UNL     1       0.887  11.272  18.152  0.00  0.00    +0.000 N 
ATOM      6  C   UNL     1      -0.203  10.462  18.307  0.00  0.00    +0.000 A 
ATOM      7  N   UNL     1       0.225   9.215  18.392  0.00  0.00    +0.000 NA
ATOM      8  H   UNL     1       0.920  12.283  18.102  0.00  0.00    +0.000 HD
BRANCH   6   9
ATOM      9  C   UNL     1      -1.572  10.958  18.428  0.00  0.00    +0.000 A 
ATOM     10  C   UNL     1      -1.933  11.895  19.409  0.00  0.00    +0.000 A 
ATOM     11  C   UNL     1      -3.260  12.309  19.543  0.00  0.00    +0.000 A 
ATOM     12  C   UNL     1      -4.240  11.795  18.697  0.00  0.00    +0.000 A 
ATOM     13  C   UNL     1      -3.892  10.882  17.704  0.00  0.00    +0.000 A 
ATOM     14  C   UNL     1      -2.564  10.471  17.567  0.00  0.00    +0.000 A 
ENDBRANCH   6   9
ENDBRANCH   1   3
BRANCH   2  15
ATOM     15  C   UNL     1       4.150   6.709  17.341  0.00  0.00    +0.000 A 
ATOM     16  C   UNL     1       3.787   5.374  17.423  0.00  0.00    +0.000 A 
ATOM     17  C   UNL     1       4.913   4.493  17.421  0.00  0.00    +0.000 A 
ATOM     18  C   UNL     1       6.097   5.191  17.340  0.00  0.00    +0.000 A 
ATOM     19  S   UNL     1       5.865   6.872  17.278  0.00  0.00    +0.000 S 
BRANCH  18  20
ATOM     20  N   UNL     1       7.424   4.628  17.319  0.00  0.00    +0.000 N 
ATOM     21  O   UNL     1       7.922   4.440  16.202  0.00  0.00    +0.000 OA
ATOM     22  O   UNL     1       7.967   4.363  18.400  0.00  0.00    +0.000 OA
ENDBRANCH  18  20
ENDBRANCH   2  15
BRANCH   1  24
ATOM     23  N   UNL     1       2.184   6.373  20.414  0.00  0.00    +0.000 NA
ATOM     24  C   UNL     1       2.291   7.179  19.450  0.00  0.00    +0.000 C 
ENDBRANCH   1  24
TORSDOF 5
ENDMDL
MODEL 8
REMARK VINA RESULT:      -6.7      2.816      3.852
REMARK  Name = 
REMARK  5 active torsions:
REMARK  status: ('A' for Active; 'I' for Inactive)
REMARK    1  A    between atoms: C_2  and  C_3
REMARK    2  A    between atoms: C_3  and  C_13
REMARK    3  A    between atoms: C_4  and  C_5
REMARK    4  A    between atoms: C_8  and  N_9
REMARK    5  A    between atoms: C_16  and  C_17
REMARK                            x       y       z     vdW  Elec       q    Type
REMARK                         _______ _______ _______ _____ _____    ______ ____
ROOT
ATOM      1  C   UNL     1       2.372   8.053  18.314  0.00  0.00    +0.000 C 
ATOM      2  C   UNL     1       3.262   7.789  17.329  0.00  0.00    +0.000 C 
ENDROOT
BRANCH   1   3
ATOM      3  C   UNL     1       1.516   9.197  18.294  0.00  0.00    +0.000 A 
ATOM      4  N   UNL     1       1.931  10.473  18.235  0.00  0.00    +0.000 NA
ATOM      5  N   UNL     1       0.773  11.144  18.250  0.00  0.00    +0.000 N 
ATOM      6  C   UNL     1      -0.304  10.304  18.313  0.00  0.00    +0.000 A 
ATOM      7  N   UNL     1       0.150   9.064  18.360  0.00  0.00    +0.000 NA
ATOM      8  H   UNL     1       0.785  12.157  18.248  0.00  0.00    +0.000 HD
BRANCH   6   9
ATOM      9  C   UNL     1      -1.688  10.764  18.390  0.00  0.00    +0.000 A 
ATOM     10  C   UNL     1      -2.685  10.244  17.549  0.00  0.00    +0.000 A 
ATOM     11  C   UNL     1      -3.989  10.742  17.600  0.00  0.00    +0.000 A 
ATOM     12  C   UNL     1      -4.313  11.760  18.494  0.00  0.00    +0.000 A 
ATOM     13  C   UNL     1      -3.339  12.268  19.351  0.00  0.00    +0.000 A 
ATOM     14  C   UNL     1      -2.036  11.768  19.303  0.00  0.00    +0.000 A 
ENDBRANCH   6   9
ENDBRANCH   1   3
BRANCH   2  15
ATOM     15  C   UNL     1       4.112   6.645  17.335  0.00  0.00    +0.000 A 
ATOM     16  C   UNL     1       3.777   5.302  17.401  0.00  0.00    +0.000 A 
ATOM     17  C   UNL     1       4.921   4.445  17.388  0.00  0.00    +0.000 A 
ATOM     18  C   UNL     1       6.090   5.168  17.315  0.00  0.00    +0.000 A 
ATOM     19  S   UNL     1       5.823   6.845  17.273  0.00  0.00    +0.000 S 
BRANCH  18  20
ATOM     20  N   UNL     1       7.429   4.634  17.288  0.00  0.00    +0.000 N 
ATOM     21  O   UNL     1       7.921   4.447  16.168  0.00  0.00    +0.000 OA
ATOM     22  O   UNL     1       7.986   4.389  18.366  0.00  0.00    +0.000 OA
ENDBRANCH  18  20
ENDBRANCH   2  15
BRANCH   1  24
ATOM     23  N   UNL     1       2.217   6.277  20.448  0.00  0.00    +0.000 NA
ATOM     24  C   UNL     1       2.288   7.083  19.481  0.00  0.00    +0.000 C 
ENDBRANCH   1  24
TORSDOF 5
ENDMDL
MODEL 9
REMARK VINA RESULT:      -6.7      1.781      2.690
REMARK  Name = 
REMARK  5 active torsions:
REMARK  status: ('A' for Active; 'I' for Inactive)
REMARK    1  A    between atoms: C_2  and  C_3
REMARK    2  A    between atoms: C_3  and  C_13
REMARK    3  A    between atoms: C_4  and  C_5
REMARK    4  A    between atoms: C_8  and  N_9
REMARK    5  A    between atoms: C_16  and  C_17
REMARK                            x       y       z     vdW  Elec       q    Type
REMARK                         _______ _______ _______ _____ _____    ______ ____
ROOT
ATOM      1  C   UNL     1       2.803   7.465  18.087  0.00  0.00    +0.000 C 
ATOM      2  C   UNL     1       4.028   7.736  17.580  0.00  0.00    +0.000 C 
ENDROOT
BRANCH   1   3
ATOM      3  C   UNL     1       1.909   8.487  18.532  0.00  0.00    +0.000 A 
ATOM      4  N   UNL     1       1.424   9.478  17.765  0.00  0.00    +0.000 NA
ATOM      5  N   UNL     1       0.662  10.155  18.633  0.00  0.00    +0.000 N 
ATOM      6  C   UNL     1       0.683   9.593  19.878  0.00  0.00    +0.000 A 
ATOM      7  N   UNL     1       1.484   8.543  19.837  0.00  0.00    +0.000 NA
ATOM      8  H   UNL     1       0.187  10.996  18.327  0.00  0.00    +0.000 HD
BRANCH   6   9
ATOM      9  C   UNL     1      -0.019  10.149  21.032  0.00  0.00    +0.000 A 
ATOM     10  C   UNL     1      -0.049   9.483  22.268  0.00  0.00    +0.000 A 
ATOM     11  C   UNL     1      -0.777  10.005  23.340  0.00  0.00    +0.000 A 
ATOM     12  C   UNL     1      -1.479  11.199  23.190  0.00  0.00    +0.000 A 
ATOM     13  C   UNL     1      -1.439  11.881  21.976  0.00  0.00    +0.000 A 
ATOM     14  C   UNL     1      -0.707  11.362  20.906  0.00  0.00    +0.000 A 
ENDBRANCH   6   9
ENDBRANCH   1   3
BRANCH   2  15
ATOM     15  C   UNL     1       4.922   6.725  17.123  0.00  0.00    +0.000 A 
ATOM     16  C   UNL     1       5.654   5.802  17.854  0.00  0.00    +0.000 A 
ATOM     17  C   UNL     1       6.448   4.947  17.029  0.00  0.00    +0.000 A 
ATOM     18  C   UNL     1       6.294   5.251  15.695  0.00  0.00    +0.000 A 
ATOM     19  S   UNL     1       5.225   6.545  15.436  0.00  0.00    +0.000 S 
BRANCH  18  20
ATOM     20  N   UNL     1       6.945   4.598  14.586  0.00  0.00    +0.000 N 
ATOM     21  O   UNL     1       7.951   5.160  14.134  0.00  0.00    +0.000 OA
ATOM     22  O   UNL     1       6.459   3.544  14.157  0.00  0.00    +0.000 OA
ENDBRANCH  18  20
ENDBRANCH   2  15
BRANCH   1  24
ATOM     23  N   UNL     1       2.013   4.804  18.246  0.00  0.00    +0.000 NA
ATOM     24  C   UNL     1       2.371   6.011  18.175  0.00  0.00    +0.000 C 
ENDBRANCH   1  24
TORSDOF 5
ENDMDL
