MODEL 1
REMARK VINA RESULT:      -7.0      0.000      0.000
REMARK  Name = 
REMARK  18 active torsions:
REMARK  status: ('A' for Active; 'I' for Inactive)
REMARK    1  A    between atoms: C_1  and  C_2
REMARK    2  A    between atoms: C_2  and  C_3
REMARK    3  A    between atoms: C_2  and  C_4
REMARK    4  A    between atoms: C_2  and  C_5
REMARK    5  A    between atoms: C_8  and  C_9
REMARK    6  A    between atoms: C_9  and  C_10
REMARK    7  A    between atoms: C_10  and  C_11
REMARK    8  A    between atoms: C_10  and  C_13
REMARK    9  A    between atoms: C_10  and  C_24
REMARK   10  A    between atoms: C_11  and  N_12
REMARK   11  A    between atoms: C_13  and  C_14
REMARK   12  A    between atoms: C_17  and  C_18
REMARK   13  A    between atoms: C_18  and  C_19
REMARK   14  A    between atoms: C_18  and  C_20
REMARK   15  A    between atoms: C_18  and  C_21
REMARK   16  A    between atoms: N_26  and  C_27
REMARK   17  A    between atoms: C_27  and  C_28
REMARK   18  A    between atoms: C_28  and  N_29
REMARK                            x       y       z     vdW  Elec       q    Type
REMARK                         _______ _______ _______ _____ _____    ______ ____
ROOT
ATOM      1  C   UNL     1       0.692  12.083  19.406  0.00  0.00    +0.000 C 
ENDROOT
BRANCH   1   2
ATOM      2  C   UNL     1       0.905  13.090  20.554  0.00  0.00    +0.000 C 
ATOM      3  O   UNL     1       0.821  12.794  21.745  0.00  0.00    +0.000 OA
ATOM      4  N   UNL     1       1.149  14.394  20.173  0.00  0.00    +0.000 N 
ATOM      5  H   UNL     1       1.182  14.671  19.210  0.00  0.00    +0.000 HD
BRANCH   4   6
ATOM      6  C   UNL     1       1.287  15.454  21.167  0.00  0.00    +0.000 C 
BRANCH   6   7
ATOM      7  C   UNL     1       2.754  15.716  21.493  0.00  0.00    +0.000 C 
BRANCH   7   8
ATOM      8  N   UNL     1       3.215  14.852  22.590  0.00  0.00    +0.000 NA
ATOM      9  H   UNL     1       2.771  15.167  23.449  0.00  0.00    +0.000 HD
ATOM     10  H   UNL     1       4.220  15.004  22.722  0.00  0.00    +0.000 HD
ENDBRANCH   7   8
ENDBRANCH   6   7
ENDBRANCH   4   6
ENDBRANCH   1   2
BRANCH   1  11
ATOM     11  C   UNL     1       0.294  10.647  19.905  0.00  0.00    +0.000 C 
BRANCH  11  15
ATOM     12  C   UNL     1       2.549   7.060  18.675  0.00  0.00    +0.000 A 
ATOM     13  C   UNL     1       2.161   7.296  20.001  0.00  0.00    +0.000 A 
ATOM     14  C   UNL     1       1.441   8.441  20.371  0.00  0.00    +0.000 A 
ATOM     15  C   UNL     1       1.092   9.428  19.445  0.00  0.00    +0.000 A 
ATOM     16  C   UNL     1       1.447   9.192  18.111  0.00  0.00    +0.000 A 
ATOM     17  C   UNL     1       2.169   8.036  17.736  0.00  0.00    +0.000 A 
BRANCH  12  19
ATOM     18  C   UNL     1       2.416   4.649  17.774  0.00  0.00    +0.000 C 
ATOM     19  C   UNL     1       3.336   5.796  18.259  0.00  0.00    +0.000 C 
ATOM     20  C   UNL     1       4.152   5.231  19.444  0.00  0.00    +0.000 C 
ATOM     21  C   UNL     1       4.321   6.123  17.115  0.00  0.00    +0.000 C 
ENDBRANCH  12  19
ENDBRANCH  11  15
ENDBRANCH   1  11
BRANCH   1  22
ATOM     22  C   UNL     1       2.031  12.021  18.603  0.00  0.00    +0.000 C 
BRANCH  22  23
ATOM     23  N   UNL     1       2.171  12.994  17.514  0.00  0.00    +0.000 NA
ATOM     24  H   UNL     1       2.397  13.911  17.898  0.00  0.00    +0.000 HD
ATOM     25  H   UNL     1       1.262  13.120  17.063  0.00  0.00    +0.000 HD
ENDBRANCH  22  23
ENDBRANCH   1  22
BRANCH   1  26
ATOM     26  C   UNL     1      -0.451  12.684  18.510  0.00  0.00    +0.000 C 
BRANCH  26  27
ATOM     27  C   UNL     1      -1.903  12.255  18.730  0.00  0.00    +0.000 A 
ATOM     28  C   UNL     1      -2.650  12.692  19.836  0.00  0.00    +0.000 A 
ATOM     29  C   UNL     1      -4.037  12.486  19.918  0.00  0.00    +0.000 A 
ATOM     30  C   UNL     1      -4.741  11.859  18.884  0.00  0.00    +0.000 A 
ATOM     31  C   UNL     1      -3.968  11.326  17.832  0.00  0.00    +0.000 A 
ATOM     32  C   UNL     1      -2.577  11.520  17.756  0.00  0.00    +0.000 A 
BRANCH  30  33
ATOM     33  C   UNL     1      -6.282  11.827  18.819  0.00  0.00    +0.000 C 
ATOM     34  C   UNL     1      -6.884  12.449  17.535  0.00  0.00    +0.000 C 
ATOM     35  C   UNL     1      -6.750  10.349  18.834  0.00  0.00    +0.000 C 
ATOM     36  C   UNL     1      -6.894  12.594  20.007  0.00  0.00    +0.000 C 
ENDBRANCH  30  33
ENDBRANCH  26  27
ENDBRANCH   1  26
TORSDOF 12
ENDMDL
MODEL 2
REMARK VINA RESULT:      -6.8      2.665      8.562
REMARK  Name = 
REMARK  18 active torsions:
REMARK  status: ('A' for Active; 'I' for Inactive)
REMARK    1  A    between atoms: C_1  and  C_2
REMARK    2  A    between atoms: C_2  and  C_3
REMARK    3  A    between atoms: C_2  and  C_4
REMARK    4  A    between atoms: C_2  and  C_5
REMARK    5  A    between atoms: C_8  and  C_9
REMARK    6  A    between atoms: C_9  and  C_10
REMARK    7  A    between atoms: C_10  and  C_11
REMARK    8  A    between atoms: C_10  and  C_13
REMARK    9  A    between atoms: C_10  and  C_24
REMARK   10  A    between atoms: C_11  and  N_12
REMARK   11  A    between atoms: C_13  and  C_14
REMARK   12  A    between atoms: C_17  and  C_18
REMARK   13  A    between atoms: C_18  and  C_19
REMARK   14  A    between atoms: C_18  and  C_20
REMARK   15  A    between atoms: C_18  and  C_21
REMARK   16  A    between atoms: N_26  and  C_27
REMARK   17  A    between atoms: C_27  and  C_28
REMARK   18  A    between atoms: C_28  and  N_29
REMARK                            x       y       z     vdW  Elec       q    Type
REMARK                         _______ _______ _______ _____ _____    ______ ____
ROOT
ATOM      1  C   UNL     1       0.788  11.091  19.293  0.00  0.00    +0.000 C 
ENDROOT
BRANCH   1   2
ATOM      2  C   UNL     1      -0.478  11.541  18.538  0.00  0.00    +0.000 C 
ATOM      3  O   UNL     1      -0.631  12.670  18.075  0.00  0.00    +0.000 OA
ATOM      4  N   UNL     1      -1.489  10.605  18.447  0.00  0.00    +0.000 N 
ATOM      5  H   UNL     1      -1.407   9.691  18.850  0.00  0.00    +0.000 HD
BRANCH   4   6
ATOM      6  C   UNL     1      -2.767  10.937  17.827  0.00  0.00    +0.000 C 
BRANCH   6   7
ATOM      7  C   UNL     1      -2.812  10.475  16.374  0.00  0.00    +0.000 C 
BRANCH   7   8
ATOM      8  N   UNL     1      -3.169  11.584  15.476  0.00  0.00    +0.000 NA
ATOM      9  H   UNL     1      -2.576  11.528  14.653  0.00  0.00    +0.000 HD
ATOM     10  H   UNL     1      -2.924  12.466  15.938  0.00  0.00    +0.000 HD
ENDBRANCH   7   8
ENDBRANCH   6   7
ENDBRANCH   4   6
ENDBRANCH   1   2
BRANCH   1  11
ATOM     11  C   UNL     1       1.048  11.906  20.612  0.00  0.00    +0.000 C 
BRANCH  11  15
ATOM     12  C   UNL     1      -2.333  13.245  23.110  0.00  0.00    +0.000 A 
ATOM     13  C   UNL     1      -1.925  11.905  23.038  0.00  0.00    +0.000 A 
ATOM     14  C   UNL     1      -0.846  11.501  22.240  0.00  0.00    +0.000 A 
ATOM     15  C   UNL     1      -0.129  12.403  21.449  0.00  0.00    +0.000 A 
ATOM     16  C   UNL     1      -0.506  13.749  21.533  0.00  0.00    +0.000 A 
ATOM     17  C   UNL     1      -1.591  14.160  22.341  0.00  0.00    +0.000 A 
BRANCH  12  19
ATOM     18  C   UNL     1      -4.590  14.487  23.203  0.00  0.00    +0.000 C 
ATOM     19  C   UNL     1      -3.517  13.699  23.993  0.00  0.00    +0.000 C 
ATOM     20  C   UNL     1      -3.041  14.630  25.132  0.00  0.00    +0.000 C 
ATOM     21  C   UNL     1      -4.213  12.478  24.636  0.00  0.00    +0.000 C 
ENDBRANCH  12  19
ENDBRANCH  11  15
ENDBRANCH   1  11
BRANCH   1  22
ATOM     22  C   UNL     1       1.989  11.264  18.309  0.00  0.00    +0.000 C 
BRANCH  22  23
ATOM     23  N   UNL     1       2.228  12.627  17.822  0.00  0.00    +0.000 NA
ATOM     24  H   UNL     1       1.339  13.078  17.610  0.00  0.00    +0.000 HD
ATOM     25  H   UNL     1       2.712  12.577  16.923  0.00  0.00    +0.000 HD
ENDBRANCH  22  23
ENDBRANCH   1  22
BRANCH   1  26
ATOM     26  C   UNL     1       0.575   9.570  19.628  0.00  0.00    +0.000 C 
BRANCH  26  27
ATOM     27  C   UNL     1       1.657   8.548  19.276  0.00  0.00    +0.000 A 
ATOM     28  C   UNL     1       1.998   7.496  20.140  0.00  0.00    +0.000 A 
ATOM     29  C   UNL     1       2.822   6.435  19.725  0.00  0.00    +0.000 A 
ATOM     30  C   UNL     1       3.316   6.369  18.418  0.00  0.00    +0.000 A 
ATOM     31  C   UNL     1       3.061   7.483  17.594  0.00  0.00    +0.000 A 
ATOM     32  C   UNL     1       2.248   8.552  18.013  0.00  0.00    +0.000 A 
BRANCH  30  33
ATOM     33  C   UNL     1       4.016   5.117  17.850  0.00  0.00    +0.000 C 
ATOM     34  C   UNL     1       3.056   3.973  17.444  0.00  0.00    +0.000 C 
ATOM     35  C   UNL     1       4.774   5.514  16.558  0.00  0.00    +0.000 C 
ATOM     36  C   UNL     1       4.993   4.523  18.883  0.00  0.00    +0.000 C 
ENDBRANCH  30  33
ENDBRANCH  26  27
ENDBRANCH   1  26
TORSDOF 12
ENDMDL
MODEL 3
REMARK VINA RESULT:      -6.7      2.082      3.162
REMARK  Name = 
REMARK  18 active torsions:
REMARK  status: ('A' for Active; 'I' for Inactive)
REMARK    1  A    between atoms: C_1  and  C_2
REMARK    2  A    between atoms: C_2  and  C_3
REMARK    3  A    between atoms: C_2  and  C_4
REMARK    4  A    between atoms: C_2  and  C_5
REMARK    5  A    between atoms: C_8  and  C_9
REMARK    6  A    between atoms: C_9  and  C_10
REMARK    7  A    between atoms: C_10  and  C_11
REMARK    8  A    between atoms: C_10  and  C_13
REMARK    9  A    between atoms: C_10  and  C_24
REMARK   10  A    between atoms: C_11  and  N_12
REMARK   11  A    between atoms: C_13  and  C_14
REMARK   12  A    between atoms: C_17  and  C_18
REMARK   13  A    between atoms: C_18  and  C_19
REMARK   14  A    between atoms: C_18  and  C_20
REMARK   15  A    between atoms: C_18  and  C_21
REMARK   16  A    between atoms: N_26  and  C_27
REMARK   17  A    between atoms: C_27  and  C_28
REMARK   18  A    between atoms: C_28  and  N_29
REMARK                            x       y       z     vdW  Elec       q    Type
REMARK                         _______ _______ _______ _____ _____    ______ ____
ROOT
ATOM      1  C   UNL     1       0.853  10.550  19.026  0.00  0.00    +0.000 C 
ENDROOT
BRANCH   1   2
ATOM      2  C   UNL     1       0.673  10.910  20.514  0.00  0.00    +0.000 C 
ATOM      3  O   UNL     1       1.305  11.800  21.082  0.00  0.00    +0.000 OA
ATOM      4  N   UNL     1      -0.221  10.129  21.219  0.00  0.00    +0.000 N 
ATOM      5  H   UNL     1      -0.720   9.372  20.791  0.00  0.00    +0.000 HD
BRANCH   4   6
ATOM      6  C   UNL     1      -0.418  10.319  22.652  0.00  0.00    +0.000 C 
BRANCH   6   7
ATOM      7  C   UNL     1       0.401   9.315  23.458  0.00  0.00    +0.000 C 
BRANCH   7   8
ATOM      8  N   UNL     1       1.826   9.387  23.101  0.00  0.00    +0.000 NA
ATOM      9  H   UNL     1       1.903   9.840  22.195  0.00  0.00    +0.000 HD
ATOM     10  H   UNL     1       2.174   8.432  22.966  0.00  0.00    +0.000 HD
ENDBRANCH   7   8
ENDBRANCH   6   7
ENDBRANCH   4   6
ENDBRANCH   1   2
BRANCH   1  11
ATOM     11  C   UNL     1       2.126   9.672  18.749  0.00  0.00    +0.000 C 
BRANCH  11  15
ATOM     12  C   UNL     1       2.088   5.303  19.364  0.00  0.00    +0.000 A 
ATOM     13  C   UNL     1       2.343   5.893  18.118  0.00  0.00    +0.000 A 
ATOM     14  C   UNL     1       2.353   7.284  17.944  0.00  0.00    +0.000 A 
ATOM     15  C   UNL     1       2.085   8.164  18.996  0.00  0.00    +0.000 A 
ATOM     16  C   UNL     1       1.858   7.591  20.253  0.00  0.00    +0.000 A 
ATOM     17  C   UNL     1       1.851   6.189  20.431  0.00  0.00    +0.000 A 
BRANCH  12  19
ATOM     18  C   UNL     1       3.504   3.181  19.733  0.00  0.00    +0.000 C 
ATOM     19  C   UNL     1       2.082   3.771  19.564  0.00  0.00    +0.000 C 
ATOM     20  C   UNL     1       1.452   3.050  18.350  0.00  0.00    +0.000 C 
ATOM     21  C   UNL     1       1.266   3.391  20.819  0.00  0.00    +0.000 C 
ENDBRANCH  12  19
ENDBRANCH  11  15
ENDBRANCH   1  11
BRANCH   1  22
ATOM     22  C   UNL     1       0.949  11.898  18.241  0.00  0.00    +0.000 C 
BRANCH  22  23
ATOM     23  N   UNL     1       2.238  12.176  17.600  0.00  0.00    +0.000 NA
ATOM     24  H   UNL     1       2.678  12.981  18.045  0.00  0.00    +0.000 HD
ATOM     25  H   UNL     1       2.071  12.475  16.636  0.00  0.00    +0.000 HD
ENDBRANCH  22  23
ENDBRANCH   1  22
BRANCH   1  26
ATOM     26  C   UNL     1      -0.447   9.771  18.609  0.00  0.00    +0.000 C 
BRANCH  26  27
ATOM     27  C   UNL     1      -1.744  10.534  18.336  0.00  0.00    +0.000 A 
ATOM     28  C   UNL     1      -2.667  10.111  17.366  0.00  0.00    +0.000 A 
ATOM     29  C   UNL     1      -3.951  10.674  17.273  0.00  0.00    +0.000 A 
ATOM     30  C   UNL     1      -4.377  11.665  18.166  0.00  0.00    +0.000 A 
ATOM     31  C   UNL     1      -3.407  12.159  19.062  0.00  0.00    +0.000 A 
ATOM     32  C   UNL     1      -2.118  11.606  19.146  0.00  0.00    +0.000 A 
BRANCH  30  33
ATOM     33  C   UNL     1      -5.842  12.136  18.257  0.00  0.00    +0.000 C 
ATOM     34  C   UNL     1      -6.873  10.996  18.446  0.00  0.00    +0.000 C 
ATOM     35  C   UNL     1      -5.993  13.056  19.495  0.00  0.00    +0.000 C 
ATOM     36  C   UNL     1      -6.253  12.890  16.977  0.00  0.00    +0.000 C 
ENDBRANCH  30  33
ENDBRANCH  26  27
ENDBRANCH   1  26
TORSDOF 12
ENDMDL
MODEL 4
REMARK VINA RESULT:      -6.7      1.890      7.921
REMARK  Name = 
REMARK  18 active torsions:
REMARK  status: ('A' for Active; 'I' for Inactive)
REMARK    1  A    between atoms: C_1  and  C_2
REMARK    2  A    between atoms: C_2  and  C_3
REMARK    3  A    between atoms: C_2  and  C_4
REMARK    4  A    between atoms: C_2  and  C_5
REMARK    5  A    between atoms: C_8  and  C_9
REMARK    6  A    between atoms: C_9  and  C_10
REMARK    7  A    between atoms: C_10  and  C_11
REMARK    8  A    between atoms: C_10  and  C_13
REMARK    9  A    between atoms: C_10  and  C_24
REMARK   10  A    between atoms: C_11  and  N_12
REMARK   11  A    between atoms: C_13  and  C_14
REMARK   12  A    between atoms: C_17  and  C_18
REMARK   13  A    between atoms: C_18  and  C_19
REMARK   14  A    between atoms: C_18  and  C_20
REMARK   15  A    between atoms: C_18  and  C_21
REMARK   16  A    between atoms: N_26  and  C_27
REMARK   17  A    between atoms: C_27  and  C_28
REMARK   18  A    between atoms: C_28  and  N_29
REMARK                            x       y       z     vdW  Elec       q    Type
REMARK                         _______ _______ _______ _____ _____    ______ ____
ROOT
ATOM      1  C   UNL     1       1.025  10.226  19.002  0.00  0.00    +0.000 C 
ENDROOT
BRANCH   1   2
ATOM      2  C   UNL     1       1.626  11.614  18.702  0.00  0.00    +0.000 C 
ATOM      3  O   UNL     1       2.573  11.797  17.939  0.00  0.00    +0.000 OA
ATOM      4  N   UNL     1       1.068  12.673  19.390  0.00  0.00    +0.000 N 
ATOM      5  H   UNL     1       0.322  12.548  20.048  0.00  0.00    +0.000 HD
BRANCH   4   6
ATOM      6  C   UNL     1       1.602  14.023  19.252  0.00  0.00    +0.000 C 
BRANCH   6   7
ATOM      7  C   UNL     1       0.531  15.071  19.541  0.00  0.00    +0.000 C 
BRANCH   7   8
ATOM      8  N   UNL     1      -0.694  14.800  18.775  0.00  0.00    +0.000 NA
ATOM      9  H   UNL     1      -1.300  14.214  19.342  0.00  0.00    +0.000 HD
ATOM     10  H   UNL     1      -0.446  14.236  17.956  0.00  0.00    +0.000 HD
ENDBRANCH   7   8
ENDBRANCH   6   7
ENDBRANCH   4   6
ENDBRANCH   1   2
BRANCH   1  11
ATOM     11  C   UNL     1      -0.083   9.793  17.976  0.00  0.00    +0.000 C 
BRANCH  11  15
ATOM     12  C   UNL     1      -4.203  11.348  18.250  0.00  0.00    +0.000 A 
ATOM     13  C   UNL     1      -3.842  10.297  17.394  0.00  0.00    +0.000 A 
ATOM     14  C   UNL     1      -2.527   9.816  17.324  0.00  0.00    +0.000 A 
ATOM     15  C   UNL     1      -1.494  10.371  18.084  0.00  0.00    +0.000 A 
ATOM     16  C   UNL     1      -1.844  11.401  18.965  0.00  0.00    +0.000 A 
ATOM     17  C   UNL     1      -3.170  11.885  19.040  0.00  0.00    +0.000 A 
BRANCH  12  19
ATOM     18  C   UNL     1      -6.696  10.748  18.508  0.00  0.00    +0.000 C 
ATOM     19  C   UNL     1      -5.652  11.878  18.337  0.00  0.00    +0.000 C 
ATOM     20  C   UNL     1      -6.045  12.646  17.054  0.00  0.00    +0.000 C 
ATOM     21  C   UNL     1      -5.805  12.842  19.535  0.00  0.00    +0.000 C 
ENDBRANCH  12  19
ENDBRANCH  11  15
ENDBRANCH   1  11
BRANCH   1  22
ATOM     22  C   UNL     1       0.427  10.293  20.444  0.00  0.00    +0.000 C 
BRANCH  22  23
ATOM     23  N   UNL     1       1.353  10.705  21.505  0.00  0.00    +0.000 NA
ATOM     24  H   UNL     1       2.310  10.485  21.231  0.00  0.00    +0.000 HD
ATOM     25  H   UNL     1       1.183  10.131  22.334  0.00  0.00    +0.000 HD
ENDBRANCH  22  23
ENDBRANCH   1  22
BRANCH   1  26
ATOM     26  C   UNL     1       2.229   9.216  18.961  0.00  0.00    +0.000 C 
BRANCH  26  27
ATOM     27  C   UNL     1       1.980   7.719  19.147  0.00  0.00    +0.000 A 
ATOM     28  C   UNL     1       2.206   6.792  18.116  0.00  0.00    +0.000 A 
ATOM     29  C   UNL     1       2.197   5.407  18.353  0.00  0.00    +0.000 A 
ATOM     30  C   UNL     1       1.988   4.891  19.637  0.00  0.00    +0.000 A 
ATOM     31  C   UNL     1       1.651   5.822  20.640  0.00  0.00    +0.000 A 
ATOM     32  C   UNL     1       1.647   7.208  20.401  0.00  0.00    +0.000 A 
BRANCH  30  33
ATOM     33  C   UNL     1       2.206   3.405  19.988  0.00  0.00    +0.000 C 
ATOM     34  C   UNL     1       1.366   2.415  19.144  0.00  0.00    +0.000 C 
ATOM     35  C   UNL     1       3.689   3.042  19.716  0.00  0.00    +0.000 C 
ATOM     36  C   UNL     1       1.851   3.135  21.463  0.00  0.00    +0.000 C 
ENDBRANCH  30  33
ENDBRANCH  26  27
ENDBRANCH   1  26
TORSDOF 12
ENDMDL
MODEL 5
REMARK VINA RESULT:      -6.6      1.886      7.943
REMARK  Name = 
REMARK  18 active torsions:
REMARK  status: ('A' for Active; 'I' for Inactive)
REMARK    1  A    between atoms: C_1  and  C_2
REMARK    2  A    between atoms: C_2  and  C_3
REMARK    3  A    between atoms: C_2  and  C_4
REMARK    4  A    between atoms: C_2  and  C_5
REMARK    5  A    between atoms: C_8  and  C_9
REMARK    6  A    between atoms: C_9  and  C_10
REMARK    7  A    between atoms: C_10  and  C_11
REMARK    8  A    between atoms: C_10  and  C_13
REMARK    9  A    between atoms: C_10  and  C_24
REMARK   10  A    between atoms: C_11  and  N_12
REMARK   11  A    between atoms: C_13  and  C_14
REMARK   12  A    between atoms: C_17  and  C_18
REMARK   13  A    between atoms: C_18  and  C_19
REMARK   14  A    between atoms: C_18  and  C_20
REMARK   15  A    between atoms: C_18  and  C_21
REMARK   16  A    between atoms: N_26  and  C_27
REMARK   17  A    between atoms: C_27  and  C_28
REMARK   18  A    between atoms: C_28  and  N_29
REMARK                            x       y       z     vdW  Elec       q    Type
REMARK                         _______ _______ _______ _____ _____    ______ ____
ROOT
ATOM      1  C   UNL     1       0.970  10.218  19.040  0.00  0.00    +0.000 C 
ENDROOT
BRANCH   1   2
ATOM      2  C   UNL     1       1.538  11.637  18.843  0.00  0.00    +0.000 C 
ATOM      3  O   UNL     1       2.447  11.906  18.059  0.00  0.00    +0.000 OA
ATOM      4  N   UNL     1       1.000  12.618  19.651  0.00  0.00    +0.000 N 
ATOM      5  H   UNL     1       0.287  12.420  20.328  0.00  0.00    +0.000 HD
BRANCH   4   6
ATOM      6  C   UNL     1       1.511  13.984  19.617  0.00  0.00    +0.000 C 
BRANCH   6   7
ATOM      7  C   UNL     1       0.604  14.890  18.789  0.00  0.00    +0.000 C 
BRANCH   7   8
ATOM      8  N   UNL     1      -0.792  14.800  19.242  0.00  0.00    +0.000 NA
ATOM      9  H   UNL     1      -1.024  13.817  19.358  0.00  0.00    +0.000 HD
ATOM     10  H   UNL     1      -1.399  15.143  18.491  0.00  0.00    +0.000 HD
ENDBRANCH   7   8
ENDBRANCH   6   7
ENDBRANCH   4   6
ENDBRANCH   1   2
BRANCH   1  11
ATOM     11  C   UNL     1      -0.070   9.806  17.935  0.00  0.00    +0.000 C 
BRANCH  11  15
ATOM     12  C   UNL     1      -4.193  11.353  18.214  0.00  0.00    +0.000 A 
ATOM     13  C   UNL     1      -3.140  11.848  18.998  0.00  0.00    +0.000 A 
ATOM     14  C   UNL     1      -1.836  11.344  18.892  0.00  0.00    +0.000 A 
ATOM     15  C   UNL     1      -1.512  10.303  18.018  0.00  0.00    +0.000 A 
ATOM     16  C   UNL     1      -2.546   9.818  17.208  0.00  0.00    +0.000 A 
ATOM     17  C   UNL     1      -3.861  10.327  17.310  0.00  0.00    +0.000 A 
BRANCH  12  19
ATOM     18  C   UNL     1      -6.692  10.796  18.507  0.00  0.00    +0.000 C 
ATOM     19  C   UNL     1      -5.631  11.908  18.321  0.00  0.00    +0.000 C 
ATOM     20  C   UNL     1      -6.028  12.682  17.043  0.00  0.00    +0.000 C 
ATOM     21  C   UNL     1      -5.750  12.875  19.520  0.00  0.00    +0.000 C 
ENDBRANCH  12  19
ENDBRANCH  11  15
ENDBRANCH   1  11
BRANCH   1  22
ATOM     22  C   UNL     1       0.296  10.189  20.449  0.00  0.00    +0.000 C 
BRANCH  22  23
ATOM     23  N   UNL     1       1.179  10.466  21.587  0.00  0.00    +0.000 NA
ATOM     24  H   UNL     1       0.662  10.962  22.313  0.00  0.00    +0.000 HD
ATOM     25  H   UNL     1       1.904  11.124  21.292  0.00  0.00    +0.000 HD
ENDBRANCH  22  23
ENDBRANCH   1  22
BRANCH   1  26
ATOM     26  C   UNL     1       2.206   9.249  19.009  0.00  0.00    +0.000 C 
BRANCH  26  27
ATOM     27  C   UNL     1       2.003   7.741  19.165  0.00  0.00    +0.000 A 
ATOM     28  C   UNL     1       2.269   6.841  18.119  0.00  0.00    +0.000 A 
ATOM     29  C   UNL     1       2.301   5.452  18.330  0.00  0.00    +0.000 A 
ATOM     30  C   UNL     1       2.096   4.905  19.602  0.00  0.00    +0.000 A 
ATOM     31  C   UNL     1       1.720   5.806  20.618  0.00  0.00    +0.000 A 
ATOM     32  C   UNL     1       1.675   7.196  20.405  0.00  0.00    +0.000 A 
BRANCH  30  33
ATOM     33  C   UNL     1       2.358   3.421  19.927  0.00  0.00    +0.000 C 
ATOM     34  C   UNL     1       2.045   3.018  21.389  0.00  0.00    +0.000 C 
ATOM     35  C   UNL     1       1.436   2.547  19.039  0.00  0.00    +0.000 C 
ATOM     36  C   UNL     1       3.836   3.061  19.679  0.00  0.00    +0.000 C 
ENDBRANCH  30  33
ENDBRANCH  26  27
ENDBRANCH   1  26
TORSDOF 12
ENDMDL
MODEL 6
REMARK VINA RESULT:      -6.6      2.995      8.750
REMARK  Name = 
REMARK  18 active torsions:
REMARK  status: ('A' for Active; 'I' for Inactive)
REMARK    1  A    between atoms: C_1  and  C_2
REMARK    2  A    between atoms: C_2  and  C_3
REMARK    3  A    between atoms: C_2  and  C_4
REMARK    4  A    between atoms: C_2  and  C_5
REMARK    5  A    between atoms: C_8  and  C_9
REMARK    6  A    between atoms: C_9  and  C_10
REMARK    7  A    between atoms: C_10  and  C_11
REMARK    8  A    between atoms: C_10  and  C_13
REMARK    9  A    between atoms: C_10  and  C_24
REMARK   10  A    between atoms: C_11  and  N_12
REMARK   11  A    between atoms: C_13  and  C_14
REMARK   12  A    between atoms: C_17  and  C_18
REMARK   13  A    between atoms: C_18  and  C_19
REMARK   14  A    between atoms: C_18  and  C_20
REMARK   15  A    between atoms: C_18  and  C_21
REMARK   16  A    between atoms: N_26  and  C_27
REMARK   17  A    between atoms: C_27  and  C_28
REMARK   18  A    between atoms: C_28  and  N_29
REMARK                            x       y       z     vdW  Elec       q    Type
REMARK                         _______ _______ _______ _____ _____    ______ ____
ROOT
ATOM      1  C   UNL     1      -0.324  11.249  19.263  0.00  0.00    +0.000 C 
ENDROOT
BRANCH   1   2
ATOM      2  C   UNL     1      -1.217  10.549  18.221  0.00  0.00    +0.000 C 
ATOM      3  O   UNL     1      -0.781   9.978  17.222  0.00  0.00    +0.000 OA
ATOM      4  N   UNL     1      -2.578  10.639  18.436  0.00  0.00    +0.000 N 
ATOM      5  H   UNL     1      -2.962  11.133  19.220  0.00  0.00    +0.000 HD
BRANCH   4   6
ATOM      6  C   UNL     1      -3.529  10.087  17.478  0.00  0.00    +0.000 C 
BRANCH   6   7
ATOM      7  C   UNL     1      -4.048  11.167  16.533  0.00  0.00    +0.000 C 
BRANCH   7   8
ATOM      8  N   UNL     1      -3.141  11.351  15.390  0.00  0.00    +0.000 NA
ATOM      9  H   UNL     1      -2.247  11.678  15.745  0.00  0.00    +0.000 HD
ATOM     10  H   UNL     1      -3.505  12.111  14.806  0.00  0.00    +0.000 HD
ENDBRANCH   7   8
ENDBRANCH   6   7
ENDBRANCH   4   6
ENDBRANCH   1   2
BRANCH   1  11
ATOM     11  C   UNL     1      -0.753  10.957  20.746  0.00  0.00    +0.000 C 
BRANCH  11  15
ATOM     12  C   UNL     1      -2.461  14.202  23.201  0.00  0.00    +0.000 A 
ATOM     13  C   UNL     1      -1.119  13.803  23.295  0.00  0.00    +0.000 A 
ATOM     14  C   UNL     1      -0.596  12.771  22.503  0.00  0.00    +0.000 A 
ATOM     15  C   UNL     1      -1.384  12.062  21.593  0.00  0.00    +0.000 A 
ATOM     16  C   UNL     1      -2.718  12.468  21.467  0.00  0.00    +0.000 A 
ATOM     17  C   UNL     1      -3.247  13.511  22.261  0.00  0.00    +0.000 A 
BRANCH  12  19
ATOM     18  C   UNL     1      -2.533  15.309  25.527  0.00  0.00    +0.000 C 
ATOM     19  C   UNL     1      -3.042  15.343  24.065  0.00  0.00    +0.000 C 
ATOM     20  C   UNL     1      -4.584  15.260  24.137  0.00  0.00    +0.000 C 
ATOM     21  C   UNL     1      -2.666  16.718  23.471  0.00  0.00    +0.000 C 
ENDBRANCH  12  19
ENDBRANCH  11  15
ENDBRANCH   1  11
BRANCH   1  22
ATOM     22  C   UNL     1      -0.403  12.783  18.973  0.00  0.00    +0.000 C 
BRANCH  22  23
ATOM     23  N   UNL     1      -0.927  13.160  17.656  0.00  0.00    +0.000 NA
ATOM     24  H   UNL     1      -1.705  13.810  17.768  0.00  0.00    +0.000 HD
ATOM     25  H   UNL     1      -1.343  12.335  17.217  0.00  0.00    +0.000 HD
ENDBRANCH  22  23
ENDBRANCH   1  22
BRANCH   1  26
ATOM     26  C   UNL     1       1.134  10.723  19.007  0.00  0.00    +0.000 C 
BRANCH  26  27
ATOM     27  C   UNL     1       1.421   9.221  19.020  0.00  0.00    +0.000 A 
ATOM     28  C   UNL     1       1.910   8.546  17.890  0.00  0.00    +0.000 A 
ATOM     29  C   UNL     1       2.385   7.225  17.966  0.00  0.00    +0.000 A 
ATOM     30  C   UNL     1       2.418   6.534  19.183  0.00  0.00    +0.000 A 
ATOM     31  C   UNL     1       1.823   7.179  20.286  0.00  0.00    +0.000 A 
ATOM     32  C   UNL     1       1.335   8.495  20.208  0.00  0.00    +0.000 A 
BRANCH  30  33
ATOM     33  C   UNL     1       3.146   5.186  19.361  0.00  0.00    +0.000 C 
ATOM     34  C   UNL     1       4.686   5.299  19.480  0.00  0.00    +0.000 C 
ATOM     35  C   UNL     1       2.665   4.531  20.681  0.00  0.00    +0.000 C 
ATOM     36  C   UNL     1       2.865   4.253  18.167  0.00  0.00    +0.000 C 
ENDBRANCH  30  33
ENDBRANCH  26  27
ENDBRANCH   1  26
TORSDOF 12
ENDMDL
MODEL 7
REMARK VINA RESULT:      -6.6      2.633      8.576
REMARK  Name = 
REMARK  18 active torsions:
REMARK  status: ('A' for Active; 'I' for Inactive)
REMARK    1  A    between atoms: C_1  and  C_2
REMARK    2  A    between atoms: C_2  and  C_3
REMARK    3  A    between atoms: C_2  and  C_4
REMARK    4  A    between atoms: C_2  and  C_5
REMARK    5  A    between atoms: C_8  and  C_9
REMARK    6  A    between atoms: C_9  and  C_10
REMARK    7  A    between atoms: C_10  and  C_11
REMARK    8  A    between atoms: C_10  and  C_13
REMARK    9  A    between atoms: C_10  and  C_24
REMARK   10  A    between atoms: C_11  and  N_12
REMARK   11  A    between atoms: C_13  and  C_14
REMARK   12  A    between atoms: C_17  and  C_18
REMARK   13  A    between atoms: C_18  and  C_19
REMARK   14  A    between atoms: C_18  and  C_20
REMARK   15  A    between atoms: C_18  and  C_21
REMARK   16  A    between atoms: N_26  and  C_27
REMARK   17  A    between atoms: C_27  and  C_28
REMARK   18  A    between atoms: C_28  and  N_29
REMARK                            x       y       z     vdW  Elec       q    Type
REMARK                         _______ _______ _______ _____ _____    ______ ____
ROOT
ATOM      1  C   UNL     1       1.019  10.427  19.703  0.00  0.00    +0.000 C 
ENDROOT
BRANCH   1   2
ATOM      2  C   UNL     1      -0.356  10.043  19.121  0.00  0.00    +0.000 C 
ATOM      3  O   UNL     1      -1.281   9.595  19.797  0.00  0.00    +0.000 OA
ATOM      4  N   UNL     1      -0.491  10.179  17.754  0.00  0.00    +0.000 N 
ATOM      5  H   UNL     1       0.260  10.504  17.174  0.00  0.00    +0.000 HD
BRANCH   4   6
ATOM      6  C   UNL     1      -1.716   9.772  17.075  0.00  0.00    +0.000 C 
BRANCH   6   7
ATOM      7  C   UNL     1      -2.562  10.982  16.693  0.00  0.00    +0.000 C 
BRANCH   7   8
ATOM      8  N   UNL     1      -1.886  12.237  17.056  0.00  0.00    +0.000 NA
ATOM      9  H   UNL     1      -1.546  12.148  18.009  0.00  0.00    +0.000 HD
ATOM     10  H   UNL     1      -2.584  12.987  17.077  0.00  0.00    +0.000 HD
ENDBRANCH   7   8
ENDBRANCH   6   7
ENDBRANCH   4   6
ENDBRANCH   1   2
BRANCH   1  11
ATOM     11  C   UNL     1       0.973  11.708  20.612  0.00  0.00    +0.000 C 
BRANCH  11  15
ATOM     12  C   UNL     1      -2.793  12.812  22.629  0.00  0.00    +0.000 A 
ATOM     13  C   UNL     1      -2.377  13.396  21.424  0.00  0.00    +0.000 A 
ATOM     14  C   UNL     1      -1.177  13.028  20.797  0.00  0.00    +0.000 A 
ATOM     15  C   UNL     1      -0.313  12.079  21.349  0.00  0.00    +0.000 A 
ATOM     16  C   UNL     1      -0.729  11.466  22.537  0.00  0.00    +0.000 A 
ATOM     17  C   UNL     1      -1.940  11.831  23.169  0.00  0.00    +0.000 A 
BRANCH  12  19
ATOM     18  C   UNL     1      -4.160  14.700  23.728  0.00  0.00    +0.000 C 
ATOM     19  C   UNL     1      -4.117  13.207  23.321  0.00  0.00    +0.000 C 
ATOM     20  C   UNL     1      -4.334  12.394  24.618  0.00  0.00    +0.000 C 
ATOM     21  C   UNL     1      -5.317  12.941  22.386  0.00  0.00    +0.000 C 
ENDBRANCH  12  19
ENDBRANCH  11  15
ENDBRANCH   1  11
BRANCH   1  22
ATOM     22  C   UNL     1       1.975  10.664  18.490  0.00  0.00    +0.000 C 
BRANCH  22  23
ATOM     23  N   UNL     1       2.047  12.040  17.989  0.00  0.00    +0.000 NA
ATOM     24  H   UNL     1       1.717  12.074  17.024  0.00  0.00    +0.000 HD
ATOM     25  H   UNL     1       3.029  12.322  17.935  0.00  0.00    +0.000 HD
ENDBRANCH  22  23
ENDBRANCH   1  22
BRANCH   1  26
ATOM     26  C   UNL     1       1.498   9.185  20.538  0.00  0.00    +0.000 C 
BRANCH  26  27
ATOM     27  C   UNL     1       1.784   7.855  19.838  0.00  0.00    +0.000 A 
ATOM     28  C   UNL     1       2.351   7.795  18.555  0.00  0.00    +0.000 A 
ATOM     29  C   UNL     1       2.820   6.587  18.011  0.00  0.00    +0.000 A 
ATOM     30  C   UNL     1       2.768   5.393  18.739  0.00  0.00    +0.000 A 
ATOM     31  C   UNL     1       2.097   5.443  19.978  0.00  0.00    +0.000 A 
ATOM     32  C   UNL     1       1.615   6.649  20.518  0.00  0.00    +0.000 A 
BRANCH  30  33
ATOM     33  C   UNL     1       3.482   4.104  18.286  0.00  0.00    +0.000 C 
ATOM     34  C   UNL     1       4.782   4.340  17.479  0.00  0.00    +0.000 C 
ATOM     35  C   UNL     1       3.902   3.300  19.542  0.00  0.00    +0.000 C 
ATOM     36  C   UNL     1       2.559   3.254  17.391  0.00  0.00    +0.000 C 
ENDBRANCH  30  33
ENDBRANCH  26  27
ENDBRANCH   1  26
TORSDOF 12
ENDMDL
MODEL 8
REMARK VINA RESULT:      -6.6      1.706      7.984
REMARK  Name = 
REMARK  18 active torsions:
REMARK  status: ('A' for Active; 'I' for Inactive)
REMARK    1  A    between atoms: C_1  and  C_2
REMARK    2  A    between atoms: C_2  and  C_3
REMARK    3  A    between atoms: C_2  and  C_4
REMARK    4  A    between atoms: C_2  and  C_5
REMARK    5  A    between atoms: C_8  and  C_9
REMARK    6  A    between atoms: C_9  and  C_10
REMARK    7  A    between atoms: C_10  and  C_11
REMARK    8  A    between atoms: C_10  and  C_13
REMARK    9  A    between atoms: C_10  and  C_24
REMARK   10  A    between atoms: C_11  and  N_12
REMARK   11  A    between atoms: C_13  and  C_14
REMARK   12  A    between atoms: C_17  and  C_18
REMARK   13  A    between atoms: C_18  and  C_19
REMARK   14  A    between atoms: C_18  and  C_20
REMARK   15  A    between atoms: C_18  and  C_21
REMARK   16  A    between atoms: N_26  and  C_27
REMARK   17  A    between atoms: C_27  and  C_28
REMARK   18  A    between atoms: C_28  and  N_29
REMARK                            x       y       z     vdW  Elec       q    Type
REMARK                         _______ _______ _______ _____ _____    ______ ____
ROOT
ATOM      1  C   UNL     1       0.752  10.270  19.448  0.00  0.00    +0.000 C 
ENDROOT
BRANCH   1   2
ATOM      2  C   UNL     1       1.222  11.738  19.480  0.00  0.00    +0.000 C 
ATOM      3  O   UNL     1       1.194  12.442  20.489  0.00  0.00    +0.000 OA
ATOM      4  N   UNL     1       1.640  12.263  18.274  0.00  0.00    +0.000 N 
ATOM      5  H   UNL     1       1.635  11.724  17.428  0.00  0.00    +0.000 HD
BRANCH   4   6
ATOM      6  C   UNL     1       2.032  13.663  18.158  0.00  0.00    +0.000 C 
BRANCH   6   7
ATOM      7  C   UNL     1       3.533  13.835  18.374  0.00  0.00    +0.000 C 
BRANCH   7   8
ATOM      8  N   UNL     1       3.805  14.697  19.535  0.00  0.00    +0.000 NA
ATOM      9  H   UNL     1       2.954  15.205  19.759  0.00  0.00    +0.000 HD
ATOM     10  H   UNL     1       4.490  15.407  19.257  0.00  0.00    +0.000 HD
ENDBRANCH   7   8
ENDBRANCH   6   7
ENDBRANCH   4   6
ENDBRANCH   1   2
BRANCH   1  11
ATOM     11  C   UNL     1      -0.207   9.952  18.246  0.00  0.00    +0.000 C 
BRANCH  11  15
ATOM     12  C   UNL     1      -4.363  11.431  18.359  0.00  0.00    +0.000 A 
ATOM     13  C   UNL     1      -3.307  12.077  19.019  0.00  0.00    +0.000 A 
ATOM     14  C   UNL     1      -1.993  11.592  18.968  0.00  0.00    +0.000 A 
ATOM     15  C   UNL     1      -1.660  10.423  18.279  0.00  0.00    +0.000 A 
ATOM     16  C   UNL     1      -2.698   9.782  17.590  0.00  0.00    +0.000 A 
ATOM     17  C   UNL     1      -4.023  10.272  17.637  0.00  0.00    +0.000 A 
BRANCH  12  19
ATOM     18  C   UNL     1      -6.863  10.836  18.547  0.00  0.00    +0.000 C 
ATOM     19  C   UNL     1      -5.812  11.964  18.406  0.00  0.00    +0.000 C 
ATOM     20  C   UNL     1      -6.167  12.732  17.112  0.00  0.00    +0.000 C 
ATOM     21  C   UNL     1      -5.997  12.929  19.598  0.00  0.00    +0.000 C 
ENDBRANCH  12  19
ENDBRANCH  11  15
ENDBRANCH   1  11
BRANCH   1  22
ATOM     22  C   UNL     1       0.024   9.997  20.804  0.00  0.00    +0.000 C 
BRANCH  22  23
ATOM     23  N   UNL     1       0.851  10.111  22.010  0.00  0.00    +0.000 NA
ATOM     24  H   UNL     1       0.540  10.907  22.567  0.00  0.00    +0.000 HD
ATOM     25  H   UNL     1       1.807  10.346  21.735  0.00  0.00    +0.000 HD
ENDBRANCH  22  23
ENDBRANCH   1  22
BRANCH   1  26
ATOM     26  C   UNL     1       2.057   9.401  19.348  0.00  0.00    +0.000 C 
BRANCH  26  27
ATOM     27  C   UNL     1       1.959   7.875  19.289  0.00  0.00    +0.000 A 
ATOM     28  C   UNL     1       2.276   7.152  18.128  0.00  0.00    +0.000 A 
ATOM     29  C   UNL     1       2.405   5.753  18.141  0.00  0.00    +0.000 A 
ATOM     30  C   UNL     1       2.251   5.020  19.323  0.00  0.00    +0.000 A 
ATOM     31  C   UNL     1       1.824   5.741  20.457  0.00  0.00    +0.000 A 
ATOM     32  C   UNL     1       1.681   7.140  20.441  0.00  0.00    +0.000 A 
BRANCH  30  33
ATOM     33  C   UNL     1       2.617   3.526  19.436  0.00  0.00    +0.000 C 
ATOM     34  C   UNL     1       2.653   2.981  20.885  0.00  0.00    +0.000 C 
ATOM     35  C   UNL     1       1.541   2.693  18.695  0.00  0.00    +0.000 C 
ATOM     36  C   UNL     1       4.010   3.259  18.833  0.00  0.00    +0.000 C 
ENDBRANCH  30  33
ENDBRANCH  26  27
ENDBRANCH   1  26
TORSDOF 12
ENDMDL
MODEL 9
REMARK VINA RESULT:      -6.6      1.992      3.064
REMARK  Name = 
REMARK  18 active torsions:
REMARK  status: ('A' for Active; 'I' for Inactive)
REMARK    1  A    between atoms: C_1  and  C_2
REMARK    2  A    between atoms: C_2  and  C_3
REMARK    3  A    between atoms: C_2  and  C_4
REMARK    4  A    between atoms: C_2  and  C_5
REMARK    5  A    between atoms: C_8  and  C_9
REMARK    6  A    between atoms: C_9  and  C_10
REMARK    7  A    between atoms: C_10  and  C_11
REMARK    8  A    between atoms: C_10  and  C_13
REMARK    9  A    between atoms: C_10  and  C_24
REMARK   10  A    between atoms: C_11  and  N_12
REMARK   11  A    between atoms: C_13  and  C_14
REMARK   12  A    between atoms: C_17  and  C_18
REMARK   13  A    between atoms: C_18  and  C_19
REMARK   14  A    between atoms: C_18  and  C_20
REMARK   15  A    between atoms: C_18  and  C_21
REMARK   16  A    between atoms: N_26  and  C_27
REMARK   17  A    between atoms: C_27  and  C_28
REMARK   18  A    between atoms: C_28  and  N_29
REMARK                            x       y       z     vdW  Elec       q    Type
REMARK                         _______ _______ _______ _____ _____    ______ ____
ROOT
ATOM      1  C   UNL     1       0.815  10.376  19.135  0.00  0.00    +0.000 C 
ENDROOT
BRANCH   1   2
ATOM      2  C   UNL     1       0.725  10.663  20.647  0.00  0.00    +0.000 C 
ATOM      3  O   UNL     1       1.479  11.432  21.242  0.00  0.00    +0.000 OA
ATOM      4  N   UNL     1      -0.238   9.956  21.338  0.00  0.00    +0.000 N 
ATOM      5  H   UNL     1      -0.840   9.293  20.886  0.00  0.00    +0.000 HD
BRANCH   4   6
ATOM      6  C   UNL     1      -0.368  10.080  22.786  0.00  0.00    +0.000 C 
BRANCH   6   7
ATOM      7  C   UNL     1      -1.400  11.140  23.158  0.00  0.00    +0.000 C 
BRANCH   7   8
ATOM      8  N   UNL     1      -0.803  12.484  23.152  0.00  0.00    +0.000 NA
ATOM      9  H   UNL     1      -1.014  12.921  22.259  0.00  0.00    +0.000 HD
ATOM     10  H   UNL     1       0.217  12.386  23.181  0.00  0.00    +0.000 HD
ENDBRANCH   7   8
ENDBRANCH   6   7
ENDBRANCH   4   6
ENDBRANCH   1   2
BRANCH   1  11
ATOM     11  C   UNL     1       2.050   9.487  18.744  0.00  0.00    +0.000 C 
BRANCH  11  15
ATOM     12  C   UNL     1       2.106   5.143  19.514  0.00  0.00    +0.000 A 
ATOM     13  C   UNL     1       2.329   5.693  18.244  0.00  0.00    +0.000 A 
ATOM     14  C   UNL     1       2.310   7.077  18.021  0.00  0.00    +0.000 A 
ATOM     15  C   UNL     1       2.042   7.989  19.045  0.00  0.00    +0.000 A 
ATOM     16  C   UNL     1       1.846   7.457  20.325  0.00  0.00    +0.000 A 
ATOM     17  C   UNL     1       1.869   6.062  20.553  0.00  0.00    +0.000 A 
BRANCH  12  19
ATOM     18  C   UNL     1       1.039   2.859  18.979  0.00  0.00    +0.000 C 
ATOM     19  C   UNL     1       2.132   3.619  19.768  0.00  0.00    +0.000 C 
ATOM     20  C   UNL     1       1.897   3.297  21.262  0.00  0.00    +0.000 C 
ATOM     21  C   UNL     1       3.500   3.026  19.363  0.00  0.00    +0.000 C 
ENDBRANCH  12  19
ENDBRANCH  11  15
ENDBRANCH   1  11
BRANCH   1  22
ATOM     22  C   UNL     1       0.899  11.760  18.415  0.00  0.00    +0.000 C 
BRANCH  22  23
ATOM     23  N   UNL     1       0.830  12.940  19.283  0.00  0.00    +0.000 NA
ATOM     24  H   UNL     1       0.160  12.777  20.034  0.00  0.00    +0.000 HD
ATOM     25  H   UNL     1       0.436  13.720  18.751  0.00  0.00    +0.000 HD
ENDBRANCH  22  23
ENDBRANCH   1  22
BRANCH   1  26
ATOM     26  C   UNL     1      -0.523   9.646  18.754  0.00  0.00    +0.000 C 
BRANCH  26  27
ATOM     27  C   UNL     1      -1.781  10.460  18.450  0.00  0.00    +0.000 A 
ATOM     28  C   UNL     1      -2.647  10.128  17.395  0.00  0.00    +0.000 A 
ATOM     29  C   UNL     1      -3.909  10.730  17.257  0.00  0.00    +0.000 A 
ATOM     30  C   UNL     1      -4.371  11.670  18.186  0.00  0.00    +0.000 A 
ATOM     31  C   UNL     1      -3.452  12.077  19.175  0.00  0.00    +0.000 A 
ATOM     32  C   UNL     1      -2.184  11.485  19.305  0.00  0.00    +0.000 A 
BRANCH  30  33
ATOM     33  C   UNL     1      -5.828  12.174  18.214  0.00  0.00    +0.000 C 
ATOM     34  C   UNL     1      -6.890  11.058  18.372  0.00  0.00    +0.000 C 
ATOM     35  C   UNL     1      -6.008  13.109  19.436  0.00  0.00    +0.000 C 
ATOM     36  C   UNL     1      -6.170  12.924  16.912  0.00  0.00    +0.000 C 
ENDBRANCH  30  33
ENDBRANCH  26  27
ENDBRANCH   1  26
TORSDOF 12
ENDMDL
