MODEL 1
REMARK VINA RESULT:      -7.6      0.000      0.000
REMARK  Name = 
REMARK  9 active torsions:
REMARK  status: ('A' for Active; 'I' for Inactive)
REMARK    1  A    between atoms: C_1  and  O_2
REMARK    2  A    between atoms: O_2  and  C_3
REMARK    3  A    between atoms: C_6  and  C_7
REMARK    4  A    between atoms: C_7  and  C_8
REMARK    5  A    between atoms: C_11  and  O_12
REMARK    6  A    between atoms: O_12  and  C_13
REMARK    7  A    between atoms: N_19  and  C_20
REMARK    8  A    between atoms: C_20  and  C_21
REMARK    9  A    between atoms: C_26  and  C_27
REMARK                            x       y       z     vdW  Elec       q    Type
REMARK                         _______ _______ _______ _____ _____    ______ ____
ROOT
ATOM      1  C   UNL     1       0.745  10.844  19.019  0.00  0.00    +0.000 C 
ATOM      2  N   UNL     1       1.491  11.564  17.982  0.00  0.00    +0.000 N 
ATOM      3  C   UNL     1       2.240  12.557  18.500  0.00  0.00    +0.000 C 
ATOM      4  N   UNL     1       3.130  13.227  17.874  0.00  0.00    +0.000 NA
ATOM      5  N   UNL     1       1.942  12.758  19.805  0.00  0.00    +0.000 N 
ATOM      6  C   UNL     1       1.070  11.787  20.243  0.00  0.00    +0.000 C 
ATOM      7  O   UNL     1       0.680  11.663  21.399  0.00  0.00    +0.000 OA
ATOM      8  H   UNL     1       1.667  11.165  17.079  0.00  0.00    +0.000 HD
ATOM      9  H   UNL     1       3.186  12.888  16.912  0.00  0.00    +0.000 HD
ENDROOT
BRANCH   1  13
ATOM     10  C   UNL     1       2.379   6.804  19.496  0.00  0.00    +0.000 A 
ATOM     11  C   UNL     1       1.709   7.418  20.552  0.00  0.00    +0.000 A 
ATOM     12  C   UNL     1       1.197   8.712  20.410  0.00  0.00    +0.000 A 
ATOM     13  C   UNL     1       1.331   9.427  19.202  0.00  0.00    +0.000 A 
ATOM     14  C   UNL     1       2.084   8.816  18.182  0.00  0.00    +0.000 A 
ATOM     15  C   UNL     1       2.593   7.520  18.323  0.00  0.00    +0.000 A 
BRANCH  10  17
ATOM     16  C   UNL     1       2.166   4.859  20.804  0.00  0.00    +0.000 C 
ATOM     17  O   UNL     1       2.819   5.531  19.731  0.00  0.00    +0.000 OA
ENDBRANCH  10  17
ENDBRANCH   1  13
BRANCH   1  18
ATOM     18  C   UNL     1      -0.745  10.788  18.666  0.00  0.00    +0.000 A 
ATOM     19  C   UNL     1      -1.240   9.884  17.711  0.00  0.00    +0.000 A 
ATOM     20  C   UNL     1      -2.559   9.965  17.258  0.00  0.00    +0.000 A 
ATOM     21  C   UNL     1      -3.420  10.940  17.754  0.00  0.00    +0.000 A 
ATOM     22  C   UNL     1      -2.966  11.816  18.736  0.00  0.00    +0.000 A 
ATOM     23  C   UNL     1      -1.645  11.734  19.190  0.00  0.00    +0.000 A 
BRANCH  21  24
ATOM     24  O   UNL     1      -4.651  10.977  17.163  0.00  0.00    +0.000 OA
ATOM     25  C   UNL     1      -5.389  12.177  17.346  0.00  0.00    +0.000 C 
ENDBRANCH  21  24
ENDBRANCH   1  18
BRANCH   5  26
ATOM     26  C   UNL     1       2.457  13.796  20.677  0.00  0.00    +0.000 C 
BRANCH  26  27
ATOM     27  C   UNL     1       1.797  15.143  20.423  0.00  0.00    +0.000 A 
ATOM     28  C   UNL     1       0.406  15.253  20.622  0.00  0.00    +0.000 A 
ATOM     29  C   UNL     1      -0.265  16.458  20.428  0.00  0.00    +0.000 A 
ATOM     30  C   UNL     1       0.441  17.583  20.025  0.00  0.00    +0.000 A 
ATOM     31  C   UNL     1       1.816  17.498  19.809  0.00  0.00    +0.000 A 
ATOM     32  C   UNL     1       2.507  16.286  19.990  0.00  0.00    +0.000 A 
ATOM     33  C   UNL     1       3.991  16.273  19.735  0.00  0.00    +0.000 C 
ENDBRANCH  26  27
ENDBRANCH   5  26
TORSDOF 6
ENDMDL
MODEL 2
REMARK VINA RESULT:      -7.5      0.570      1.227
REMARK  Name = 
REMARK  9 active torsions:
REMARK  status: ('A' for Active; 'I' for Inactive)
REMARK    1  A    between atoms: C_1  and  O_2
REMARK    2  A    between atoms: O_2  and  C_3
REMARK    3  A    between atoms: C_6  and  C_7
REMARK    4  A    between atoms: C_7  and  C_8
REMARK    5  A    between atoms: C_11  and  O_12
REMARK    6  A    between atoms: O_12  and  C_13
REMARK    7  A    between atoms: N_19  and  C_20
REMARK    8  A    between atoms: C_20  and  C_21
REMARK    9  A    between atoms: C_26  and  C_27
REMARK                            x       y       z     vdW  Elec       q    Type
REMARK                         _______ _______ _______ _____ _____    ______ ____
ROOT
ATOM      1  C   UNL     1       0.719  10.816  19.053  0.00  0.00    +0.000 C 
ATOM      2  N   UNL     1       1.488  11.438  17.971  0.00  0.00    +0.000 N 
ATOM      3  C   UNL     1       2.268  12.441  18.420  0.00  0.00    +0.000 C 
ATOM      4  N   UNL     1       3.180  13.037  17.751  0.00  0.00    +0.000 NA
ATOM      5  N   UNL     1       1.975  12.741  19.707  0.00  0.00    +0.000 N 
ATOM      6  C   UNL     1       1.073  11.831  20.210  0.00  0.00    +0.000 C 
ATOM      7  O   UNL     1       0.679  11.801  21.370  0.00  0.00    +0.000 OA
ATOM      8  H   UNL     1       1.651  10.971  17.099  0.00  0.00    +0.000 HD
ATOM      9  H   UNL     1       3.225  12.630  16.816  0.00  0.00    +0.000 HD
ENDROOT
BRANCH   1  13
ATOM     10  C   UNL     1       2.224   6.770  19.815  0.00  0.00    +0.000 A 
ATOM     11  C   UNL     1       1.556   7.468  20.817  0.00  0.00    +0.000 A 
ATOM     12  C   UNL     1       1.084   8.766  20.585  0.00  0.00    +0.000 A 
ATOM     13  C   UNL     1       1.260   9.397  19.337  0.00  0.00    +0.000 A 
ATOM     14  C   UNL     1       2.011   8.701  18.372  0.00  0.00    +0.000 A 
ATOM     15  C   UNL     1       2.478   7.403  18.603  0.00  0.00    +0.000 A 
BRANCH  10  17
ATOM     16  C   UNL     1       1.571   4.625  20.532  0.00  0.00    +0.000 C 
ATOM     17  O   UNL     1       2.622   5.503  20.138  0.00  0.00    +0.000 OA
ENDBRANCH  10  17
ENDBRANCH   1  13
BRANCH   1  18
ATOM     18  C   UNL     1      -0.772  10.782  18.701  0.00  0.00    +0.000 A 
ATOM     19  C   UNL     1      -1.271   9.931  17.701  0.00  0.00    +0.000 A 
ATOM     20  C   UNL     1      -2.591  10.040  17.256  0.00  0.00    +0.000 A 
ATOM     21  C   UNL     1      -3.448  10.989  17.803  0.00  0.00    +0.000 A 
ATOM     22  C   UNL     1      -2.990  11.812  18.829  0.00  0.00    +0.000 A 
ATOM     23  C   UNL     1      -1.668  11.703  19.276  0.00  0.00    +0.000 A 
BRANCH  21  24
ATOM     24  O   UNL     1      -4.681  11.061  17.218  0.00  0.00    +0.000 OA
ATOM     25  C   UNL     1      -5.788  11.082  18.108  0.00  0.00    +0.000 C 
ENDBRANCH  21  24
ENDBRANCH   1  18
BRANCH   5  26
ATOM     26  C   UNL     1       2.523  13.821  20.507  0.00  0.00    +0.000 C 
BRANCH  26  27
ATOM     27  C   UNL     1       1.814  15.144  20.252  0.00  0.00    +0.000 A 
ATOM     28  C   UNL     1       2.221  15.915  19.144  0.00  0.00    +0.000 A 
ATOM     29  C   UNL     1       1.607  17.127  18.837  0.00  0.00    +0.000 A 
ATOM     30  C   UNL     1       0.573  17.597  19.634  0.00  0.00    +0.000 A 
ATOM     31  C   UNL     1       0.161  16.860  20.741  0.00  0.00    +0.000 A 
ATOM     32  C   UNL     1       0.777  15.639  21.074  0.00  0.00    +0.000 A 
ATOM     33  C   UNL     1       0.277  14.901  22.286  0.00  0.00    +0.000 C 
ENDBRANCH  26  27
ENDBRANCH   5  26
TORSDOF 6
ENDMDL
MODEL 3
REMARK VINA RESULT:      -7.5      0.323      1.261
REMARK  Name = 
REMARK  9 active torsions:
REMARK  status: ('A' for Active; 'I' for Inactive)
REMARK    1  A    between atoms: C_1  and  O_2
REMARK    2  A    between atoms: O_2  and  C_3
REMARK    3  A    between atoms: C_6  and  C_7
REMARK    4  A    between atoms: C_7  and  C_8
REMARK    5  A    between atoms: C_11  and  O_12
REMARK    6  A    between atoms: O_12  and  C_13
REMARK    7  A    between atoms: N_19  and  C_20
REMARK    8  A    between atoms: C_20  and  C_21
REMARK    9  A    between atoms: C_26  and  C_27
REMARK                            x       y       z     vdW  Elec       q    Type
REMARK                         _______ _______ _______ _____ _____    ______ ____
ROOT
ATOM      1  C   UNL     1       0.813  11.096  18.966  0.00  0.00    +0.000 C 
ATOM      2  N   UNL     1       1.632  11.742  17.935  0.00  0.00    +0.000 N 
ATOM      3  C   UNL     1       2.416  12.709  18.449  0.00  0.00    +0.000 C 
ATOM      4  N   UNL     1       3.362  13.310  17.835  0.00  0.00    +0.000 NA
ATOM      5  N   UNL     1       2.087  12.965  19.737  0.00  0.00    +0.000 N 
ATOM      6  C   UNL     1       1.149  12.056  20.173  0.00  0.00    +0.000 C 
ATOM      7  O   UNL     1       0.716  11.989  21.318  0.00  0.00    +0.000 OA
ATOM      8  H   UNL     1       1.815  11.306  17.051  0.00  0.00    +0.000 HD
ATOM      9  H   UNL     1       3.431  12.939  16.886  0.00  0.00    +0.000 HD
ENDROOT
BRANCH   1  13
ATOM     10  C   UNL     1       2.267   7.026  19.704  0.00  0.00    +0.000 A 
ATOM     11  C   UNL     1       2.468   7.627  18.464  0.00  0.00    +0.000 A 
ATOM     12  C   UNL     1       1.995   8.921  18.218  0.00  0.00    +0.000 A 
ATOM     13  C   UNL     1       1.315   9.655  19.211  0.00  0.00    +0.000 A 
ATOM     14  C   UNL     1       1.053   8.993  20.424  0.00  0.00    +0.000 A 
ATOM     15  C   UNL     1       1.530   7.700  20.672  0.00  0.00    +0.000 A 
BRANCH  10  17
ATOM     16  C   UNL     1       1.954   4.849  20.541  0.00  0.00    +0.000 C 
ATOM     17  O   UNL     1       2.789   5.771  19.848  0.00  0.00    +0.000 OA
ENDBRANCH  10  17
ENDBRANCH   1  13
BRANCH   1  18
ATOM     18  C   UNL     1      -0.665  11.108  18.564  0.00  0.00    +0.000 A 
ATOM     19  C   UNL     1      -1.567  12.035  19.113  0.00  0.00    +0.000 A 
ATOM     20  C   UNL     1      -2.941  11.923  18.889  0.00  0.00    +0.000 A 
ATOM     21  C   UNL     1      -3.449  10.892  18.104  0.00  0.00    +0.000 A 
ATOM     22  C   UNL     1      -2.571   9.989  17.511  0.00  0.00    +0.000 A 
ATOM     23  C   UNL     1      -1.194  10.102  17.735  0.00  0.00    +0.000 A 
BRANCH  21  24
ATOM     24  O   UNL     1      -4.813  10.833  18.040  0.00  0.00    +0.000 OA
ATOM     25  C   UNL     1      -5.441  11.854  17.278  0.00  0.00    +0.000 C 
ENDBRANCH  21  24
ENDBRANCH   1  18
BRANCH   5  26
ATOM     26  C   UNL     1       2.629  14.000  20.597  0.00  0.00    +0.000 C 
BRANCH  26  27
ATOM     27  C   UNL     1       1.968  15.351  20.361  0.00  0.00    +0.000 A 
ATOM     28  C   UNL     1       0.594  15.479  20.648  0.00  0.00    +0.000 A 
ATOM     29  C   UNL     1      -0.076  16.688  20.475  0.00  0.00    +0.000 A 
ATOM     30  C   UNL     1       0.615  17.798  20.008  0.00  0.00    +0.000 A 
ATOM     31  C   UNL     1       1.971  17.694  19.706  0.00  0.00    +0.000 A 
ATOM     32  C   UNL     1       2.661  16.477  19.863  0.00  0.00    +0.000 A 
ATOM     33  C   UNL     1       4.124  16.443  19.514  0.00  0.00    +0.000 C 
ENDBRANCH  26  27
ENDBRANCH   5  26
TORSDOF 6
ENDMDL
MODEL 4
REMARK VINA RESULT:      -7.4      0.503      1.725
REMARK  Name = 
REMARK  9 active torsions:
REMARK  status: ('A' for Active; 'I' for Inactive)
REMARK    1  A    between atoms: C_1  and  O_2
REMARK    2  A    between atoms: O_2  and  C_3
REMARK    3  A    between atoms: C_6  and  C_7
REMARK    4  A    between atoms: C_7  and  C_8
REMARK    5  A    between atoms: C_11  and  O_12
REMARK    6  A    between atoms: O_12  and  C_13
REMARK    7  A    between atoms: N_19  and  C_20
REMARK    8  A    between atoms: C_20  and  C_21
REMARK    9  A    between atoms: C_26  and  C_27
REMARK                            x       y       z     vdW  Elec       q    Type
REMARK                         _______ _______ _______ _____ _____    ______ ____
ROOT
ATOM      1  C   UNL     1       0.793  11.056  18.963  0.00  0.00    +0.000 C 
ATOM      2  N   UNL     1       1.618  11.711  17.942  0.00  0.00    +0.000 N 
ATOM      3  C   UNL     1       2.392  12.681  18.468  0.00  0.00    +0.000 C 
ATOM      4  N   UNL     1       3.341  13.290  17.865  0.00  0.00    +0.000 NA
ATOM      5  N   UNL     1       2.049  12.930  19.753  0.00  0.00    +0.000 N 
ATOM      6  C   UNL     1       1.112  12.014  20.177  0.00  0.00    +0.000 C 
ATOM      7  O   UNL     1       0.668  11.941  21.317  0.00  0.00    +0.000 OA
ATOM      8  H   UNL     1       1.812  11.280  17.058  0.00  0.00    +0.000 HD
ATOM      9  H   UNL     1       3.420  12.923  16.915  0.00  0.00    +0.000 HD
ENDROOT
BRANCH   1  13
ATOM     10  C   UNL     1       2.263   6.992  19.699  0.00  0.00    +0.000 A 
ATOM     11  C   UNL     1       2.475   7.600  18.465  0.00  0.00    +0.000 A 
ATOM     12  C   UNL     1       1.996   8.892  18.219  0.00  0.00    +0.000 A 
ATOM     13  C   UNL     1       1.301   9.618  19.207  0.00  0.00    +0.000 A 
ATOM     14  C   UNL     1       1.029   8.948  20.414  0.00  0.00    +0.000 A 
ATOM     15  C   UNL     1       1.510   7.658  20.662  0.00  0.00    +0.000 A 
BRANCH  10  17
ATOM     16  C   UNL     1       2.126   4.914  20.796  0.00  0.00    +0.000 C 
ATOM     17  O   UNL     1       2.791   5.739  19.844  0.00  0.00    +0.000 OA
ENDBRANCH  10  17
ENDBRANCH   1  13
BRANCH   1  18
ATOM     18  C   UNL     1      -0.681  11.062  18.547  0.00  0.00    +0.000 A 
ATOM     19  C   UNL     1      -1.593  11.983  19.089  0.00  0.00    +0.000 A 
ATOM     20  C   UNL     1      -2.965  11.864  18.851  0.00  0.00    +0.000 A 
ATOM     21  C   UNL     1      -3.459  10.832  18.060  0.00  0.00    +0.000 A 
ATOM     22  C   UNL     1      -2.571   9.936  17.473  0.00  0.00    +0.000 A 
ATOM     23  C   UNL     1      -1.197  10.055  17.710  0.00  0.00    +0.000 A 
BRANCH  21  24
ATOM     24  O   UNL     1      -4.822  10.766  17.982  0.00  0.00    +0.000 OA
ATOM     25  C   UNL     1      -5.458  11.857  17.330  0.00  0.00    +0.000 C 
ENDBRANCH  21  24
ENDBRANCH   1  18
BRANCH   5  26
ATOM     26  C   UNL     1       2.577  13.965  20.622  0.00  0.00    +0.000 C 
BRANCH  26  27
ATOM     27  C   UNL     1       1.886  15.304  20.409  0.00  0.00    +0.000 A 
ATOM     28  C   UNL     1       2.345  16.133  19.365  0.00  0.00    +0.000 A 
ATOM     29  C   UNL     1       1.750  17.364  19.098  0.00  0.00    +0.000 A 
ATOM     30  C   UNL     1       0.684  17.797  19.873  0.00  0.00    +0.000 A 
ATOM     31  C   UNL     1       0.219  17.002  20.919  0.00  0.00    +0.000 A 
ATOM     32  C   UNL     1       0.815  15.761  21.210  0.00  0.00    +0.000 A 
ATOM     33  C   UNL     1       0.259  14.960  22.357  0.00  0.00    +0.000 C 
ENDBRANCH  26  27
ENDBRANCH   5  26
TORSDOF 6
ENDMDL
MODEL 5
REMARK VINA RESULT:      -7.4      1.387      5.339
REMARK  Name = 
REMARK  9 active torsions:
REMARK  status: ('A' for Active; 'I' for Inactive)
REMARK    1  A    between atoms: C_1  and  O_2
REMARK    2  A    between atoms: O_2  and  C_3
REMARK    3  A    between atoms: C_6  and  C_7
REMARK    4  A    between atoms: C_7  and  C_8
REMARK    5  A    between atoms: C_11  and  O_12
REMARK    6  A    between atoms: O_12  and  C_13
REMARK    7  A    between atoms: N_19  and  C_20
REMARK    8  A    between atoms: C_20  and  C_21
REMARK    9  A    between atoms: C_26  and  C_27
REMARK                            x       y       z     vdW  Elec       q    Type
REMARK                         _______ _______ _______ _____ _____    ______ ____
ROOT
ATOM      1  C   UNL     1       0.512  10.803  19.347  0.00  0.00    +0.000 C 
ATOM      2  N   UNL     1       0.337  11.294  20.717  0.00  0.00    +0.000 N 
ATOM      3  C   UNL     1       0.914  12.499  20.897  0.00  0.00    +0.000 C 
ATOM      4  N   UNL     1       0.768  13.253  21.918  0.00  0.00    +0.000 NA
ATOM      5  N   UNL     1       1.674  12.835  19.828  0.00  0.00    +0.000 N 
ATOM      6  C   UNL     1       1.509  11.910  18.822  0.00  0.00    +0.000 C 
ATOM      7  O   UNL     1       2.010  11.989  17.707  0.00  0.00    +0.000 OA
ATOM      8  H   UNL     1      -0.377  10.938  21.323  0.00  0.00    +0.000 HD
ATOM      9  H   UNL     1       0.141  12.796  22.582  0.00  0.00    +0.000 HD
ENDROOT
BRANCH   1  13
ATOM     10  C   UNL     1      -3.297  10.908  17.179  0.00  0.00    +0.000 A 
ATOM     11  C   UNL     1      -3.102  11.722  18.292  0.00  0.00    +0.000 A 
ATOM     12  C   UNL     1      -1.894  11.683  18.996  0.00  0.00    +0.000 A 
ATOM     13  C   UNL     1      -0.840  10.835  18.599  0.00  0.00    +0.000 A 
ATOM     14  C   UNL     1      -1.094   9.965  17.523  0.00  0.00    +0.000 A 
ATOM     15  C   UNL     1      -2.301  10.006  16.817  0.00  0.00    +0.000 A 
BRANCH  10  17
ATOM     16  C   UNL     1      -5.354  12.049  17.086  0.00  0.00    +0.000 C 
ATOM     17  O   UNL     1      -4.503  11.040  16.549  0.00  0.00    +0.000 OA
ENDBRANCH  10  17
ENDBRANCH   1  13
BRANCH   1  18
ATOM     18  C   UNL     1       1.109   9.393  19.353  0.00  0.00    +0.000 A 
ATOM     19  C   UNL     1       1.102   8.597  20.512  0.00  0.00    +0.000 A 
ATOM     20  C   UNL     1       1.811   7.395  20.565  0.00  0.00    +0.000 A 
ATOM     21  C   UNL     1       2.536   6.950  19.463  0.00  0.00    +0.000 A 
ATOM     22  C   UNL     1       2.520   7.698  18.289  0.00  0.00    +0.000 A 
ATOM     23  C   UNL     1       1.809   8.902  18.235  0.00  0.00    +0.000 A 
BRANCH  21  24
ATOM     24  O   UNL     1       3.264   5.813  19.671  0.00  0.00    +0.000 OA
ATOM     25  C   UNL     1       4.366   5.615  18.797  0.00  0.00    +0.000 C 
ENDBRANCH  21  24
ENDBRANCH   1  18
BRANCH   5  26
ATOM     26  C   UNL     1       2.528  13.999  19.685  0.00  0.00    +0.000 C 
BRANCH  26  27
ATOM     27  C   UNL     1       1.802  15.171  19.039  0.00  0.00    +0.000 A 
ATOM     28  C   UNL     1       0.396  15.215  19.127  0.00  0.00    +0.000 A 
ATOM     29  C   UNL     1      -0.335  16.265  18.576  0.00  0.00    +0.000 A 
ATOM     30  C   UNL     1       0.325  17.294  17.920  0.00  0.00    +0.000 A 
ATOM     31  C   UNL     1       1.713  17.268  17.808  0.00  0.00    +0.000 A 
ATOM     32  C   UNL     1       2.467  16.210  18.349  0.00  0.00    +0.000 A 
ATOM     33  C   UNL     1       3.963  16.251  18.186  0.00  0.00    +0.000 C 
ENDBRANCH  26  27
ENDBRANCH   5  26
TORSDOF 6
ENDMDL
MODEL 6
REMARK VINA RESULT:      -7.2      1.458      5.215
REMARK  Name = 
REMARK  9 active torsions:
REMARK  status: ('A' for Active; 'I' for Inactive)
REMARK    1  A    between atoms: C_1  and  O_2
REMARK    2  A    between atoms: O_2  and  C_3
REMARK    3  A    between atoms: C_6  and  C_7
REMARK    4  A    between atoms: C_7  and  C_8
REMARK    5  A    between atoms: C_11  and  O_12
REMARK    6  A    between atoms: O_12  and  C_13
REMARK    7  A    between atoms: N_19  and  C_20
REMARK    8  A    between atoms: C_20  and  C_21
REMARK    9  A    between atoms: C_26  and  C_27
REMARK                            x       y       z     vdW  Elec       q    Type
REMARK                         _______ _______ _______ _____ _____    ______ ____
ROOT
ATOM      1  C   UNL     1       0.467  11.198  19.459  0.00  0.00    +0.000 C 
ATOM      2  N   UNL     1       0.266  11.573  20.862  0.00  0.00    +0.000 N 
ATOM      3  C   UNL     1       0.705  12.821  21.116  0.00  0.00    +0.000 C 
ATOM      4  N   UNL     1       0.496  13.484  22.189  0.00  0.00    +0.000 NA
ATOM      5  N   UNL     1       1.400  13.313  20.063  0.00  0.00    +0.000 N 
ATOM      6  C   UNL     1       1.320  12.445  18.999  0.00  0.00    +0.000 C 
ATOM      7  O   UNL     1       1.785  12.655  17.885  0.00  0.00    +0.000 OA
ATOM      8  H   UNL     1      -0.391  11.097  21.451  0.00  0.00    +0.000 HD
ATOM      9  H   UNL     1      -0.061  12.914  22.828  0.00  0.00    +0.000 HD
ENDROOT
BRANCH   1  13
ATOM     10  C   UNL     1      -3.373  11.000  17.352  0.00  0.00    +0.000 A 
ATOM     11  C   UNL     1      -3.197  11.895  18.404  0.00  0.00    +0.000 A 
ATOM     12  C   UNL     1      -1.978  11.953  19.090  0.00  0.00    +0.000 A 
ATOM     13  C   UNL     1      -0.896  11.124  18.733  0.00  0.00    +0.000 A 
ATOM     14  C   UNL     1      -1.128  10.173  17.723  0.00  0.00    +0.000 A 
ATOM     15  C   UNL     1      -2.346  10.117  17.035  0.00  0.00    +0.000 A 
BRANCH  10  17
ATOM     16  C   UNL     1      -5.640  11.613  17.512  0.00  0.00    +0.000 C 
ATOM     17  O   UNL     1      -4.592  11.039  16.735  0.00  0.00    +0.000 OA
ENDBRANCH  10  17
ENDBRANCH   1  13
BRANCH   1  18
ATOM     18  C   UNL     1       1.221   9.868  19.361  0.00  0.00    +0.000 A 
ATOM     19  C   UNL     1       1.827   9.454  18.162  0.00  0.00    +0.000 A 
ATOM     20  C   UNL     1       2.347   8.164  18.026  0.00  0.00    +0.000 A 
ATOM     21  C   UNL     1       2.286   7.261  19.082  0.00  0.00    +0.000 A 
ATOM     22  C   UNL     1       1.732   7.664  20.294  0.00  0.00    +0.000 A 
ATOM     23  C   UNL     1       1.213   8.955  20.432  0.00  0.00    +0.000 A 
BRANCH  21  24
ATOM     24  O   UNL     1       2.739   6.004  18.794  0.00  0.00    +0.000 OA
ATOM     25  C   UNL     1       4.144   5.877  18.628  0.00  0.00    +0.000 C 
ENDBRANCH  21  24
ENDBRANCH   1  18
BRANCH   5  26
ATOM     26  C   UNL     1       2.112  14.575  19.989  0.00  0.00    +0.000 C 
BRANCH  26  27
ATOM     27  C   UNL     1       1.340  15.628  19.206  0.00  0.00    +0.000 A 
ATOM     28  C   UNL     1      -0.048  15.734  19.422  0.00  0.00    +0.000 A 
ATOM     29  C   UNL     1      -0.817  16.686  18.756  0.00  0.00    +0.000 A 
ATOM     30  C   UNL     1      -0.214  17.552  17.855  0.00  0.00    +0.000 A 
ATOM     31  C   UNL     1       1.156  17.459  17.615  0.00  0.00    +0.000 A 
ATOM     32  C   UNL     1       1.946  16.496  18.270  0.00  0.00    +0.000 A 
ATOM     33  C   UNL     1       3.418  16.457  17.957  0.00  0.00    +0.000 C 
ENDBRANCH  26  27
ENDBRANCH   5  26
TORSDOF 6
ENDMDL
MODEL 7
REMARK VINA RESULT:      -7.2      1.457      5.300
REMARK  Name = 
REMARK  9 active torsions:
REMARK  status: ('A' for Active; 'I' for Inactive)
REMARK    1  A    between atoms: C_1  and  O_2
REMARK    2  A    between atoms: O_2  and  C_3
REMARK    3  A    between atoms: C_6  and  C_7
REMARK    4  A    between atoms: C_7  and  C_8
REMARK    5  A    between atoms: C_11  and  O_12
REMARK    6  A    between atoms: O_12  and  C_13
REMARK    7  A    between atoms: N_19  and  C_20
REMARK    8  A    between atoms: C_20  and  C_21
REMARK    9  A    between atoms: C_26  and  C_27
REMARK                            x       y       z     vdW  Elec       q    Type
REMARK                         _______ _______ _______ _____ _____    ______ ____
ROOT
ATOM      1  C   UNL     1       0.257  10.660  19.501  0.00  0.00    +0.000 C 
ATOM      2  N   UNL     1      -0.207  10.940  20.863  0.00  0.00    +0.000 N 
ATOM      3  C   UNL     1       0.210  12.145  21.299  0.00  0.00    +0.000 C 
ATOM      4  N   UNL     1      -0.188  12.736  22.359  0.00  0.00    +0.000 NA
ATOM      5  N   UNL     1       1.115  12.680  20.445  0.00  0.00    +0.000 N 
ATOM      6  C   UNL     1       1.222  11.896  19.319  0.00  0.00    +0.000 C 
ATOM      7  O   UNL     1       1.905  12.166  18.338  0.00  0.00    +0.000 OA
ATOM      8  H   UNL     1      -0.982  10.453  21.272  0.00  0.00    +0.000 HD
ATOM      9  H   UNL     1      -0.878  12.147  22.829  0.00  0.00    +0.000 HD
ENDROOT
BRANCH   1  13
ATOM     10  C   UNL     1      -3.162  10.774  16.759  0.00  0.00    +0.000 A 
ATOM     11  C   UNL     1      -2.170   9.810  16.601  0.00  0.00    +0.000 A 
ATOM     12  C   UNL     1      -1.069   9.776  17.464  0.00  0.00    +0.000 A 
ATOM     13  C   UNL     1      -0.936  10.702  18.519  0.00  0.00    +0.000 A 
ATOM     14  C   UNL     1      -1.909  11.714  18.604  0.00  0.00    +0.000 A 
ATOM     15  C   UNL     1      -3.011  11.745  17.743  0.00  0.00    +0.000 A 
BRANCH  10  17
ATOM     16  C   UNL     1      -3.855  10.267  14.567  0.00  0.00    +0.000 C 
ATOM     17  O   UNL     1      -4.205  10.704  15.877  0.00  0.00    +0.000 OA
ENDBRANCH  10  17
ENDBRANCH   1  13
BRANCH   1  18
ATOM     18  C   UNL     1       0.974   9.308  19.445  0.00  0.00    +0.000 A 
ATOM     19  C   UNL     1       1.041   8.465  20.568  0.00  0.00    +0.000 A 
ATOM     20  C   UNL     1       1.853   7.328  20.568  0.00  0.00    +0.000 A 
ATOM     21  C   UNL     1       2.608   6.996  19.447  0.00  0.00    +0.000 A 
ATOM     22  C   UNL     1       2.522   7.790  18.307  0.00  0.00    +0.000 A 
ATOM     23  C   UNL     1       1.708   8.929  18.306  0.00  0.00    +0.000 A 
BRANCH  21  24
ATOM     24  O   UNL     1       3.433   5.919  19.604  0.00  0.00    +0.000 OA
ATOM     25  C   UNL     1       2.801   4.708  19.999  0.00  0.00    +0.000 C 
ENDBRANCH  21  24
ENDBRANCH   1  18
BRANCH   5  26
ATOM     26  C   UNL     1       1.865  13.910  20.615  0.00  0.00    +0.000 C 
BRANCH  26  27
ATOM     27  C   UNL     1       1.319  15.042  19.757  0.00  0.00    +0.000 A 
ATOM     28  C   UNL     1      -0.057  15.336  19.838  0.00  0.00    +0.000 A 
ATOM     29  C   UNL     1      -0.626  16.370  19.097  0.00  0.00    +0.000 A 
ATOM     30  C   UNL     1       0.170  17.132  18.254  0.00  0.00    +0.000 A 
ATOM     31  C   UNL     1       1.531  16.854  18.147  0.00  0.00    +0.000 A 
ATOM     32  C   UNL     1       2.120  15.806  18.878  0.00  0.00    +0.000 A 
ATOM     33  C   UNL     1       3.596  15.566  18.707  0.00  0.00    +0.000 C 
ENDBRANCH  26  27
ENDBRANCH   5  26
TORSDOF 6
ENDMDL
MODEL 8
REMARK VINA RESULT:      -7.2      1.486      5.410
REMARK  Name = 
REMARK  9 active torsions:
REMARK  status: ('A' for Active; 'I' for Inactive)
REMARK    1  A    between atoms: C_1  and  O_2
REMARK    2  A    between atoms: O_2  and  C_3
REMARK    3  A    between atoms: C_6  and  C_7
REMARK    4  A    between atoms: C_7  and  C_8
REMARK    5  A    between atoms: C_11  and  O_12
REMARK    6  A    between atoms: O_12  and  C_13
REMARK    7  A    between atoms: N_19  and  C_20
REMARK    8  A    between atoms: C_20  and  C_21
REMARK    9  A    between atoms: C_26  and  C_27
REMARK                            x       y       z     vdW  Elec       q    Type
REMARK                         _______ _______ _______ _____ _____    ______ ____
ROOT
ATOM      1  C   UNL     1       0.116  11.235  19.631  0.00  0.00    +0.000 C 
ATOM      2  N   UNL     1       0.005  11.646  21.034  0.00  0.00    +0.000 N 
ATOM      3  C   UNL     1       0.540  12.865  21.245  0.00  0.00    +0.000 C 
ATOM      4  N   UNL     1       0.425  13.558  22.312  0.00  0.00    +0.000 NA
ATOM      5  N   UNL     1       1.219  13.291  20.153  0.00  0.00    +0.000 N 
ATOM      6  C   UNL     1       1.031  12.412  19.110  0.00  0.00    +0.000 C 
ATOM      7  O   UNL     1       1.459  12.572  17.973  0.00  0.00    +0.000 OA
ATOM      8  H   UNL     1      -0.656  11.227  21.660  0.00  0.00    +0.000 HD
ATOM      9  H   UNL     1      -0.141  13.039  22.986  0.00  0.00    +0.000 HD
ENDROOT
BRANCH   1  13
ATOM     10  C   UNL     1      -3.865  11.245  17.796  0.00  0.00    +0.000 A 
ATOM     11  C   UNL     1      -2.845  10.471  17.250  0.00  0.00    +0.000 A 
ATOM     12  C   UNL     1      -1.568  10.474  17.823  0.00  0.00    +0.000 A 
ATOM     13  C   UNL     1      -1.279  11.244  18.967  0.00  0.00    +0.000 A 
ATOM     14  C   UNL     1      -2.304  12.080  19.447  0.00  0.00    +0.000 A 
ATOM     15  C   UNL     1      -3.582  12.074  18.876  0.00  0.00    +0.000 A 
BRANCH  10  17
ATOM     16  C   UNL     1      -5.860  12.343  17.202  0.00  0.00    +0.000 C 
ATOM     17  O   UNL     1      -5.079  11.152  17.175  0.00  0.00    +0.000 OA
ENDBRANCH  10  17
ENDBRANCH   1  13
BRANCH   1  18
ATOM     18  C   UNL     1       0.772   9.855  19.526  0.00  0.00    +0.000 A 
ATOM     19  C   UNL     1       0.855   8.995  20.634  0.00  0.00    +0.000 A 
ATOM     20  C   UNL     1       1.617   7.825  20.582  0.00  0.00    +0.000 A 
ATOM     21  C   UNL     1       2.304   7.477  19.423  0.00  0.00    +0.000 A 
ATOM     22  C   UNL     1       2.199   8.290  18.298  0.00  0.00    +0.000 A 
ATOM     23  C   UNL     1       1.436   9.461  18.349  0.00  0.00    +0.000 A 
BRANCH  21  24
ATOM     24  O   UNL     1       3.089   6.364  19.529  0.00  0.00    +0.000 OA
ATOM     25  C   UNL     1       3.689   5.913  18.323  0.00  0.00    +0.000 C 
ENDBRANCH  21  24
ENDBRANCH   1  18
BRANCH   5  26
ATOM     26  C   UNL     1       2.011  14.498  20.024  0.00  0.00    +0.000 C 
BRANCH  26  27
ATOM     27  C   UNL     1       1.281  15.588  19.251  0.00  0.00    +0.000 A 
ATOM     28  C   UNL     1      -0.096  15.766  19.491  0.00  0.00    +0.000 A 
ATOM     29  C   UNL     1      -0.827  16.755  18.835  0.00  0.00    +0.000 A 
ATOM     30  C   UNL     1      -0.195  17.587  17.921  0.00  0.00    +0.000 A 
ATOM     31  C   UNL     1       1.163  17.422  17.658  0.00  0.00    +0.000 A 
ATOM     32  C   UNL     1       1.914  16.422  18.301  0.00  0.00    +0.000 A 
ATOM     33  C   UNL     1       3.376  16.305  17.963  0.00  0.00    +0.000 C 
ENDBRANCH  26  27
ENDBRANCH   5  26
TORSDOF 6
ENDMDL
MODEL 9
REMARK VINA RESULT:      -7.1      2.213      7.234
REMARK  Name = 
REMARK  9 active torsions:
REMARK  status: ('A' for Active; 'I' for Inactive)
REMARK    1  A    between atoms: C_1  and  O_2
REMARK    2  A    between atoms: O_2  and  C_3
REMARK    3  A    between atoms: C_6  and  C_7
REMARK    4  A    between atoms: C_7  and  C_8
REMARK    5  A    between atoms: C_11  and  O_12
REMARK    6  A    between atoms: O_12  and  C_13
REMARK    7  A    between atoms: N_19  and  C_20
REMARK    8  A    between atoms: C_20  and  C_21
REMARK    9  A    between atoms: C_26  and  C_27
REMARK                            x       y       z     vdW  Elec       q    Type
REMARK                         _______ _______ _______ _____ _____    ______ ____
ROOT
ATOM      1  C   UNL     1       0.728  10.087  19.174  0.00  0.00    +0.000 C 
ATOM      2  N   UNL     1       0.571   9.523  20.519  0.00  0.00    +0.000 N 
ATOM      3  C   UNL     1       1.436   8.514  20.744  0.00  0.00    +0.000 C 
ATOM      4  N   UNL     1       1.662   7.960  21.873  0.00  0.00    +0.000 NA
ATOM      5  N   UNL     1       2.071   8.157  19.602  0.00  0.00    +0.000 N 
ATOM      6  C   UNL     1       1.747   9.032  18.590  0.00  0.00    +0.000 C 
ATOM      7  O   UNL     1       2.226   9.009  17.462  0.00  0.00    +0.000 OA
ATOM      8  H   UNL     1       0.120  10.027  21.258  0.00  0.00    +0.000 HD
ATOM      9  H   UNL     1       1.079   8.406  22.584  0.00  0.00    +0.000 HD
ENDROOT
BRANCH   1  13
ATOM     10  C   UNL     1       2.422  14.122  19.446  0.00  0.00    +0.000 A 
ATOM     11  C   UNL     1       2.540  13.391  18.267  0.00  0.00    +0.000 A 
ATOM     12  C   UNL     1       2.013  12.097  18.178  0.00  0.00    +0.000 A 
ATOM     13  C   UNL     1       1.343  11.502  19.265  0.00  0.00    +0.000 A 
ATOM     14  C   UNL     1       1.311  12.230  20.469  0.00  0.00    +0.000 A 
ATOM     15  C   UNL     1       1.835  13.524  20.557  0.00  0.00    +0.000 A 
BRANCH  10  17
ATOM     16  C   UNL     1       2.453  16.220  18.380  0.00  0.00    +0.000 C 
ATOM     17  O   UNL     1       2.950  15.382  19.420  0.00  0.00    +0.000 OA
ENDBRANCH  10  17
ENDBRANCH   1  13
BRANCH   1  18
ATOM     18  C   UNL     1      -0.617  10.112  18.442  0.00  0.00    +0.000 A 
ATOM     19  C   UNL     1      -0.799   9.451  17.216  0.00  0.00    +0.000 A 
ATOM     20  C   UNL     1      -1.962   9.633  16.464  0.00  0.00    +0.000 A 
ATOM     21  C   UNL     1      -2.977  10.468  16.921  0.00  0.00    +0.000 A 
ATOM     22  C   UNL     1      -2.841  11.097  18.155  0.00  0.00    +0.000 A 
ATOM     23  C   UNL     1      -1.676  10.914  18.909  0.00  0.00    +0.000 A 
BRANCH  21  24
ATOM     24  O   UNL     1      -4.019  10.639  16.053  0.00  0.00    +0.000 OA
ATOM     25  C   UNL     1      -3.779  10.236  14.712  0.00  0.00    +0.000 C 
ENDBRANCH  21  24
ENDBRANCH   1  18
BRANCH   5  26
ATOM     26  C   UNL     1       2.994   7.055  19.415  0.00  0.00    +0.000 C 
BRANCH  26  27
ATOM     27  C   UNL     1       2.282   5.712  19.341  0.00  0.00    +0.000 A 
ATOM     28  C   UNL     1       1.401   5.366  20.385  0.00  0.00    +0.000 A 
ATOM     29  C   UNL     1       0.699   4.162  20.377  0.00  0.00    +0.000 A 
ATOM     30  C   UNL     1       0.866   3.274  19.324  0.00  0.00    +0.000 A 
ATOM     31  C   UNL     1       1.741   3.588  18.285  0.00  0.00    +0.000 A 
ATOM     32  C   UNL     1       2.467   4.793  18.283  0.00  0.00    +0.000 A 
ATOM     33  C   UNL     1       3.393   5.060  17.127  0.00  0.00    +0.000 C 
ENDBRANCH  26  27
ENDBRANCH   5  26
TORSDOF 6
ENDMDL
