MODEL 1
REMARK VINA RESULT:      -6.5      0.000      0.000
REMARK  Name = 
REMARK  3 active torsions:
REMARK  status: ('A' for Active; 'I' for Inactive)
REMARK    1  A    between atoms: C_2  and  S_3
REMARK    2  A    between atoms: C_2  and  N_13
REMARK    3  A    between atoms: S_3  and  N_4
REMARK                            x       y       z     vdW  Elec       q    Type
REMARK                         _______ _______ _______ _____ _____    ______ ____
ROOT
ATOM      1  N   UNL     1       4.467   5.383  18.854  0.00  0.00    +0.000 N 
ATOM      2  C   UNL     1       3.669   6.464  18.614  0.00  0.00    +0.000 A 
ATOM      3  C   UNL     1       2.417   5.986  18.281  0.00  0.00    +0.000 A 
ATOM      4  C   UNL     1       2.482   4.560  18.282  0.00  0.00    +0.000 A 
ATOM      5  C   UNL     1       1.545   3.545  18.010  0.00  0.00    +0.000 A 
ATOM      6  C   UNL     1       1.937   2.204  18.087  0.00  0.00    +0.000 A 
ATOM      7  C   UNL     1       3.244   1.868  18.422  0.00  0.00    +0.000 A 
ATOM      8  C   UNL     1       4.196   2.856  18.696  0.00  0.00    +0.000 A 
ATOM      9  C   UNL     1       3.794   4.203  18.623  0.00  0.00    +0.000 A 
ENDROOT
BRANCH   1  10
ATOM     10  S   UNL     1       6.127   5.502  19.109  0.00  0.00    +0.000 S 
BRANCH  10  12
ATOM     11  S   UNL     1       7.614   7.707  17.653  0.00  0.00    +0.000 S 
ATOM     12  C   UNL     1       6.716   6.281  17.629  0.00  0.00    +0.000 C 
BRANCH  12  13
ATOM     13  N   UNL     1       6.443   5.567  16.458  0.00  0.00    +0.000 N 
ATOM     14  C   UNL     1       5.442   5.949  15.462  0.00  0.00    +0.000 C 
ATOM     15  C   UNL     1       5.057   4.630  14.817  0.00  0.00    +0.000 C 
ATOM     16  C   UNL     1       6.380   3.883  14.762  0.00  0.00    +0.000 C 
ATOM     17  C   UNL     1       7.116   4.340  16.020  0.00  0.00    +0.000 C 
ENDBRANCH  12  13
ENDBRANCH  10  12
ENDBRANCH   1  10
TORSDOF 3
ENDMDL
MODEL 2
REMARK VINA RESULT:      -6.5      1.472      1.958
REMARK  Name = 
REMARK  3 active torsions:
REMARK  status: ('A' for Active; 'I' for Inactive)
REMARK    1  A    between atoms: C_2  and  S_3
REMARK    2  A    between atoms: C_2  and  N_13
REMARK    3  A    between atoms: S_3  and  N_4
REMARK                            x       y       z     vdW  Elec       q    Type
REMARK                         _______ _______ _______ _____ _____    ______ ____
ROOT
ATOM      1  N   UNL     1       3.023   5.870  18.804  0.00  0.00    +0.000 N 
ATOM      2  C   UNL     1       2.575   6.616  19.855  0.00  0.00    +0.000 A 
ATOM      3  C   UNL     1       1.701   5.828  20.578  0.00  0.00    +0.000 A 
ATOM      4  C   UNL     1       1.593   4.573  19.907  0.00  0.00    +0.000 A 
ATOM      5  C   UNL     1       0.856   3.400  20.156  0.00  0.00    +0.000 A 
ATOM      6  C   UNL     1       0.961   2.318  19.275  0.00  0.00    +0.000 A 
ATOM      7  C   UNL     1       1.780   2.396  18.154  0.00  0.00    +0.000 A 
ATOM      8  C   UNL     1       2.524   3.549  17.882  0.00  0.00    +0.000 A 
ATOM      9  C   UNL     1       2.418   4.632  18.776  0.00  0.00    +0.000 A 
ENDROOT
BRANCH   1  10
ATOM     10  S   UNL     1       3.963   6.503  17.559  0.00  0.00    +0.000 S 
BRANCH  10  12
ATOM     11  S   UNL     1       6.279   5.340  19.134  0.00  0.00    +0.000 S 
ATOM     12  C   UNL     1       5.473   5.579  17.674  0.00  0.00    +0.000 C 
BRANCH  12  13
ATOM     13  N   UNL     1       5.883   5.001  16.468  0.00  0.00    +0.000 N 
ATOM     14  C   UNL     1       7.272   4.907  16.019  0.00  0.00    +0.000 C 
ATOM     15  C   UNL     1       7.158   4.861  14.507  0.00  0.00    +0.000 C 
ATOM     16  C   UNL     1       5.911   4.019  14.288  0.00  0.00    +0.000 C 
ATOM     17  C   UNL     1       5.009   4.379  15.469  0.00  0.00    +0.000 C 
ENDBRANCH  12  13
ENDBRANCH  10  12
ENDBRANCH   1  10
TORSDOF 3
ENDMDL
MODEL 3
REMARK VINA RESULT:      -6.3      2.149      2.975
REMARK  Name = 
REMARK  3 active torsions:
REMARK  status: ('A' for Active; 'I' for Inactive)
REMARK    1  A    between atoms: C_2  and  S_3
REMARK    2  A    between atoms: C_2  and  N_13
REMARK    3  A    between atoms: S_3  and  N_4
REMARK                            x       y       z     vdW  Elec       q    Type
REMARK                         _______ _______ _______ _____ _____    ______ ____
ROOT
ATOM      1  N   UNL     1       3.927   4.361  18.051  0.00  0.00    +0.000 N 
ATOM      2  C   UNL     1       3.405   5.558  17.655  0.00  0.00    +0.000 A 
ATOM      3  C   UNL     1       2.510   5.960  18.627  0.00  0.00    +0.000 A 
ATOM      4  C   UNL     1       2.467   4.940  19.624  0.00  0.00    +0.000 A 
ATOM      5  C   UNL     1       1.742   4.783  20.821  0.00  0.00    +0.000 A 
ATOM      6  C   UNL     1       1.919   3.627  21.589  0.00  0.00    +0.000 A 
ATOM      7  C   UNL     1       2.797   2.632  21.177  0.00  0.00    +0.000 A 
ATOM      8  C   UNL     1       3.530   2.761  19.992  0.00  0.00    +0.000 A 
ATOM      9  C   UNL     1       3.351   3.929  19.226  0.00  0.00    +0.000 A 
ENDROOT
BRANCH   1  10
ATOM     10  S   UNL     1       4.921   3.420  17.071  0.00  0.00    +0.000 S 
BRANCH  10  12
ATOM     11  S   UNL     1       5.802   4.942  14.601  0.00  0.00    +0.000 S 
ATOM     12  C   UNL     1       5.940   4.616  16.249  0.00  0.00    +0.000 C 
BRANCH  12  13
ATOM     13  N   UNL     1       6.799   5.319  17.100  0.00  0.00    +0.000 N 
ATOM     14  C   UNL     1       7.698   4.699  18.074  0.00  0.00    +0.000 C 
ATOM     15  C   UNL     1       7.869   5.770  19.136  0.00  0.00    +0.000 C 
ATOM     16  C   UNL     1       7.907   7.051  18.319  0.00  0.00    +0.000 C 
ATOM     17  C   UNL     1       6.962   6.775  17.151  0.00  0.00    +0.000 C 
ENDBRANCH  12  13
ENDBRANCH  10  12
ENDBRANCH   1  10
TORSDOF 3
ENDMDL
MODEL 4
REMARK VINA RESULT:      -6.2      2.159      2.845
REMARK  Name = 
REMARK  3 active torsions:
REMARK  status: ('A' for Active; 'I' for Inactive)
REMARK    1  A    between atoms: C_2  and  S_3
REMARK    2  A    between atoms: C_2  and  N_13
REMARK    3  A    between atoms: S_3  and  N_4
REMARK                            x       y       z     vdW  Elec       q    Type
REMARK                         _______ _______ _______ _____ _____    ______ ____
ROOT
ATOM      1  N   UNL     1       3.777   4.246  18.042  0.00  0.00    +0.000 N 
ATOM      2  C   UNL     1       3.132   5.370  17.615  0.00  0.00    +0.000 A 
ATOM      3  C   UNL     1       2.223   5.722  18.593  0.00  0.00    +0.000 A 
ATOM      4  C   UNL     1       2.300   4.744  19.629  0.00  0.00    +0.000 A 
ATOM      5  C   UNL     1       1.620   4.566  20.849  0.00  0.00    +0.000 A 
ATOM      6  C   UNL     1       1.925   3.465  21.656  0.00  0.00    +0.000 A 
ATOM      7  C   UNL     1       2.888   2.543  21.260  0.00  0.00    +0.000 A 
ATOM      8  C   UNL     1       3.579   2.694  20.053  0.00  0.00    +0.000 A 
ATOM      9  C   UNL     1       3.271   3.808  19.248  0.00  0.00    +0.000 A 
ENDROOT
BRANCH   1  10
ATOM     10  S   UNL     1       4.837   3.366  17.075  0.00  0.00    +0.000 S 
BRANCH  10  12
ATOM     11  S   UNL     1       5.823   4.825  14.607  0.00  0.00    +0.000 S 
ATOM     12  C   UNL     1       5.805   4.621  16.279  0.00  0.00    +0.000 C 
BRANCH  12  13
ATOM     13  N   UNL     1       6.478   5.471  17.163  0.00  0.00    +0.000 N 
ATOM     14  C   UNL     1       6.356   6.929  17.171  0.00  0.00    +0.000 C 
ATOM     15  C   UNL     1       7.676   7.395  17.759  0.00  0.00    +0.000 C 
ATOM     16  C   UNL     1       7.961   6.346  18.821  0.00  0.00    +0.000 C 
ATOM     17  C   UNL     1       7.392   5.056  18.231  0.00  0.00    +0.000 C 
ENDBRANCH  12  13
ENDBRANCH  10  12
ENDBRANCH   1  10
TORSDOF 3
ENDMDL
MODEL 5
REMARK VINA RESULT:      -6.1      2.133      3.447
REMARK  Name = 
REMARK  3 active torsions:
REMARK  status: ('A' for Active; 'I' for Inactive)
REMARK    1  A    between atoms: C_2  and  S_3
REMARK    2  A    between atoms: C_2  and  N_13
REMARK    3  A    between atoms: S_3  and  N_4
REMARK                            x       y       z     vdW  Elec       q    Type
REMARK                         _______ _______ _______ _____ _____    ______ ____
ROOT
ATOM      1  N   UNL     1       3.677   4.204  17.754  0.00  0.00    +0.000 N 
ATOM      2  C   UNL     1       4.112   2.948  17.442  0.00  0.00    +0.000 A 
ATOM      3  C   UNL     1       3.703   2.105  18.457  0.00  0.00    +0.000 A 
ATOM      4  C   UNL     1       3.032   2.899  19.435  0.00  0.00    +0.000 A 
ATOM      5  C   UNL     1       2.425   2.606  20.671  0.00  0.00    +0.000 A 
ATOM      6  C   UNL     1       1.851   3.639  21.420  0.00  0.00    +0.000 A 
ATOM      7  C   UNL     1       1.882   4.950  20.957  0.00  0.00    +0.000 A 
ATOM      8  C   UNL     1       2.479   5.269  19.733  0.00  0.00    +0.000 A 
ATOM      9  C   UNL     1       3.050   4.224  18.981  0.00  0.00    +0.000 A 
ENDROOT
BRANCH   1  10
ATOM     10  S   UNL     1       4.117   5.575  16.883  0.00  0.00    +0.000 S 
BRANCH  10  12
ATOM     11  S   UNL     1       6.129   4.476  14.898  0.00  0.00    +0.000 S 
ATOM     12  C   UNL     1       5.777   5.220  16.368  0.00  0.00    +0.000 C 
BRANCH  12  13
ATOM     13  N   UNL     1       6.761   5.687  17.245  0.00  0.00    +0.000 N 
ATOM     14  C   UNL     1       7.593   4.835  18.095  0.00  0.00    +0.000 C 
ATOM     15  C   UNL     1       7.959   5.737  19.260  0.00  0.00    +0.000 C 
ATOM     16  C   UNL     1       8.157   7.088  18.589  0.00  0.00    +0.000 C 
ATOM     17  C   UNL     1       7.139   7.089  17.449  0.00  0.00    +0.000 C 
ENDBRANCH  12  13
ENDBRANCH  10  12
ENDBRANCH   1  10
TORSDOF 3
ENDMDL
MODEL 6
REMARK VINA RESULT:      -6.1      1.751      4.980
REMARK  Name = 
REMARK  3 active torsions:
REMARK  status: ('A' for Active; 'I' for Inactive)
REMARK    1  A    between atoms: C_2  and  S_3
REMARK    2  A    between atoms: C_2  and  N_13
REMARK    3  A    between atoms: S_3  and  N_4
REMARK                            x       y       z     vdW  Elec       q    Type
REMARK                         _______ _______ _______ _____ _____    ______ ____
ROOT
ATOM      1  N   UNL     1       5.758   5.554  18.150  0.00  0.00    +0.000 N 
ATOM      2  C   UNL     1       6.753   6.479  18.280  0.00  0.00    +0.000 A 
ATOM      3  C   UNL     1       7.440   6.519  17.083  0.00  0.00    +0.000 A 
ATOM      4  C   UNL     1       6.855   5.548  16.216  0.00  0.00    +0.000 A 
ATOM      5  C   UNL     1       7.133   5.129  14.901  0.00  0.00    +0.000 A 
ATOM      6  C   UNL     1       6.364   4.113  14.322  0.00  0.00    +0.000 A 
ATOM      7  C   UNL     1       5.335   3.511  15.037  0.00  0.00    +0.000 A 
ATOM      8  C   UNL     1       5.037   3.907  16.346  0.00  0.00    +0.000 A 
ATOM      9  C   UNL     1       5.811   4.933  16.920  0.00  0.00    +0.000 A 
ENDROOT
BRANCH   1  10
ATOM     10  S   UNL     1       4.795   5.048  19.434  0.00  0.00    +0.000 S 
BRANCH  10  12
ATOM     11  S   UNL     1       2.864   7.046  18.220  0.00  0.00    +0.000 S 
ATOM     12  C   UNL     1       3.167   5.560  18.953  0.00  0.00    +0.000 C 
BRANCH  12  13
ATOM     13  N   UNL     1       2.179   4.591  19.157  0.00  0.00    +0.000 N 
ATOM     14  C   UNL     1       1.375   4.463  20.373  0.00  0.00    +0.000 C 
ATOM     15  C   UNL     1       0.996   2.994  20.400  0.00  0.00    +0.000 C 
ATOM     16  C   UNL     1       0.760   2.680  18.931  0.00  0.00    +0.000 C 
ATOM     17  C   UNL     1       1.768   3.563  18.196  0.00  0.00    +0.000 C 
ENDBRANCH  12  13
ENDBRANCH  10  12
ENDBRANCH   1  10
TORSDOF 3
ENDMDL
MODEL 7
REMARK VINA RESULT:      -6.0      2.321      5.294
REMARK  Name = 
REMARK  3 active torsions:
REMARK  status: ('A' for Active; 'I' for Inactive)
REMARK    1  A    between atoms: C_2  and  S_3
REMARK    2  A    between atoms: C_2  and  N_13
REMARK    3  A    between atoms: S_3  and  N_4
REMARK                            x       y       z     vdW  Elec       q    Type
REMARK                         _______ _______ _______ _____ _____    ______ ____
ROOT
ATOM      1  N   UNL     1       4.812   3.672  18.010  0.00  0.00    +0.000 N 
ATOM      2  C   UNL     1       4.441   3.532  16.704  0.00  0.00    +0.000 A 
ATOM      3  C   UNL     1       5.224   4.390  15.957  0.00  0.00    +0.000 A 
ATOM      4  C   UNL     1       6.069   5.102  16.861  0.00  0.00    +0.000 A 
ATOM      5  C   UNL     1       7.048   6.100  16.692  0.00  0.00    +0.000 A 
ATOM      6  C   UNL     1       7.707   6.618  17.812  0.00  0.00    +0.000 A 
ATOM      7  C   UNL     1       7.398   6.161  19.088  0.00  0.00    +0.000 A 
ATOM      8  C   UNL     1       6.429   5.170  19.286  0.00  0.00    +0.000 A 
ATOM      9  C   UNL     1       5.774   4.649  18.153  0.00  0.00    +0.000 A 
ENDROOT
BRANCH   1  10
ATOM     10  S   UNL     1       3.986   2.950  19.286  0.00  0.00    +0.000 S 
BRANCH  10  12
ATOM     11  S   UNL     1       1.010   2.515  18.900  0.00  0.00    +0.000 S 
ATOM     12  C   UNL     1       2.327   3.547  19.092  0.00  0.00    +0.000 C 
BRANCH  12  13
ATOM     13  N   UNL     1       2.203   4.936  19.200  0.00  0.00    +0.000 N 
ATOM     14  C   UNL     1       2.171   5.861  18.066  0.00  0.00    +0.000 C 
ATOM     15  C   UNL     1       2.694   7.161  18.649  0.00  0.00    +0.000 C 
ATOM     16  C   UNL     1       2.094   7.170  20.045  0.00  0.00    +0.000 C 
ATOM     17  C   UNL     1       2.065   5.696  20.446  0.00  0.00    +0.000 C 
ENDBRANCH  12  13
ENDBRANCH  10  12
ENDBRANCH   1  10
TORSDOF 3
ENDMDL
MODEL 8
REMARK VINA RESULT:      -6.0      2.116      4.981
REMARK  Name = 
REMARK  3 active torsions:
REMARK  status: ('A' for Active; 'I' for Inactive)
REMARK    1  A    between atoms: C_2  and  S_3
REMARK    2  A    between atoms: C_2  and  N_13
REMARK    3  A    between atoms: S_3  and  N_4
REMARK                            x       y       z     vdW  Elec       q    Type
REMARK                         _______ _______ _______ _____ _____    ______ ____
ROOT
ATOM      1  N   UNL     1       5.355   4.334  18.690  0.00  0.00    +0.000 N 
ATOM      2  C   UNL     1       6.103   5.232  19.393  0.00  0.00    +0.000 A 
ATOM      3  C   UNL     1       6.882   5.922  18.484  0.00  0.00    +0.000 A 
ATOM      4  C   UNL     1       6.616   5.384  17.190  0.00  0.00    +0.000 A 
ATOM      5  C   UNL     1       7.110   5.666  15.902  0.00  0.00    +0.000 A 
ATOM      6  C   UNL     1       6.645   4.929  14.807  0.00  0.00    +0.000 A 
ATOM      7  C   UNL     1       5.707   3.918  14.982  0.00  0.00    +0.000 A 
ATOM      8  C   UNL     1       5.199   3.617  16.251  0.00  0.00    +0.000 A 
ATOM      9  C   UNL     1       5.667   4.366  17.347  0.00  0.00    +0.000 A 
ENDROOT
BRANCH   1  10
ATOM     10  S   UNL     1       4.401   3.155  19.421  0.00  0.00    +0.000 S 
BRANCH  10  12
ATOM     11  S   UNL     1       1.569   2.481  18.573  0.00  0.00    +0.000 S 
ATOM     12  C   UNL     1       2.752   3.616  18.961  0.00  0.00    +0.000 C 
BRANCH  12  13
ATOM     13  N   UNL     1       2.501   4.990  19.033  0.00  0.00    +0.000 N 
ATOM     14  C   UNL     1       2.358   5.873  17.875  0.00  0.00    +0.000 C 
ATOM     15  C   UNL     1       2.771   7.233  18.408  0.00  0.00    +0.000 C 
ATOM     16  C   UNL     1       2.202   7.229  19.818  0.00  0.00    +0.000 C 
ATOM     17  C   UNL     1       2.319   5.771  20.261  0.00  0.00    +0.000 C 
ENDBRANCH  12  13
ENDBRANCH  10  12
ENDBRANCH   1  10
TORSDOF 3
ENDMDL
MODEL 9
REMARK VINA RESULT:      -6.0      2.264      5.284
REMARK  Name = 
REMARK  3 active torsions:
REMARK  status: ('A' for Active; 'I' for Inactive)
REMARK    1  A    between atoms: C_2  and  S_3
REMARK    2  A    between atoms: C_2  and  N_13
REMARK    3  A    between atoms: S_3  and  N_4
REMARK                            x       y       z     vdW  Elec       q    Type
REMARK                         _______ _______ _______ _____ _____    ______ ____
ROOT
ATOM      1  N   UNL     1       4.431   6.017  18.211  0.00  0.00    +0.000 N 
ATOM      2  C   UNL     1       4.993   5.641  19.396  0.00  0.00    +0.000 A 
ATOM      3  C   UNL     1       6.200   5.035  19.106  0.00  0.00    +0.000 A 
ATOM      4  C   UNL     1       6.344   5.012  17.687  0.00  0.00    +0.000 A 
ATOM      5  C   UNL     1       7.338   4.519  16.820  0.00  0.00    +0.000 A 
ATOM      6  C   UNL     1       7.171   4.641  15.436  0.00  0.00    +0.000 A 
ATOM      7  C   UNL     1       6.030   5.238  14.912  0.00  0.00    +0.000 A 
ATOM      8  C   UNL     1       5.026   5.737  15.750  0.00  0.00    +0.000 A 
ATOM      9  C   UNL     1       5.203   5.615  17.141  0.00  0.00    +0.000 A 
ENDROOT
BRANCH   1  10
ATOM     10  S   UNL     1       2.866   6.624  18.084  0.00  0.00    +0.000 S 
BRANCH  10  12
ATOM     11  S   UNL     1       1.744   7.529  20.752  0.00  0.00    +0.000 S 
ATOM     12  C   UNL     1       2.168   6.298  19.681  0.00  0.00    +0.000 C 
BRANCH  12  13
ATOM     13  N   UNL     1       1.925   4.945  19.935  0.00  0.00    +0.000 N 
ATOM     14  C   UNL     1       1.530   3.965  18.922  0.00  0.00    +0.000 C 
ATOM     15  C   UNL     1       0.768   2.918  19.714  0.00  0.00    +0.000 C 
ATOM     16  C   UNL     1       1.549   2.845  21.016  0.00  0.00    +0.000 C 
ATOM     17  C   UNL     1       2.040   4.276  21.235  0.00  0.00    +0.000 C 
ENDBRANCH  12  13
ENDBRANCH  10  12
ENDBRANCH   1  10
TORSDOF 3
ENDMDL
