MODEL 1
REMARK VINA RESULT:      -8.4      0.000      0.000
REMARK  Name = 
REMARK  5 active torsions:
REMARK  status: ('A' for Active; 'I' for Inactive)
REMARK    1  A    between atoms: C_2  and  C_18
REMARK    2  A    between atoms: N_3  and  C_4
REMARK    3  A    between atoms: C_6  and  O_7
REMARK    4  A    between atoms: C_9  and  C_10
REMARK    5  A    between atoms: C_10  and  C_11
REMARK                            x       y       z     vdW  Elec       q    Type
REMARK                         _______ _______ _______ _____ _____    ______ ____
ROOT
ATOM      1  C   UNL     1       2.923   5.013  18.587  0.00  0.00    +0.000 A 
ATOM      2  C   UNL     1       2.118   3.923  18.919  0.00  0.00    +0.000 A 
ATOM      3  C   UNL     1       1.196   4.038  19.957  0.00  0.00    +0.000 A 
ATOM      4  C   UNL     1       1.052   5.227  20.664  0.00  0.00    +0.000 A 
ATOM      5  C   UNL     1       1.861   6.325  20.356  0.00  0.00    +0.000 A 
ATOM      6  C   UNL     1       2.811   6.199  19.328  0.00  0.00    +0.000 A 
ENDROOT
BRANCH   1   9
ATOM      7  O   UNL     1       5.740   4.100  18.560  0.00  0.00    +0.000 OA
ATOM      8  C   UNL     1       5.175   4.589  17.588  0.00  0.00    +0.000 C 
ATOM      9  N   UNL     1       3.856   5.000  17.530  0.00  0.00    +0.000 N 
ATOM     10  H   UNL     1       3.485   5.263  16.623  0.00  0.00    +0.000 HD
BRANCH   8  11
ATOM     11  C   UNL     1       5.930   4.655  16.317  0.00  0.00    +0.000 A 
ATOM     12  C   UNL     1       5.580   3.762  15.295  0.00  0.00    +0.000 A 
ATOM     13  C   UNL     1       6.252   3.796  14.075  0.00  0.00    +0.000 A 
ATOM     14  C   UNL     1       7.264   4.724  13.914  0.00  0.00    +0.000 A 
ATOM     15  N   UNL     1       7.641   5.592  14.878  0.00  0.00    +0.000 NA
ATOM     16  C   UNL     1       6.977   5.530  16.060  0.00  0.00    +0.000 A 
ATOM     17 CL   UNL     1       7.610   6.652  17.203  0.00  0.00    +0.000 Cl
ENDBRANCH   8  11
ENDBRANCH   1   9
BRANCH   3  18
ATOM     18  O   UNL     1       0.398   2.989  20.312  0.00  0.00    +0.000 OA
ATOM     19  H   UNL     1      -0.524   3.298  20.324  0.00  0.00    +0.000 HD
ENDBRANCH   3  18
BRANCH   5  20
ATOM     20  C   UNL     1       1.687   7.636  21.088  0.00  0.00    +0.000 C 
BRANCH  20  21
ATOM     21  C   UNL     1       1.042   8.725  20.260  0.00  0.00    +0.000 A 
ATOM     22  C   UNL     1       1.514   9.016  18.972  0.00  0.00    +0.000 A 
ATOM     23  C   UNL     1       0.898   9.995  18.192  0.00  0.00    +0.000 A 
ATOM     24  C   UNL     1      -0.192  10.704  18.692  0.00  0.00    +0.000 A 
ATOM     25  C   UNL     1      -0.656  10.443  19.980  0.00  0.00    +0.000 A 
ATOM     26  C   UNL     1      -0.040   9.464  20.763  0.00  0.00    +0.000 A 
ENDBRANCH  20  21
ENDBRANCH   5  20
TORSDOF 5
ENDMDL
MODEL 2
REMARK VINA RESULT:      -8.3      5.148      7.377
REMARK  Name = 
REMARK  5 active torsions:
REMARK  status: ('A' for Active; 'I' for Inactive)
REMARK    1  A    between atoms: C_2  and  C_18
REMARK    2  A    between atoms: N_3  and  C_4
REMARK    3  A    between atoms: C_6  and  O_7
REMARK    4  A    between atoms: C_9  and  C_10
REMARK    5  A    between atoms: C_10  and  C_11
REMARK                            x       y       z     vdW  Elec       q    Type
REMARK                         _______ _______ _______ _____ _____    ______ ____
ROOT
ATOM      1  C   UNL     1       8.149   8.162  18.142  0.00  0.00    +0.000 A 
ATOM      2  C   UNL     1       8.486   7.277  19.166  0.00  0.00    +0.000 A 
ATOM      3  C   UNL     1       7.790   6.077  19.295  0.00  0.00    +0.000 A 
ATOM      4  C   UNL     1       6.770   5.737  18.414  0.00  0.00    +0.000 A 
ATOM      5  C   UNL     1       6.408   6.619  17.390  0.00  0.00    +0.000 A 
ATOM      6  C   UNL     1       7.090   7.842  17.278  0.00  0.00    +0.000 A 
ENDROOT
BRANCH   1   9
ATOM      7  O   UNL     1       9.068  10.212  20.072  0.00  0.00    +0.000 OA
ATOM      8  C   UNL     1       9.197  10.316  18.857  0.00  0.00    +0.000 C 
ATOM      9  N   UNL     1       8.821   9.380  17.911  0.00  0.00    +0.000 N 
ATOM     10  H   UNL     1       9.108   9.541  16.952  0.00  0.00    +0.000 HD
BRANCH   8  11
ATOM     11  C   UNL     1       9.919  11.502  18.344  0.00  0.00    +0.000 A 
ATOM     12  C   UNL     1      11.283  11.625  18.644  0.00  0.00    +0.000 A 
ATOM     13  C   UNL     1      12.008  12.716  18.170  0.00  0.00    +0.000 A 
ATOM     14  C   UNL     1      11.343  13.660  17.410  0.00  0.00    +0.000 A 
ATOM     15  N   UNL     1      10.028  13.586  17.111  0.00  0.00    +0.000 NA
ATOM     16  C   UNL     1       9.343  12.518  17.594  0.00  0.00    +0.000 A 
ATOM     17 CL   UNL     1       7.672  12.597  17.182  0.00  0.00    +0.000 Cl
ENDBRANCH   8  11
ENDBRANCH   1   9
BRANCH   3  18
ATOM     18  O   UNL     1       8.090   5.192  20.290  0.00  0.00    +0.000 OA
ATOM     19  H   UNL     1       8.451   5.691  21.043  0.00  0.00    +0.000 HD
ENDBRANCH   3  18
BRANCH   5  20
ATOM     20  C   UNL     1       5.330   6.244  16.400  0.00  0.00    +0.000 C 
BRANCH  20  21
ATOM     21  C   UNL     1       4.195   5.441  16.997  0.00  0.00    +0.000 A 
ATOM     22  C   UNL     1       3.230   6.061  17.804  0.00  0.00    +0.000 A 
ATOM     23  C   UNL     1       2.162   5.330  18.326  0.00  0.00    +0.000 A 
ATOM     24  C   UNL     1       2.050   3.967  18.057  0.00  0.00    +0.000 A 
ATOM     25  C   UNL     1       3.016   3.333  17.277  0.00  0.00    +0.000 A 
ATOM     26  C   UNL     1       4.085   4.063  16.755  0.00  0.00    +0.000 A 
ENDBRANCH  20  21
ENDBRANCH   5  20
TORSDOF 5
ENDMDL
MODEL 3
REMARK VINA RESULT:      -8.1      3.463      5.307
REMARK  Name = 
REMARK  5 active torsions:
REMARK  status: ('A' for Active; 'I' for Inactive)
REMARK    1  A    between atoms: C_2  and  C_18
REMARK    2  A    between atoms: N_3  and  C_4
REMARK    3  A    between atoms: C_6  and  O_7
REMARK    4  A    between atoms: C_9  and  C_10
REMARK    5  A    between atoms: C_10  and  C_11
REMARK                            x       y       z     vdW  Elec       q    Type
REMARK                         _______ _______ _______ _____ _____    ______ ____
ROOT
ATOM      1  C   UNL     1       1.284   8.413  20.910  0.00  0.00    +0.000 A 
ATOM      2  C   UNL     1       0.857   8.823  22.173  0.00  0.00    +0.000 A 
ATOM      3  C   UNL     1       0.154  10.018  22.307  0.00  0.00    +0.000 A 
ATOM      4  C   UNL     1      -0.143  10.808  21.202  0.00  0.00    +0.000 A 
ATOM      5  C   UNL     1       0.289  10.420  19.930  0.00  0.00    +0.000 A 
ATOM      6  C   UNL     1       1.024   9.229  19.798  0.00  0.00    +0.000 A 
ENDROOT
BRANCH   1   9
ATOM      7  O   UNL     1       2.307   7.285  18.370  0.00  0.00    +0.000 OA
ATOM      8  C   UNL     1       2.394   6.713  19.451  0.00  0.00    +0.000 C 
ATOM      9  N   UNL     1       1.967   7.202  20.672  0.00  0.00    +0.000 N 
ATOM     10  H   UNL     1       2.222   6.679  21.503  0.00  0.00    +0.000 HD
BRANCH   8  11
ATOM     11  C   UNL     1       3.115   5.421  19.488  0.00  0.00    +0.000 A 
ATOM     12  C   UNL     1       4.466   5.409  19.111  0.00  0.00    +0.000 A 
ATOM     13  C   UNL     1       5.191   4.220  19.143  0.00  0.00    +0.000 A 
ATOM     14  C   UNL     1       4.540   3.071  19.549  0.00  0.00    +0.000 A 
ATOM     15  N   UNL     1       3.238   3.037  19.906  0.00  0.00    +0.000 NA
ATOM     16  C   UNL     1       2.552   4.207  19.855  0.00  0.00    +0.000 A 
ATOM     17 CL   UNL     1       0.896   3.991  20.279  0.00  0.00    +0.000 Cl
ENDBRANCH   8  11
ENDBRANCH   1   9
BRANCH   3  18
ATOM     18  O   UNL     1      -0.271  10.453  23.530  0.00  0.00    +0.000 OA
ATOM     19  H   UNL     1      -1.178  10.791  23.433  0.00  0.00    +0.000 HD
ENDBRANCH   3  18
BRANCH   5  20
ATOM     20  C   UNL     1      -0.062  11.247  18.715  0.00  0.00    +0.000 C 
BRANCH  20  21
ATOM     21  C   UNL     1      -1.462  11.011  18.191  0.00  0.00    +0.000 A 
ATOM     22  C   UNL     1      -2.539  11.770  18.670  0.00  0.00    +0.000 A 
ATOM     23  C   UNL     1      -3.826  11.579  18.162  0.00  0.00    +0.000 A 
ATOM     24  C   UNL     1      -4.052  10.621  17.176  0.00  0.00    +0.000 A 
ATOM     25  C   UNL     1      -2.995   9.843  16.709  0.00  0.00    +0.000 A 
ATOM     26  C   UNL     1      -1.708  10.032  17.217  0.00  0.00    +0.000 A 
ENDBRANCH  20  21
ENDBRANCH   5  20
TORSDOF 5
ENDMDL
MODEL 4
REMARK VINA RESULT:      -8.0      5.308      7.524
REMARK  Name = 
REMARK  5 active torsions:
REMARK  status: ('A' for Active; 'I' for Inactive)
REMARK    1  A    between atoms: C_2  and  C_18
REMARK    2  A    between atoms: N_3  and  C_4
REMARK    3  A    between atoms: C_6  and  O_7
REMARK    4  A    between atoms: C_9  and  C_10
REMARK    5  A    between atoms: C_10  and  C_11
REMARK                            x       y       z     vdW  Elec       q    Type
REMARK                         _______ _______ _______ _____ _____    ______ ____
ROOT
ATOM      1  C   UNL     1       8.088   8.360  18.113  0.00  0.00    +0.000 A 
ATOM      2  C   UNL     1       8.570   7.468  19.071  0.00  0.00    +0.000 A 
ATOM      3  C   UNL     1       8.054   6.175  19.128  0.00  0.00    +0.000 A 
ATOM      4  C   UNL     1       7.074   5.750  18.238  0.00  0.00    +0.000 A 
ATOM      5  C   UNL     1       6.568   6.635  17.281  0.00  0.00    +0.000 A 
ATOM      6  C   UNL     1       7.067   7.948  17.242  0.00  0.00    +0.000 A 
ENDROOT
BRANCH   1   9
ATOM      7  O   UNL     1       9.267  10.193  20.118  0.00  0.00    +0.000 OA
ATOM      8  C   UNL     1       9.088  10.496  18.943  0.00  0.00    +0.000 C 
ATOM      9  N   UNL     1       8.576   9.674  17.955  0.00  0.00    +0.000 N 
ATOM     10  H   UNL     1       8.606  10.012  17.000  0.00  0.00    +0.000 HD
BRANCH   8  11
ATOM     11  C   UNL     1       9.557  11.827  18.499  0.00  0.00    +0.000 A 
ATOM     12  C   UNL     1       8.619  12.700  17.930  0.00  0.00    +0.000 A 
ATOM     13  C   UNL     1       9.010  13.970  17.509  0.00  0.00    +0.000 A 
ATOM     14  C   UNL     1      10.335  14.329  17.667  0.00  0.00    +0.000 A 
ATOM     15  N   UNL     1      11.272  13.513  18.197  0.00  0.00    +0.000 NA
ATOM     16  C   UNL     1      10.867  12.278  18.588  0.00  0.00    +0.000 A 
ATOM     17 CL   UNL     1      12.181  11.338  19.183  0.00  0.00    +0.000 Cl
ENDBRANCH   8  11
ENDBRANCH   1   9
BRANCH   3  18
ATOM     18  O   UNL     1       8.498   5.279  20.058  0.00  0.00    +0.000 OA
ATOM     19  H   UNL     1       7.955   4.475  19.989  0.00  0.00    +0.000 HD
ENDBRANCH   3  18
BRANCH   5  20
ATOM     20  C   UNL     1       5.533   6.174  16.281  0.00  0.00    +0.000 C 
BRANCH  20  21
ATOM     21  C   UNL     1       4.351   5.462  16.900  0.00  0.00    +0.000 A 
ATOM     22  C   UNL     1       3.418   6.167  17.674  0.00  0.00    +0.000 A 
ATOM     23  C   UNL     1       2.307   5.520  18.217  0.00  0.00    +0.000 A 
ATOM     24  C   UNL     1       2.119   4.156  18.000  0.00  0.00    +0.000 A 
ATOM     25  C   UNL     1       3.050   3.437  17.254  0.00  0.00    +0.000 A 
ATOM     26  C   UNL     1       4.163   4.084  16.711  0.00  0.00    +0.000 A 
ENDBRANCH  20  21
ENDBRANCH   5  20
TORSDOF 5
ENDMDL
MODEL 5
REMARK VINA RESULT:      -8.0      2.964      7.069
REMARK  Name = 
REMARK  5 active torsions:
REMARK  status: ('A' for Active; 'I' for Inactive)
REMARK    1  A    between atoms: C_2  and  C_18
REMARK    2  A    between atoms: N_3  and  C_4
REMARK    3  A    between atoms: C_6  and  O_7
REMARK    4  A    between atoms: C_9  and  C_10
REMARK    5  A    between atoms: C_10  and  C_11
REMARK                            x       y       z     vdW  Elec       q    Type
REMARK                         _______ _______ _______ _____ _____    ______ ____
ROOT
ATOM      1  C   UNL     1       4.076   6.633  17.378  0.00  0.00    +0.000 A 
ATOM      2  C   UNL     1       4.996   6.737  16.335  0.00  0.00    +0.000 A 
ATOM      3  C   UNL     1       5.523   5.580  15.763  0.00  0.00    +0.000 A 
ATOM      4  C   UNL     1       5.139   4.319  16.205  0.00  0.00    +0.000 A 
ATOM      5  C   UNL     1       4.229   4.195  17.259  0.00  0.00    +0.000 A 
ATOM      6  C   UNL     1       3.720   5.362  17.856  0.00  0.00    +0.000 A 
ENDROOT
BRANCH   1   9
ATOM      7  O   UNL     1       1.220   7.411  17.461  0.00  0.00    +0.000 OA
ATOM      8  C   UNL     1       2.119   8.073  17.967  0.00  0.00    +0.000 C 
ATOM      9  N   UNL     1       3.462   7.745  17.991  0.00  0.00    +0.000 N 
ATOM     10  H   UNL     1       4.076   8.318  18.560  0.00  0.00    +0.000 HD
BRANCH   8  11
ATOM     11  C   UNL     1       1.736   9.288  18.721  0.00  0.00    +0.000 A 
ATOM     12  C   UNL     1       1.875  10.529  18.084  0.00  0.00    +0.000 A 
ATOM     13  C   UNL     1       1.514  11.700  18.748  0.00  0.00    +0.000 A 
ATOM     14  C   UNL     1       1.026  11.594  20.037  0.00  0.00    +0.000 A 
ATOM     15  N   UNL     1       0.890  10.420  20.690  0.00  0.00    +0.000 NA
ATOM     16  C   UNL     1       1.260   9.296  20.024  0.00  0.00    +0.000 A 
ATOM     17 CL   UNL     1       1.086   7.892  21.006  0.00  0.00    +0.000 Cl
ENDBRANCH   8  11
ENDBRANCH   1   9
BRANCH   3  18
ATOM     18  O   UNL     1       6.431   5.647  14.745  0.00  0.00    +0.000 OA
ATOM     19  H   UNL     1       6.281   6.476  14.259  0.00  0.00    +0.000 HD
ENDBRANCH   3  18
BRANCH   5  20
ATOM     20  C   UNL     1       3.772   2.831  17.721  0.00  0.00    +0.000 C 
BRANCH  20  21
ATOM     21  C   UNL     1       2.911   2.856  18.965  0.00  0.00    +0.000 A 
ATOM     22  C   UNL     1       1.523   3.029  18.868  0.00  0.00    +0.000 A 
ATOM     23  C   UNL     1       0.722   3.016  20.011  0.00  0.00    +0.000 A 
ATOM     24  C   UNL     1       1.299   2.841  21.267  0.00  0.00    +0.000 A 
ATOM     25  C   UNL     1       2.681   2.693  21.380  0.00  0.00    +0.000 A 
ATOM     26  C   UNL     1       3.483   2.706  20.237  0.00  0.00    +0.000 A 
ENDBRANCH  20  21
ENDBRANCH   5  20
TORSDOF 5
ENDMDL
MODEL 6
REMARK VINA RESULT:      -7.9      2.859      4.768
REMARK  Name = 
REMARK  5 active torsions:
REMARK  status: ('A' for Active; 'I' for Inactive)
REMARK    1  A    between atoms: C_2  and  C_18
REMARK    2  A    between atoms: N_3  and  C_4
REMARK    3  A    between atoms: C_6  and  O_7
REMARK    4  A    between atoms: C_9  and  C_10
REMARK    5  A    between atoms: C_10  and  C_11
REMARK                            x       y       z     vdW  Elec       q    Type
REMARK                         _______ _______ _______ _____ _____    ______ ____
ROOT
ATOM      1  C   UNL     1       1.431   8.460  20.370  0.00  0.00    +0.000 A 
ATOM      2  C   UNL     1       1.042   8.377  21.707  0.00  0.00    +0.000 A 
ATOM      3  C   UNL     1       0.182   9.338  22.235  0.00  0.00    +0.000 A 
ATOM      4  C   UNL     1      -0.307  10.376  21.450  0.00  0.00    +0.000 A 
ATOM      5  C   UNL     1       0.084  10.485  20.112  0.00  0.00    +0.000 A 
ATOM      6  C   UNL     1       0.974   9.532  19.587  0.00  0.00    +0.000 A 
ENDROOT
BRANCH   1   9
ATOM      7  O   UNL     1       1.519   5.516  20.673  0.00  0.00    +0.000 OA
ATOM      8  C   UNL     1       2.281   6.147  19.948  0.00  0.00    +0.000 C 
ATOM      9  N   UNL     1       2.266   7.514  19.739  0.00  0.00    +0.000 N 
ATOM     10  H   UNL     1       2.868   7.885  19.012  0.00  0.00    +0.000 HD
BRANCH   8  11
ATOM     11  C   UNL     1       3.245   5.378  19.130  0.00  0.00    +0.000 A 
ATOM     12  C   UNL     1       4.609   5.501  19.430  0.00  0.00    +0.000 A 
ATOM     13  C   UNL     1       5.553   4.785  18.698  0.00  0.00    +0.000 A 
ATOM     14  C   UNL     1       5.104   3.967  17.678  0.00  0.00    +0.000 A 
ATOM     15  N   UNL     1       3.801   3.832  17.349  0.00  0.00    +0.000 NA
ATOM     16  C   UNL     1       2.903   4.548  18.071  0.00  0.00    +0.000 A 
ATOM     17 CL   UNL     1       1.296   4.318  17.494  0.00  0.00    +0.000 Cl
ENDBRANCH   8  11
ENDBRANCH   1   9
BRANCH   3  18
ATOM     18  O   UNL     1      -0.213   9.289  23.541  0.00  0.00    +0.000 OA
ATOM     19  H   UNL     1      -0.680   8.449  23.686  0.00  0.00    +0.000 HD
ENDBRANCH   3  18
BRANCH   5  20
ATOM     20  C   UNL     1      -0.473  11.584  19.237  0.00  0.00    +0.000 C 
BRANCH  20  21
ATOM     21  C   UNL     1      -1.812  11.259  18.614  0.00  0.00    +0.000 A 
ATOM     22  C   UNL     1      -1.921  10.255  17.641  0.00  0.00    +0.000 A 
ATOM     23  C   UNL     1      -3.162   9.928  17.091  0.00  0.00    +0.000 A 
ATOM     24  C   UNL     1      -4.308  10.607  17.500  0.00  0.00    +0.000 A 
ATOM     25  C   UNL     1      -4.211  11.624  18.448  0.00  0.00    +0.000 A 
ATOM     26  C   UNL     1      -2.970  11.953  18.998  0.00  0.00    +0.000 A 
ENDBRANCH  20  21
ENDBRANCH   5  20
TORSDOF 5
ENDMDL
MODEL 7
REMARK VINA RESULT:      -7.9      1.984      3.048
REMARK  Name = 
REMARK  5 active torsions:
REMARK  status: ('A' for Active; 'I' for Inactive)
REMARK    1  A    between atoms: C_2  and  C_18
REMARK    2  A    between atoms: N_3  and  C_4
REMARK    3  A    between atoms: C_6  and  O_7
REMARK    4  A    between atoms: C_9  and  C_10
REMARK    5  A    between atoms: C_10  and  C_11
REMARK                            x       y       z     vdW  Elec       q    Type
REMARK                         _______ _______ _______ _____ _____    ______ ____
ROOT
ATOM      1  C   UNL     1       2.679   7.842  18.473  0.00  0.00    +0.000 A 
ATOM      2  C   UNL     1       2.299   7.359  19.725  0.00  0.00    +0.000 A 
ATOM      3  C   UNL     1       1.350   8.053  20.473  0.00  0.00    +0.000 A 
ATOM      4  C   UNL     1       0.762   9.216  19.989  0.00  0.00    +0.000 A 
ATOM      5  C   UNL     1       1.141   9.724  18.742  0.00  0.00    +0.000 A 
ATOM      6  C   UNL     1       2.119   9.040  18.001  0.00  0.00    +0.000 A 
ENDROOT
BRANCH   1   9
ATOM      7  O   UNL     1       4.624   5.699  19.101  0.00  0.00    +0.000 OA
ATOM      8  C   UNL     1       4.512   6.212  17.993  0.00  0.00    +0.000 C 
ATOM      9  N   UNL     1       3.602   7.188  17.631  0.00  0.00    +0.000 N 
ATOM     10  H   UNL     1       3.533   7.425  16.647  0.00  0.00    +0.000 HD
BRANCH   8  11
ATOM     11  C   UNL     1       5.350   5.671  16.900  0.00  0.00    +0.000 A 
ATOM     12  C   UNL     1       4.821   4.638  16.113  0.00  0.00    +0.000 A 
ATOM     13  C   UNL     1       5.567   4.107  15.063  0.00  0.00    +0.000 A 
ATOM     14  C   UNL     1       6.828   4.624  14.832  0.00  0.00    +0.000 A 
ATOM     15  N   UNL     1       7.378   5.608  15.575  0.00  0.00    +0.000 NA
ATOM     16  C   UNL     1       6.635   6.100  16.598  0.00  0.00    +0.000 A 
ATOM     17 CL   UNL     1       7.494   7.301  17.486  0.00  0.00    +0.000 Cl
ENDBRANCH   8  11
ENDBRANCH   1   9
BRANCH   3  18
ATOM     18  O   UNL     1       0.962   7.611  21.705  0.00  0.00    +0.000 OA
ATOM     19  H   UNL     1       1.399   6.759  21.874  0.00  0.00    +0.000 HD
ENDBRANCH   3  18
BRANCH   5  20
ATOM     20  C   UNL     1       0.480  10.964  18.186  0.00  0.00    +0.000 C 
BRANCH  20  21
ATOM     21  C   UNL     1      -1.024  10.859  18.061  0.00  0.00    +0.000 A 
ATOM     22  C   UNL     1      -1.605   9.864  17.261  0.00  0.00    +0.000 A 
ATOM     23  C   UNL     1      -2.992   9.741  17.172  0.00  0.00    +0.000 A 
ATOM     24  C   UNL     1      -3.817  10.618  17.874  0.00  0.00    +0.000 A 
ATOM     25  C   UNL     1      -3.254  11.627  18.653  0.00  0.00    +0.000 A 
ATOM     26  C   UNL     1      -1.866  11.751  18.742  0.00  0.00    +0.000 A 
ENDBRANCH  20  21
ENDBRANCH   5  20
TORSDOF 5
ENDMDL
MODEL 8
REMARK VINA RESULT:      -7.9      2.930      7.121
REMARK  Name = 
REMARK  5 active torsions:
REMARK  status: ('A' for Active; 'I' for Inactive)
REMARK    1  A    between atoms: C_2  and  C_18
REMARK    2  A    between atoms: N_3  and  C_4
REMARK    3  A    between atoms: C_6  and  O_7
REMARK    4  A    between atoms: C_9  and  C_10
REMARK    5  A    between atoms: C_10  and  C_11
REMARK                            x       y       z     vdW  Elec       q    Type
REMARK                         _______ _______ _______ _____ _____    ______ ____
ROOT
ATOM      1  C   UNL     1       3.805   6.697  17.478  0.00  0.00    +0.000 A 
ATOM      2  C   UNL     1       4.940   6.893  16.690  0.00  0.00    +0.000 A 
ATOM      3  C   UNL     1       5.693   5.794  16.282  0.00  0.00    +0.000 A 
ATOM      4  C   UNL     1       5.328   4.500  16.636  0.00  0.00    +0.000 A 
ATOM      5  C   UNL     1       4.203   4.285  17.438  0.00  0.00    +0.000 A 
ATOM      6  C   UNL     1       3.460   5.395  17.874  0.00  0.00    +0.000 A 
ENDROOT
BRANCH   1   9
ATOM      7  O   UNL     1       2.154   6.915  19.927  0.00  0.00    +0.000 OA
ATOM      8  C   UNL     1       2.187   7.773  19.052  0.00  0.00    +0.000 C 
ATOM      9  N   UNL     1       2.963   7.744  17.906  0.00  0.00    +0.000 N 
ATOM     10  H   UNL     1       2.990   8.582  17.336  0.00  0.00    +0.000 HD
BRANCH   8  11
ATOM     11  C   UNL     1       1.412   9.013  19.276  0.00  0.00    +0.000 A 
ATOM     12  C   UNL     1       1.058   9.782  18.158  0.00  0.00    +0.000 A 
ATOM     13  C   UNL     1       0.316  10.949  18.318  0.00  0.00    +0.000 A 
ATOM     14  C   UNL     1      -0.050  11.319  19.599  0.00  0.00    +0.000 A 
ATOM     15  N   UNL     1       0.282  10.615  20.702  0.00  0.00    +0.000 NA
ATOM     16  C   UNL     1       1.015   9.487  20.519  0.00  0.00    +0.000 A 
ATOM     17 CL   UNL     1       1.409   8.737  22.018  0.00  0.00    +0.000 Cl
ENDBRANCH   8  11
ENDBRANCH   1   9
BRANCH   3  18
ATOM     18  O   UNL     1       6.812   5.951  15.516  0.00  0.00    +0.000 OA
ATOM     19  H   UNL     1       6.629   6.634  14.848  0.00  0.00    +0.000 HD
ENDBRANCH   3  18
BRANCH   5  20
ATOM     20  C   UNL     1       3.772   2.881  17.796  0.00  0.00    +0.000 C 
BRANCH  20  21
ATOM     21  C   UNL     1       2.905   2.797  19.032  0.00  0.00    +0.000 A 
ATOM     22  C   UNL     1       3.485   2.672  20.303  0.00  0.00    +0.000 A 
ATOM     23  C   UNL     1       2.689   2.631  21.448  0.00  0.00    +0.000 A 
ATOM     24  C   UNL     1       1.302   2.705  21.338  0.00  0.00    +0.000 A 
ATOM     25  C   UNL     1       0.711   2.805  20.080  0.00  0.00    +0.000 A 
ATOM     26  C   UNL     1       1.506   2.845  18.933  0.00  0.00    +0.000 A 
ENDBRANCH  20  21
ENDBRANCH   5  20
TORSDOF 5
ENDMDL
MODEL 9
REMARK VINA RESULT:      -7.8      3.029      4.923
REMARK  Name = 
REMARK  5 active torsions:
REMARK  status: ('A' for Active; 'I' for Inactive)
REMARK    1  A    between atoms: C_2  and  C_18
REMARK    2  A    between atoms: N_3  and  C_4
REMARK    3  A    between atoms: C_6  and  O_7
REMARK    4  A    between atoms: C_9  and  C_10
REMARK    5  A    between atoms: C_10  and  C_11
REMARK                            x       y       z     vdW  Elec       q    Type
REMARK                         _______ _______ _______ _____ _____    ______ ____
ROOT
ATOM      1  C   UNL     1       1.570   8.296  20.385  0.00  0.00    +0.000 A 
ATOM      2  C   UNL     1       1.316   8.465  21.746  0.00  0.00    +0.000 A 
ATOM      3  C   UNL     1       0.624   9.593  22.183  0.00  0.00    +0.000 A 
ATOM      4  C   UNL     1       0.169  10.551  21.285  0.00  0.00    +0.000 A 
ATOM      5  C   UNL     1       0.428  10.407  19.918  0.00  0.00    +0.000 A 
ATOM      6  C   UNL     1       1.151   9.285  19.481  0.00  0.00    +0.000 A 
ENDROOT
BRANCH   1   9
ATOM      7  O   UNL     1       1.004   5.414  20.762  0.00  0.00    +0.000 OA
ATOM      8  C   UNL     1       1.935   5.841  20.089  0.00  0.00    +0.000 C 
ATOM      9  N   UNL     1       2.229   7.171  19.848  0.00  0.00    +0.000 N 
ATOM     10  H   UNL     1       2.950   7.377  19.165  0.00  0.00    +0.000 HD
BRANCH   8  11
ATOM     11  C   UNL     1       2.772   4.853  19.371  0.00  0.00    +0.000 A 
ATOM     12  C   UNL     1       3.230   5.186  18.088  0.00  0.00    +0.000 A 
ATOM     13  C   UNL     1       4.033   4.295  17.379  0.00  0.00    +0.000 A 
ATOM     14  C   UNL     1       4.351   3.089  17.975  0.00  0.00    +0.000 A 
ATOM     15  N   UNL     1       3.919   2.726  19.202  0.00  0.00    +0.000 NA
ATOM     16  C   UNL     1       3.130   3.607  19.866  0.00  0.00    +0.000 A 
ATOM     17 CL   UNL     1       2.612   2.977  21.383  0.00  0.00    +0.000 Cl
ENDBRANCH   8  11
ENDBRANCH   1   9
BRANCH   3  18
ATOM     18  O   UNL     1       0.365   9.791  23.509  0.00  0.00    +0.000 OA
ATOM     19  H   UNL     1      -0.180  10.593  23.595  0.00  0.00    +0.000 HD
ENDBRANCH   3  18
BRANCH   5  20
ATOM     20  C   UNL     1      -0.096  11.421  18.928  0.00  0.00    +0.000 C 
BRANCH  20  21
ATOM     21  C   UNL     1      -1.499  11.137  18.437  0.00  0.00    +0.000 A 
ATOM     22  C   UNL     1      -1.736  10.114  17.508  0.00  0.00    +0.000 A 
ATOM     23  C   UNL     1      -3.033   9.825  17.081  0.00  0.00    +0.000 A 
ATOM     24  C   UNL     1      -4.109  10.562  17.571  0.00  0.00    +0.000 A 
ATOM     25  C   UNL     1      -3.886  11.598  18.476  0.00  0.00    +0.000 A 
ATOM     26  C   UNL     1      -2.588  11.888  18.904  0.00  0.00    +0.000 A 
ENDBRANCH  20  21
ENDBRANCH   5  20
TORSDOF 5
ENDMDL
