MODEL 1
REMARK VINA RESULT:      -7.0      0.000      0.000
REMARK  Name = 
REMARK  14 active torsions:
REMARK  status: ('A' for Active; 'I' for Inactive)
REMARK    1  A    between atoms: C_1  and  C_2
REMARK    2  A    between atoms: C_2  and  C_3
REMARK    3  A    between atoms: C_2  and  C_4
REMARK    4  A    between atoms: C_2  and  C_5
REMARK    5  A    between atoms: C_5  and  C_6
REMARK    6  A    between atoms: C_6  and  C_7
REMARK    7  A    between atoms: C_6  and  C_8
REMARK    8  A    between atoms: C_6  and  N_9
REMARK    9  A    between atoms: N_9  and  C_10
REMARK   10  A    between atoms: C_10  and  C_11
REMARK   11  A    between atoms: C_11  and  O_12
REMARK   12  A    between atoms: C_11  and  C_13
REMARK   13  A    between atoms: C_13  and  O_14
REMARK   14  A    between atoms: O_14  and  C_15
REMARK                            x       y       z     vdW  Elec       q    Type
REMARK                         _______ _______ _______ _____ _____    ______ ____
ROOT
ATOM      1  C   UNL     1       6.569   6.043  17.741  0.00  0.00    +0.000 C 
ENDROOT
BRANCH   1   2
ATOM      2  O   UNL     1       7.586   6.933  18.243  0.00  0.00    +0.000 OA
ATOM      3  H   UNL     1       8.454   6.520  18.104  0.00  0.00    +0.000 HD
ENDBRANCH   1   2
BRANCH   1   4
ATOM      4  C   UNL     1       6.008   5.103  18.845  0.00  0.00    +0.000 C 
BRANCH   4   5
ATOM      5  N   UNL     1       5.430   3.788  18.472  0.00  0.00    +0.000 NA
ATOM      6  H   UNL     1       5.792   3.518  17.560  0.00  0.00    +0.000 HD
BRANCH   5   7
ATOM      7  C   UNL     1       3.954   3.615  18.484  0.00  0.00    +0.000 C 
ATOM      8  C   UNL     1       3.601   2.284  17.801  0.00  0.00    +0.000 C 
ATOM      9  C   UNL     1       3.300   4.862  17.858  0.00  0.00    +0.000 C 
BRANCH   7  10
ATOM     10  C   UNL     1       3.489   3.487  19.998  0.00  0.00    +0.000 C 
BRANCH  10  12
ATOM     11  C   UNL     1       1.650   2.655  21.695  0.00  0.00    +0.000 C 
ATOM     12  C   UNL     1       1.958   3.444  20.407  0.00  0.00    +0.000 C 
ATOM     13  C   UNL     1       1.048   2.912  19.286  0.00  0.00    +0.000 C 
ATOM     14  C   UNL     1       1.507   4.896  20.692  0.00  0.00    +0.000 C 
ENDBRANCH  10  12
ENDBRANCH   7  10
ENDBRANCH   5   7
ENDBRANCH   4   5
ENDBRANCH   1   4
BRANCH   1  15
ATOM     15  C   UNL     1       7.236   5.248  16.623  0.00  0.00    +0.000 C 
BRANCH  15  16
ATOM     16  O   UNL     1       6.872   5.865  15.378  0.00  0.00    +0.000 OA
BRANCH  16  17
ATOM     17  C   UNL     1       6.733   5.034  14.300  0.00  0.00    +0.000 A 
ATOM     18  C   UNL     1       7.590   4.943  13.206  0.00  0.00    +0.000 A 
ATOM     19  F   UNL     1       8.675   5.729  13.090  0.00  0.00    +0.000 F 
ATOM     20  C   UNL     1       7.368   4.028  12.184  0.00  0.00    +0.000 A 
ATOM     21  C   UNL     1       6.269   3.175  12.258  0.00  0.00    +0.000 A 
ATOM     22 BR   UNL     1       6.012   1.880  10.905  0.00  0.00    +0.000 Br
ATOM     23  C   UNL     1       5.384   3.259  13.319  0.00  0.00    +0.000 A 
ATOM     24  C   UNL     1       5.610   4.187  14.333  0.00  0.00    +0.000 A 
ATOM     25  F   UNL     1       4.742   4.258  15.350  0.00  0.00    +0.000 F 
ENDBRANCH  16  17
ENDBRANCH  15  16
ENDBRANCH   1  15
TORSDOF 9
ENDMDL
MODEL 2
REMARK VINA RESULT:      -6.7      1.788      2.287
REMARK  Name = 
REMARK  14 active torsions:
REMARK  status: ('A' for Active; 'I' for Inactive)
REMARK    1  A    between atoms: C_1  and  C_2
REMARK    2  A    between atoms: C_2  and  C_3
REMARK    3  A    between atoms: C_2  and  C_4
REMARK    4  A    between atoms: C_2  and  C_5
REMARK    5  A    between atoms: C_5  and  C_6
REMARK    6  A    between atoms: C_6  and  C_7
REMARK    7  A    between atoms: C_6  and  C_8
REMARK    8  A    between atoms: C_6  and  N_9
REMARK    9  A    between atoms: N_9  and  C_10
REMARK   10  A    between atoms: C_10  and  C_11
REMARK   11  A    between atoms: C_11  and  O_12
REMARK   12  A    between atoms: C_11  and  C_13
REMARK   13  A    between atoms: C_13  and  O_14
REMARK   14  A    between atoms: O_14  and  C_15
REMARK                            x       y       z     vdW  Elec       q    Type
REMARK                         _______ _______ _______ _____ _____    ______ ____
ROOT
ATOM      1  C   UNL     1       6.962   5.881  19.660  0.00  0.00    +0.000 C 
ENDROOT
BRANCH   1   2
ATOM      2  O   UNL     1       8.058   5.213  20.315  0.00  0.00    +0.000 OA
ATOM      3  H   UNL     1       7.711   4.721  21.076  0.00  0.00    +0.000 HD
ENDBRANCH   1   2
BRANCH   1   4
ATOM      4  C   UNL     1       5.733   4.947  19.465  0.00  0.00    +0.000 C 
BRANCH   4   5
ATOM      5  N   UNL     1       4.375   5.431  19.818  0.00  0.00    +0.000 NA
ATOM      6  H   UNL     1       4.102   5.019  20.707  0.00  0.00    +0.000 HD
BRANCH   5   7
ATOM      7  C   UNL     1       3.268   5.262  18.840  0.00  0.00    +0.000 C 
ATOM      8  C   UNL     1       3.679   4.212  17.797  0.00  0.00    +0.000 C 
ATOM      9  C   UNL     1       2.897   6.643  18.264  0.00  0.00    +0.000 C 
BRANCH   7  10
ATOM     10  C   UNL     1       2.016   4.668  19.617  0.00  0.00    +0.000 C 
BRANCH  10  12
ATOM     11  C   UNL     1       3.159   2.302  19.850  0.00  0.00    +0.000 C 
ATOM     12  C   UNL     1       1.848   3.112  19.874  0.00  0.00    +0.000 C 
ATOM     13  C   UNL     1       0.852   2.445  18.910  0.00  0.00    +0.000 C 
ATOM     14  C   UNL     1       1.274   2.931  21.299  0.00  0.00    +0.000 C 
ENDBRANCH  10  12
ENDBRANCH   7  10
ENDBRANCH   5   7
ENDBRANCH   4   5
ENDBRANCH   1   4
BRANCH   1  15
ATOM     15  C   UNL     1       7.513   6.358  18.321  0.00  0.00    +0.000 C 
BRANCH  15  16
ATOM     16  O   UNL     1       6.394   6.573  17.445  0.00  0.00    +0.000 OA
BRANCH  16  17
ATOM     17  C   UNL     1       6.330   5.784  16.330  0.00  0.00    +0.000 A 
ATOM     18  C   UNL     1       7.055   4.618  16.095  0.00  0.00    +0.000 A 
ATOM     19  F   UNL     1       7.955   4.154  16.981  0.00  0.00    +0.000 F 
ATOM     20  C   UNL     1       6.876   3.872  14.936  0.00  0.00    +0.000 A 
ATOM     21  C   UNL     1       5.944   4.294  13.991  0.00  0.00    +0.000 A 
ATOM     22 BR   UNL     1       5.648   3.238  12.451  0.00  0.00    +0.000 Br
ATOM     23  C   UNL     1       5.227   5.463  14.182  0.00  0.00    +0.000 A 
ATOM     24  C   UNL     1       5.422   6.208  15.343  0.00  0.00    +0.000 A 
ATOM     25  F   UNL     1       4.724   7.338  15.510  0.00  0.00    +0.000 F 
ENDBRANCH  16  17
ENDBRANCH  15  16
ENDBRANCH   1  15
TORSDOF 9
ENDMDL
MODEL 3
REMARK VINA RESULT:      -6.7      4.763      7.670
REMARK  Name = 
REMARK  14 active torsions:
REMARK  status: ('A' for Active; 'I' for Inactive)
REMARK    1  A    between atoms: C_1  and  C_2
REMARK    2  A    between atoms: C_2  and  C_3
REMARK    3  A    between atoms: C_2  and  C_4
REMARK    4  A    between atoms: C_2  and  C_5
REMARK    5  A    between atoms: C_5  and  C_6
REMARK    6  A    between atoms: C_6  and  C_7
REMARK    7  A    between atoms: C_6  and  C_8
REMARK    8  A    between atoms: C_6  and  N_9
REMARK    9  A    between atoms: N_9  and  C_10
REMARK   10  A    between atoms: C_10  and  C_11
REMARK   11  A    between atoms: C_11  and  O_12
REMARK   12  A    between atoms: C_11  and  C_13
REMARK   13  A    between atoms: C_13  and  O_14
REMARK   14  A    between atoms: O_14  and  C_15
REMARK                            x       y       z     vdW  Elec       q    Type
REMARK                         _______ _______ _______ _____ _____    ______ ____
ROOT
ATOM      1  C   UNL     1       3.459   4.928  19.176  0.00  0.00    +0.000 C 
ENDROOT
BRANCH   1   2
ATOM      2  O   UNL     1       3.020   4.942  20.549  0.00  0.00    +0.000 OA
ATOM      3  H   UNL     1       2.051   4.993  20.563  0.00  0.00    +0.000 HD
ENDBRANCH   1   2
BRANCH   1   4
ATOM      4  C   UNL     1       5.008   4.989  19.049  0.00  0.00    +0.000 C 
BRANCH   4   5
ATOM      5  N   UNL     1       5.652   6.176  18.433  0.00  0.00    +0.000 NA
ATOM      6  H   UNL     1       5.092   6.477  17.638  0.00  0.00    +0.000 HD
BRANCH   5   7
ATOM      7  C   UNL     1       7.079   6.097  18.025  0.00  0.00    +0.000 C 
ATOM      8  C   UNL     1       7.926   5.695  19.242  0.00  0.00    +0.000 C 
ATOM      9  C   UNL     1       7.483   7.428  17.361  0.00  0.00    +0.000 C 
BRANCH   7  10
ATOM     10  C   UNL     1       7.219   4.922  16.965  0.00  0.00    +0.000 C 
BRANCH  10  12
ATOM     11  C   UNL     1       7.208   4.970  14.328  0.00  0.00    +0.000 C 
ATOM     12  C   UNL     1       6.374   4.895  15.623  0.00  0.00    +0.000 C 
ATOM     13  C   UNL     1       5.296   5.991  15.566  0.00  0.00    +0.000 C 
ATOM     14  C   UNL     1       5.632   3.539  15.562  0.00  0.00    +0.000 C 
ENDBRANCH  10  12
ENDBRANCH   7  10
ENDBRANCH   5   7
ENDBRANCH   4   5
ENDBRANCH   1   4
BRANCH   1  15
ATOM     15  C   UNL     1       2.801   6.139  18.523  0.00  0.00    +0.000 C 
BRANCH  15  16
ATOM     16  O   UNL     1       2.950   7.249  19.424  0.00  0.00    +0.000 OA
BRANCH  16  17
ATOM     17  C   UNL     1       2.007   8.237  19.339  0.00  0.00    +0.000 A 
ATOM     18  C   UNL     1       1.745   9.040  18.231  0.00  0.00    +0.000 A 
ATOM     19  F   UNL     1       2.454   8.931  17.094  0.00  0.00    +0.000 F 
ATOM     20  C   UNL     1       0.730   9.989  18.247  0.00  0.00    +0.000 A 
ATOM     21  C   UNL     1      -0.050  10.135  19.392  0.00  0.00    +0.000 A 
ATOM     22 BR   UNL     1      -1.478  11.374  19.385  0.00  0.00    +0.000 Br
ATOM     23  C   UNL     1       0.204   9.371  20.518  0.00  0.00    +0.000 A 
ATOM     24  C   UNL     1       1.230   8.429  20.495  0.00  0.00    +0.000 A 
ATOM     25  F   UNL     1       1.465   7.701  21.594  0.00  0.00    +0.000 F 
ENDBRANCH  16  17
ENDBRANCH  15  16
ENDBRANCH   1  15
TORSDOF 9
ENDMDL
MODEL 4
REMARK VINA RESULT:      -6.7      1.165      1.480
REMARK  Name = 
REMARK  14 active torsions:
REMARK  status: ('A' for Active; 'I' for Inactive)
REMARK    1  A    between atoms: C_1  and  C_2
REMARK    2  A    between atoms: C_2  and  C_3
REMARK    3  A    between atoms: C_2  and  C_4
REMARK    4  A    between atoms: C_2  and  C_5
REMARK    5  A    between atoms: C_5  and  C_6
REMARK    6  A    between atoms: C_6  and  C_7
REMARK    7  A    between atoms: C_6  and  C_8
REMARK    8  A    between atoms: C_6  and  N_9
REMARK    9  A    between atoms: N_9  and  C_10
REMARK   10  A    between atoms: C_10  and  C_11
REMARK   11  A    between atoms: C_11  and  O_12
REMARK   12  A    between atoms: C_11  and  C_13
REMARK   13  A    between atoms: C_13  and  O_14
REMARK   14  A    between atoms: O_14  and  C_15
REMARK                            x       y       z     vdW  Elec       q    Type
REMARK                         _______ _______ _______ _____ _____    ______ ____
ROOT
ATOM      1  C   UNL     1       7.215   5.730  18.063  0.00  0.00    +0.000 C 
ENDROOT
BRANCH   1   2
ATOM      2  O   UNL     1       7.674   4.370  18.187  0.00  0.00    +0.000 OA
ATOM      3  H   UNL     1       8.559   4.377  18.584  0.00  0.00    +0.000 HD
ENDBRANCH   1   2
BRANCH   1   4
ATOM      4  C   UNL     1       5.735   5.898  18.514  0.00  0.00    +0.000 C 
BRANCH   4   5
ATOM      5  N   UNL     1       5.053   4.794  19.234  0.00  0.00    +0.000 NA
ATOM      6  H   UNL     1       5.403   3.907  18.880  0.00  0.00    +0.000 HD
BRANCH   5   7
ATOM      7  C   UNL     1       3.567   4.757  19.263  0.00  0.00    +0.000 C 
ATOM      8  C   UNL     1       3.049   4.363  17.871  0.00  0.00    +0.000 C 
ATOM      9  C   UNL     1       3.045   6.106  19.795  0.00  0.00    +0.000 C 
BRANCH   7  10
ATOM     10  C   UNL     1       3.127   3.598  20.257  0.00  0.00    +0.000 C 
BRANCH  10  12
ATOM     11  C   UNL     1       1.222   2.023  19.341  0.00  0.00    +0.000 C 
ATOM     12  C   UNL     1       1.624   3.106  20.361  0.00  0.00    +0.000 C 
ATOM     13  C   UNL     1       0.604   4.254  20.273  0.00  0.00    +0.000 C 
ATOM     14  C   UNL     1       1.438   2.455  21.753  0.00  0.00    +0.000 C 
ENDBRANCH  10  12
ENDBRANCH   7  10
ENDBRANCH   5   7
ENDBRANCH   4   5
ENDBRANCH   1   4
BRANCH   1  15
ATOM     15  C   UNL     1       7.390   6.091  16.593  0.00  0.00    +0.000 C 
BRANCH  15  16
ATOM     16  O   UNL     1       7.795   4.898  15.901  0.00  0.00    +0.000 OA
BRANCH  16  17
ATOM     17  C   UNL     1       7.092   4.576  14.772  0.00  0.00    +0.000 A 
ATOM     18  C   UNL     1       7.438   4.891  13.460  0.00  0.00    +0.000 A 
ATOM     19  F   UNL     1       8.540   5.607  13.172  0.00  0.00    +0.000 F 
ATOM     20  C   UNL     1       6.663   4.474  12.385  0.00  0.00    +0.000 A 
ATOM     21  C   UNL     1       5.520   3.715  12.622  0.00  0.00    +0.000 A 
ATOM     22 BR   UNL     1       4.509   3.084  11.153  0.00  0.00    +0.000 Br
ATOM     23  C   UNL     1       5.135   3.408  13.916  0.00  0.00    +0.000 A 
ATOM     24  C   UNL     1       5.913   3.839  14.987  0.00  0.00    +0.000 A 
ATOM     25  F   UNL     1       5.524   3.537  16.232  0.00  0.00    +0.000 F 
ENDBRANCH  16  17
ENDBRANCH  15  16
ENDBRANCH   1  15
TORSDOF 9
ENDMDL
MODEL 5
REMARK VINA RESULT:      -6.7      6.835      8.910
REMARK  Name = 
REMARK  14 active torsions:
REMARK  status: ('A' for Active; 'I' for Inactive)
REMARK    1  A    between atoms: C_1  and  C_2
REMARK    2  A    between atoms: C_2  and  C_3
REMARK    3  A    between atoms: C_2  and  C_4
REMARK    4  A    between atoms: C_2  and  C_5
REMARK    5  A    between atoms: C_5  and  C_6
REMARK    6  A    between atoms: C_6  and  C_7
REMARK    7  A    between atoms: C_6  and  C_8
REMARK    8  A    between atoms: C_6  and  N_9
REMARK    9  A    between atoms: N_9  and  C_10
REMARK   10  A    between atoms: C_10  and  C_11
REMARK   11  A    between atoms: C_11  and  O_12
REMARK   12  A    between atoms: C_11  and  C_13
REMARK   13  A    between atoms: C_13  and  O_14
REMARK   14  A    between atoms: O_14  and  C_15
REMARK                            x       y       z     vdW  Elec       q    Type
REMARK                         _______ _______ _______ _____ _____    ______ ____
ROOT
ATOM      1  C   UNL     1       1.988   9.579  18.508  0.00  0.00    +0.000 C 
ENDROOT
BRANCH   1   2
ATOM      2  O   UNL     1       1.964  10.324  17.274  0.00  0.00    +0.000 OA
ATOM      3  H   UNL     1       2.299   9.755  16.563  0.00  0.00    +0.000 HD
ENDBRANCH   1   2
BRANCH   1   4
ATOM      4  C   UNL     1       2.324   8.077  18.285  0.00  0.00    +0.000 C 
BRANCH   4   5
ATOM      5  N   UNL     1       2.221   7.122  19.417  0.00  0.00    +0.000 NA
ATOM      6  H   UNL     1       2.683   7.525  20.228  0.00  0.00    +0.000 HD
BRANCH   5   7
ATOM      7  C   UNL     1       2.690   5.724  19.230  0.00  0.00    +0.000 C 
ATOM      8  C   UNL     1       4.224   5.696  19.314  0.00  0.00    +0.000 C 
ATOM      9  C   UNL     1       2.099   5.170  17.918  0.00  0.00    +0.000 C 
BRANCH   7  10
ATOM     10  C   UNL     1       2.152   4.861  20.450  0.00  0.00    +0.000 C 
BRANCH  10  12
ATOM     11  C   UNL     1       3.162   2.511  19.809  0.00  0.00    +0.000 C 
ATOM     12  C   UNL     1       1.946   3.292  20.344  0.00  0.00    +0.000 C 
ATOM     13  C   UNL     1       0.715   2.899  19.510  0.00  0.00    +0.000 C 
ATOM     14  C   UNL     1       1.703   2.753  21.774  0.00  0.00    +0.000 C 
ENDBRANCH  10  12
ENDBRANCH   7  10
ENDBRANCH   5   7
ENDBRANCH   4   5
ENDBRANCH   1   4
BRANCH   1  15
ATOM     15  C   UNL     1       0.602   9.752  19.119  0.00  0.00    +0.000 C 
BRANCH  15  16
ATOM     16  O   UNL     1       0.057  10.981  18.611  0.00  0.00    +0.000 OA
BRANCH  16  17
ATOM     17  C   UNL     1      -1.293  11.006  18.388  0.00  0.00    +0.000 A 
ATOM     18  C   UNL     1      -1.994  10.240  17.460  0.00  0.00    +0.000 A 
ATOM     19  F   UNL     1      -1.369   9.382  16.634  0.00  0.00    +0.000 F 
ATOM     20  C   UNL     1      -3.377  10.321  17.349  0.00  0.00    +0.000 A 
ATOM     21  C   UNL     1      -4.080  11.179  18.191  0.00  0.00    +0.000 A 
ATOM     22 BR   UNL     1      -5.968  11.232  18.090  0.00  0.00    +0.000 Br
ATOM     23  C   UNL     1      -3.409  11.973  19.105  0.00  0.00    +0.000 A 
ATOM     24  C   UNL     1      -2.022  11.892  19.201  0.00  0.00    +0.000 A 
ATOM     25  F   UNL     1      -1.388  12.670  20.088  0.00  0.00    +0.000 F 
ENDBRANCH  16  17
ENDBRANCH  15  16
ENDBRANCH   1  15
TORSDOF 9
ENDMDL
MODEL 6
REMARK VINA RESULT:      -6.6      4.760      6.548
REMARK  Name = 
REMARK  14 active torsions:
REMARK  status: ('A' for Active; 'I' for Inactive)
REMARK    1  A    between atoms: C_1  and  C_2
REMARK    2  A    between atoms: C_2  and  C_3
REMARK    3  A    between atoms: C_2  and  C_4
REMARK    4  A    between atoms: C_2  and  C_5
REMARK    5  A    between atoms: C_5  and  C_6
REMARK    6  A    between atoms: C_6  and  C_7
REMARK    7  A    between atoms: C_6  and  C_8
REMARK    8  A    between atoms: C_6  and  N_9
REMARK    9  A    between atoms: N_9  and  C_10
REMARK   10  A    between atoms: C_10  and  C_11
REMARK   11  A    between atoms: C_11  and  O_12
REMARK   12  A    between atoms: C_11  and  C_13
REMARK   13  A    between atoms: C_13  and  O_14
REMARK   14  A    between atoms: O_14  and  C_15
REMARK                            x       y       z     vdW  Elec       q    Type
REMARK                         _______ _______ _______ _____ _____    ______ ____
ROOT
ATOM      1  C   UNL     1       4.672   6.071  17.916  0.00  0.00    +0.000 C 
ENDROOT
BRANCH   1   2
ATOM      2  O   UNL     1       4.850   5.430  16.638  0.00  0.00    +0.000 OA
ATOM      3  H   UNL     1       4.712   6.090  15.939  0.00  0.00    +0.000 HD
ENDBRANCH   1   2
BRANCH   1   4
ATOM      4  C   UNL     1       5.228   5.215  19.090  0.00  0.00    +0.000 C 
BRANCH   4   5
ATOM      5  N   UNL     1       5.379   3.748  18.926  0.00  0.00    +0.000 NA
ATOM      6  H   UNL     1       5.712   3.556  17.984  0.00  0.00    +0.000 HD
BRANCH   5   7
ATOM      7  C   UNL     1       4.223   2.862  19.226  0.00  0.00    +0.000 C 
ATOM      8  C   UNL     1       4.709   1.677  20.075  0.00  0.00    +0.000 C 
ATOM      9  C   UNL     1       3.534   2.475  17.902  0.00  0.00    +0.000 C 
BRANCH   7  10
ATOM     10  C   UNL     1       3.202   3.680  20.126  0.00  0.00    +0.000 C 
BRANCH  10  12
ATOM     11  C   UNL     1       1.498   2.480  21.742  0.00  0.00    +0.000 C 
ATOM     12  C   UNL     1       1.720   3.177  20.385  0.00  0.00    +0.000 C 
ATOM     13  C   UNL     1       1.194   2.251  19.276  0.00  0.00    +0.000 C 
ATOM     14  C   UNL     1       0.799   4.419  20.400  0.00  0.00    +0.000 C 
ENDBRANCH  10  12
ENDBRANCH   7  10
ENDBRANCH   5   7
ENDBRANCH   4   5
ENDBRANCH   1   4
BRANCH   1  15
ATOM     15  C   UNL     1       3.171   6.296  18.057  0.00  0.00    +0.000 C 
BRANCH  15  16
ATOM     16  O   UNL     1       2.951   6.982  19.300  0.00  0.00    +0.000 OA
BRANCH  16  17
ATOM     17  C   UNL     1       2.072   8.030  19.274  0.00  0.00    +0.000 A 
ATOM     18  C   UNL     1       1.828   8.883  18.199  0.00  0.00    +0.000 A 
ATOM     19  F   UNL     1       2.495   8.763  17.037  0.00  0.00    +0.000 F 
ATOM     20  C   UNL     1       0.878   9.893  18.275  0.00  0.00    +0.000 A 
ATOM     21  C   UNL     1       0.144  10.053  19.448  0.00  0.00    +0.000 A 
ATOM     22 BR   UNL     1      -1.201  11.380  19.523  0.00  0.00    +0.000 Br
ATOM     23  C   UNL     1       0.382   9.240  20.543  0.00  0.00    +0.000 A 
ATOM     24  C   UNL     1       1.344   8.236  20.460  0.00  0.00    +0.000 A 
ATOM     25  F   UNL     1       1.564   7.461  21.529  0.00  0.00    +0.000 F 
ENDBRANCH  16  17
ENDBRANCH  15  16
ENDBRANCH   1  15
TORSDOF 9
ENDMDL
MODEL 7
REMARK VINA RESULT:      -6.6      5.642      8.385
REMARK  Name = 
REMARK  14 active torsions:
REMARK  status: ('A' for Active; 'I' for Inactive)
REMARK    1  A    between atoms: C_1  and  C_2
REMARK    2  A    between atoms: C_2  and  C_3
REMARK    3  A    between atoms: C_2  and  C_4
REMARK    4  A    between atoms: C_2  and  C_5
REMARK    5  A    between atoms: C_5  and  C_6
REMARK    6  A    between atoms: C_6  and  C_7
REMARK    7  A    between atoms: C_6  and  C_8
REMARK    8  A    between atoms: C_6  and  N_9
REMARK    9  A    between atoms: N_9  and  C_10
REMARK   10  A    between atoms: C_10  and  C_11
REMARK   11  A    between atoms: C_11  and  O_12
REMARK   12  A    between atoms: C_11  and  C_13
REMARK   13  A    between atoms: C_13  and  O_14
REMARK   14  A    between atoms: O_14  and  C_15
REMARK                            x       y       z     vdW  Elec       q    Type
REMARK                         _______ _______ _______ _____ _____    ______ ____
ROOT
ATOM      1  C   UNL     1       8.179   8.005  17.779  0.00  0.00    +0.000 C 
ENDROOT
BRANCH   1   2
ATOM      2  O   UNL     1       8.560   7.354  19.007  0.00  0.00    +0.000 OA
ATOM      3  H   UNL     1       9.002   8.004  19.577  0.00  0.00    +0.000 HD
ENDBRANCH   1   2
BRANCH   1   4
ATOM      4  C   UNL     1       8.063   9.547  17.939  0.00  0.00    +0.000 C 
BRANCH   4   5
ATOM      5  N   UNL     1       9.019  10.273  18.812  0.00  0.00    +0.000 NA
ATOM      6  H   UNL     1       8.644  10.299  19.757  0.00  0.00    +0.000 HD
BRANCH   5   7
ATOM      7  C   UNL     1       9.462  11.638  18.424  0.00  0.00    +0.000 C 
ATOM      8  C   UNL     1       8.345  12.317  17.617  0.00  0.00    +0.000 C 
ATOM      9  C   UNL     1      10.819  11.534  17.698  0.00  0.00    +0.000 C 
BRANCH   7  10
ATOM     10  C   UNL     1       9.646  12.488  19.753  0.00  0.00    +0.000 C 
BRANCH  10  12
ATOM     11  C   UNL     1      10.197  14.865  18.754  0.00  0.00    +0.000 C 
ATOM     12  C   UNL     1      10.550  13.790  19.800  0.00  0.00    +0.000 C 
ATOM     13  C   UNL     1      12.054  13.486  19.692  0.00  0.00    +0.000 C 
ATOM     14  C   UNL     1      10.332  14.463  21.176  0.00  0.00    +0.000 C 
ENDBRANCH  10  12
ENDBRANCH   7  10
ENDBRANCH   5   7
ENDBRANCH   4   5
ENDBRANCH   1   4
BRANCH   1  15
ATOM     15  C   UNL     1       6.842   7.387  17.385  0.00  0.00    +0.000 C 
BRANCH  15  16
ATOM     16  O   UNL     1       7.041   5.969  17.261  0.00  0.00    +0.000 OA
BRANCH  16  17
ATOM     17  C   UNL     1       5.944   5.176  17.459  0.00  0.00    +0.000 A 
ATOM     18  C   UNL     1       5.061   4.723  16.482  0.00  0.00    +0.000 A 
ATOM     19  F   UNL     1       5.198   5.067  15.189  0.00  0.00    +0.000 F 
ATOM     20  C   UNL     1       3.998   3.885  16.797  0.00  0.00    +0.000 A 
ATOM     21  C   UNL     1       3.816   3.481  18.118  0.00  0.00    +0.000 A 
ATOM     22 BR   UNL     1       2.414   2.280  18.532  0.00  0.00    +0.000 Br
ATOM     23  C   UNL     1       4.660   3.936  19.116  0.00  0.00    +0.000 A 
ATOM     24  C   UNL     1       5.716   4.784  18.790  0.00  0.00    +0.000 A 
ATOM     25  F   UNL     1       6.521   5.219  19.768  0.00  0.00    +0.000 F 
ENDBRANCH  16  17
ENDBRANCH  15  16
ENDBRANCH   1  15
TORSDOF 9
ENDMDL
MODEL 8
REMARK VINA RESULT:      -6.5      4.852      7.807
REMARK  Name = 
REMARK  14 active torsions:
REMARK  status: ('A' for Active; 'I' for Inactive)
REMARK    1  A    between atoms: C_1  and  C_2
REMARK    2  A    between atoms: C_2  and  C_3
REMARK    3  A    between atoms: C_2  and  C_4
REMARK    4  A    between atoms: C_2  and  C_5
REMARK    5  A    between atoms: C_5  and  C_6
REMARK    6  A    between atoms: C_6  and  C_7
REMARK    7  A    between atoms: C_6  and  C_8
REMARK    8  A    between atoms: C_6  and  N_9
REMARK    9  A    between atoms: N_9  and  C_10
REMARK   10  A    between atoms: C_10  and  C_11
REMARK   11  A    between atoms: C_11  and  O_12
REMARK   12  A    between atoms: C_11  and  C_13
REMARK   13  A    between atoms: C_13  and  O_14
REMARK   14  A    between atoms: O_14  and  C_15
REMARK                            x       y       z     vdW  Elec       q    Type
REMARK                         _______ _______ _______ _____ _____    ______ ____
ROOT
ATOM      1  C   UNL     1       1.585   4.417  20.758  0.00  0.00    +0.000 C 
ENDROOT
BRANCH   1   2
ATOM      2  O   UNL     1       2.725   4.737  21.579  0.00  0.00    +0.000 OA
ATOM      3  H   UNL     1       2.722   4.153  22.354  0.00  0.00    +0.000 HD
ENDBRANCH   1   2
BRANCH   1   4
ATOM      4  C   UNL     1       1.981   3.622  19.481  0.00  0.00    +0.000 C 
BRANCH   4   5
ATOM      5  N   UNL     1       2.654   4.320  18.356  0.00  0.00    +0.000 NA
ATOM      6  H   UNL     1       2.233   4.015  17.482  0.00  0.00    +0.000 HD
BRANCH   5   7
ATOM      7  C   UNL     1       4.134   4.244  18.238  0.00  0.00    +0.000 C 
ATOM      8  C   UNL     1       4.640   3.046  19.057  0.00  0.00    +0.000 C 
ATOM      9  C   UNL     1       4.737   5.606  18.636  0.00  0.00    +0.000 C 
BRANCH   7  10
ATOM     10  C   UNL     1       4.488   3.940  16.720  0.00  0.00    +0.000 C 
BRANCH  10  12
ATOM     11  C   UNL     1       7.046   4.580  16.716  0.00  0.00    +0.000 C 
ATOM     12  C   UNL     1       5.695   4.654  15.979  0.00  0.00    +0.000 C 
ATOM     13  C   UNL     1       5.410   6.127  15.640  0.00  0.00    +0.000 C 
ATOM     14  C   UNL     1       5.916   3.925  14.633  0.00  0.00    +0.000 C 
ENDBRANCH  10  12
ENDBRANCH   7  10
ENDBRANCH   5   7
ENDBRANCH   4   5
ENDBRANCH   1   4
BRANCH   1  15
ATOM     15  C   UNL     1       0.947   5.755  20.402  0.00  0.00    +0.000 C 
BRANCH  15  16
ATOM     16  O   UNL     1       2.000   6.730  20.329  0.00  0.00    +0.000 OA
BRANCH  16  17
ATOM     17  C   UNL     1       1.624   8.018  20.061  0.00  0.00    +0.000 A 
ATOM     18  C   UNL     1       1.075   8.927  20.963  0.00  0.00    +0.000 A 
ATOM     19  F   UNL     1       0.822   8.591  22.241  0.00  0.00    +0.000 F 
ATOM     20  C   UNL     1       0.768  10.228  20.586  0.00  0.00    +0.000 A 
ATOM     21  C   UNL     1       1.024  10.639  19.280  0.00  0.00    +0.000 A 
ATOM     22 BR   UNL     1       0.676  12.432  18.789  0.00  0.00    +0.000 Br
ATOM     23  C   UNL     1       1.545   9.751  18.353  0.00  0.00    +0.000 A 
ATOM     24  C   UNL     1       1.839   8.446  18.739  0.00  0.00    +0.000 A 
ATOM     25  F   UNL     1       2.338   7.600  17.829  0.00  0.00    +0.000 F 
ENDBRANCH  16  17
ENDBRANCH  15  16
ENDBRANCH   1  15
TORSDOF 9
ENDMDL
MODEL 9
REMARK VINA RESULT:      -6.5      4.571      7.481
REMARK  Name = 
REMARK  14 active torsions:
REMARK  status: ('A' for Active; 'I' for Inactive)
REMARK    1  A    between atoms: C_1  and  C_2
REMARK    2  A    between atoms: C_2  and  C_3
REMARK    3  A    between atoms: C_2  and  C_4
REMARK    4  A    between atoms: C_2  and  C_5
REMARK    5  A    between atoms: C_5  and  C_6
REMARK    6  A    between atoms: C_6  and  C_7
REMARK    7  A    between atoms: C_6  and  C_8
REMARK    8  A    between atoms: C_6  and  N_9
REMARK    9  A    between atoms: N_9  and  C_10
REMARK   10  A    between atoms: C_10  and  C_11
REMARK   11  A    between atoms: C_11  and  O_12
REMARK   12  A    between atoms: C_11  and  C_13
REMARK   13  A    between atoms: C_13  and  O_14
REMARK   14  A    between atoms: O_14  and  C_15
REMARK                            x       y       z     vdW  Elec       q    Type
REMARK                         _______ _______ _______ _____ _____    ______ ____
ROOT
ATOM      1  C   UNL     1       3.256   4.352  19.233  0.00  0.00    +0.000 C 
ENDROOT
BRANCH   1   2
ATOM      2  O   UNL     1       2.966   3.361  20.238  0.00  0.00    +0.000 OA
ATOM      3  H   UNL     1       3.365   2.519  19.966  0.00  0.00    +0.000 HD
ENDBRANCH   1   2
BRANCH   1   4
ATOM      4  C   UNL     1       4.667   4.981  19.414  0.00  0.00    +0.000 C 
BRANCH   4   5
ATOM      5  N   UNL     1       5.776   4.580  18.512  0.00  0.00    +0.000 NA
ATOM      6  H   UNL     1       6.299   3.826  18.951  0.00  0.00    +0.000 HD
BRANCH   5   7
ATOM      7  C   UNL     1       6.725   5.615  18.025  0.00  0.00    +0.000 C 
ATOM      8  C   UNL     1       7.916   5.696  18.993  0.00  0.00    +0.000 C 
ATOM      9  C   UNL     1       5.960   6.938  17.822  0.00  0.00    +0.000 C 
BRANCH   7  10
ATOM     10  C   UNL     1       7.305   5.128  16.628  0.00  0.00    +0.000 C 
BRANCH  10  12
ATOM     11  C   UNL     1       5.241   5.878  15.167  0.00  0.00    +0.000 C 
ATOM     12  C   UNL     1       6.367   4.847  15.381  0.00  0.00    +0.000 C 
ATOM     13  C   UNL     1       5.737   3.444  15.404  0.00  0.00    +0.000 C 
ATOM     14  C   UNL     1       7.243   4.919  14.109  0.00  0.00    +0.000 C 
ENDBRANCH  10  12
ENDBRANCH   7  10
ENDBRANCH   5   7
ENDBRANCH   4   5
ENDBRANCH   1   4
BRANCH   1  15
ATOM     15  C   UNL     1       2.160   5.404  19.365  0.00  0.00    +0.000 C 
BRANCH  15  16
ATOM     16  O   UNL     1       2.788   6.636  19.755  0.00  0.00    +0.000 OA
BRANCH  16  17
ATOM     17  C   UNL     1       2.121   7.789  19.442  0.00  0.00    +0.000 A 
ATOM     18  C   UNL     1       2.117   8.437  18.208  0.00  0.00    +0.000 A 
ATOM     19  F   UNL     1       2.833   7.978  17.166  0.00  0.00    +0.000 F 
ATOM     20  C   UNL     1       1.366   9.586  17.994  0.00  0.00    +0.000 A 
ATOM     21  C   UNL     1       0.592  10.098  19.032  0.00  0.00    +0.000 A 
ATOM     22 BR   UNL     1      -0.488  11.618  18.717  0.00  0.00    +0.000 Br
ATOM     23  C   UNL     1       0.595   9.493  20.277  0.00  0.00    +0.000 A 
ATOM     24  C   UNL     1       1.359   8.347  20.484  0.00  0.00    +0.000 A 
ATOM     25  F   UNL     1       1.355   7.776  21.696  0.00  0.00    +0.000 F 
ENDBRANCH  16  17
ENDBRANCH  15  16
ENDBRANCH   1  15
TORSDOF 9
ENDMDL
