MODEL 1
REMARK VINA RESULT:      -9.3      0.000      0.000
REMARK  Name = 
REMARK  6 active torsions:
REMARK  status: ('A' for Active; 'I' for Inactive)
REMARK    1  A    between atoms: C_1  and  N_2
REMARK    2  A    between atoms: C_4  and  C_5
REMARK    3  A    between atoms: C_8  and  C_9
REMARK    4  A    between atoms: C_9  and  N_10
REMARK    5  A    between atoms: C_17  and  O_18
REMARK    6  A    between atoms: O_18  and  C_19
REMARK                            x       y       z     vdW  Elec       q    Type
REMARK                         _______ _______ _______ _____ _____    ______ ____
ROOT
ATOM      1  N   UNL     1       3.728   5.091  18.587  0.00  0.00    +0.000 N 
ATOM      2  C   UNL     1       3.099   3.833  18.711  0.00  0.00    +0.000 C 
ATOM      3  O   UNL     1       2.105   3.524  19.341  0.00  0.00    +0.000 OA
ATOM      4  C   UNL     1       3.821   2.877  17.776  0.00  0.00    +0.000 C 
ATOM      5  O   UNL     1       3.757   1.669  17.764  0.00  0.00    +0.000 OA
ATOM      6  C   UNL     1       4.600   3.743  16.919  0.00  0.00    +0.000 A 
ATOM      7  C   UNL     1       5.247   3.299  15.783  0.00  0.00    +0.000 A 
ATOM      8  C   UNL     1       5.777   4.236  14.906  0.00  0.00    +0.000 A 
ATOM      9  C   UNL     1       5.617   5.596  15.244  0.00  0.00    +0.000 A 
ATOM     10  C   UNL     1       4.976   6.022  16.484  0.00  0.00    +0.000 A 
ATOM     11  C   UNL     1       4.463   5.071  17.354  0.00  0.00    +0.000 A 
ENDROOT
BRANCH   1  12
ATOM     12  C   UNL     1       3.190   6.066  19.519  0.00  0.00    +0.000 C 
BRANCH  12  16
ATOM     13  C   UNL     1       1.016   9.850  18.931  0.00  0.00    +0.000 A 
ATOM     14  C   UNL     1       1.099   9.204  20.173  0.00  0.00    +0.000 A 
ATOM     15  C   UNL     1       1.725   7.948  20.324  0.00  0.00    +0.000 A 
ATOM     16  C   UNL     1       2.306   7.272  19.244  0.00  0.00    +0.000 A 
ATOM     17  C   UNL     1       2.308   7.960  18.013  0.00  0.00    +0.000 A 
ATOM     18  C   UNL     1       1.673   9.223  17.860  0.00  0.00    +0.000 A 
BRANCH  13  22
ATOM     19  C   UNL     1      -0.323  14.675  19.043  0.00  0.00    +0.000 C 
ATOM     20  N   UNL     1      -0.310  13.241  18.827  0.00  0.00    +0.000 N 
ATOM     21  C   UNL     1       0.736  12.379  19.009  0.00  0.00    +0.000 A 
ATOM     22  C   UNL     1       0.261  11.100  18.763  0.00  0.00    +0.000 A 
ATOM     23  C   UNL     1      -1.097  11.336  18.413  0.00  0.00    +0.000 A 
ATOM     24  N   UNL     1      -1.436  12.628  18.448  0.00  0.00    +0.000 NA
ENDBRANCH  13  22
ENDBRANCH  12  16
ENDBRANCH   1  12
BRANCH   8  25
ATOM     25  O   UNL     1       6.433   3.636  13.882  0.00  0.00    +0.000 OA
BRANCH  25  26
ATOM     26  C   UNL     1       5.960   3.484  12.561  0.00  0.00    +0.000 C 
ATOM     27  F   UNL     1       5.982   2.203  12.133  0.00  0.00    +0.000 F 
ATOM     28  F   UNL     1       4.678   3.920  12.522  0.00  0.00    +0.000 F 
ATOM     29  F   UNL     1       6.677   4.248  11.716  0.00  0.00    +0.000 F 
ENDBRANCH  25  26
ENDBRANCH   8  25
TORSDOF 5
ENDMDL
MODEL 2
REMARK VINA RESULT:      -9.0      0.731      1.137
REMARK  Name = 
REMARK  6 active torsions:
REMARK  status: ('A' for Active; 'I' for Inactive)
REMARK    1  A    between atoms: C_1  and  N_2
REMARK    2  A    between atoms: C_4  and  C_5
REMARK    3  A    between atoms: C_8  and  C_9
REMARK    4  A    between atoms: C_9  and  N_10
REMARK    5  A    between atoms: C_17  and  O_18
REMARK    6  A    between atoms: O_18  and  C_19
REMARK                            x       y       z     vdW  Elec       q    Type
REMARK                         _______ _______ _______ _____ _____    ______ ____
ROOT
ATOM      1  N   UNL     1       3.817   5.042  18.677  0.00  0.00    +0.000 N 
ATOM      2  C   UNL     1       3.140   3.805  18.761  0.00  0.00    +0.000 C 
ATOM      3  O   UNL     1       2.145   3.510  19.395  0.00  0.00    +0.000 OA
ATOM      4  C   UNL     1       3.809   2.861  17.775  0.00  0.00    +0.000 C 
ATOM      5  O   UNL     1       3.696   1.658  17.714  0.00  0.00    +0.000 OA
ATOM      6  C   UNL     1       4.608   3.730  16.940  0.00  0.00    +0.000 A 
ATOM      7  C   UNL     1       5.219   3.310  15.776  0.00  0.00    +0.000 A 
ATOM      8  C   UNL     1       5.772   4.261  14.929  0.00  0.00    +0.000 A 
ATOM      9  C   UNL     1       5.671   5.611  15.326  0.00  0.00    +0.000 A 
ATOM     10  C   UNL     1       5.068   6.009  16.593  0.00  0.00    +0.000 A 
ATOM     11  C   UNL     1       4.531   5.044  17.432  0.00  0.00    +0.000 A 
ENDROOT
BRANCH   1  12
ATOM     12  C   UNL     1       3.333   5.997  19.658  0.00  0.00    +0.000 C 
BRANCH  12  16
ATOM     13  C   UNL     1       0.900   9.656  19.375  0.00  0.00    +0.000 A 
ATOM     14  C   UNL     1       0.991   8.890  20.547  0.00  0.00    +0.000 A 
ATOM     15  C   UNL     1       1.705   7.674  20.593  0.00  0.00    +0.000 A 
ATOM     16  C   UNL     1       2.370   7.158  19.473  0.00  0.00    +0.000 A 
ATOM     17  C   UNL     1       2.358   7.971  18.320  0.00  0.00    +0.000 A 
ATOM     18  C   UNL     1       1.636   9.194  18.273  0.00  0.00    +0.000 A 
BRANCH  13  22
ATOM     19  C   UNL     1      -2.828  12.926  20.079  0.00  0.00    +0.000 C 
ATOM     20  N   UNL     1      -1.605  12.288  19.631  0.00  0.00    +0.000 N 
ATOM     21  C   UNL     1      -1.062  11.117  20.081  0.00  0.00    +0.000 A 
ATOM     22  C   UNL     1       0.058  10.860  19.306  0.00  0.00    +0.000 A 
ATOM     23  C   UNL     1       0.094  11.981  18.432  0.00  0.00    +0.000 A 
ATOM     24  N   UNL     1      -0.907  12.843  18.634  0.00  0.00    +0.000 NA
ENDBRANCH  13  22
ENDBRANCH  12  16
ENDBRANCH   1  12
BRANCH   8  25
ATOM     25  O   UNL     1       6.388   3.678  13.870  0.00  0.00    +0.000 OA
BRANCH  25  26
ATOM     26  C   UNL     1       5.845   3.508  12.578  0.00  0.00    +0.000 C 
ATOM     27  F   UNL     1       4.551   3.887  12.492  0.00  0.00    +0.000 F 
ATOM     28  F   UNL     1       6.565   4.268  11.717  0.00  0.00    +0.000 F 
ATOM     29  F   UNL     1       5.960   2.226  12.186  0.00  0.00    +0.000 F 
ENDBRANCH  25  26
ENDBRANCH   8  25
TORSDOF 5
ENDMDL
MODEL 3
REMARK VINA RESULT:      -8.9      0.389      1.192
REMARK  Name = 
REMARK  6 active torsions:
REMARK  status: ('A' for Active; 'I' for Inactive)
REMARK    1  A    between atoms: C_1  and  N_2
REMARK    2  A    between atoms: C_4  and  C_5
REMARK    3  A    between atoms: C_8  and  C_9
REMARK    4  A    between atoms: C_9  and  N_10
REMARK    5  A    between atoms: C_17  and  O_18
REMARK    6  A    between atoms: O_18  and  C_19
REMARK                            x       y       z     vdW  Elec       q    Type
REMARK                         _______ _______ _______ _____ _____    ______ ____
ROOT
ATOM      1  N   UNL     1       3.396   5.025  18.846  0.00  0.00    +0.000 N 
ATOM      2  C   UNL     1       2.756   3.766  18.804  0.00  0.00    +0.000 C 
ATOM      3  O   UNL     1       1.710   3.414  19.313  0.00  0.00    +0.000 OA
ATOM      4  C   UNL     1       3.559   2.887  17.859  0.00  0.00    +0.000 C 
ATOM      5  O   UNL     1       3.495   1.685  17.737  0.00  0.00    +0.000 OA
ATOM      6  C   UNL     1       4.414   3.816  17.153  0.00  0.00    +0.000 A 
ATOM      7  C   UNL     1       5.161   3.465  16.046  0.00  0.00    +0.000 A 
ATOM      8  C   UNL     1       5.769   4.469  15.304  0.00  0.00    +0.000 A 
ATOM      9  C   UNL     1       5.580   5.797  15.743  0.00  0.00    +0.000 A 
ATOM     10  C   UNL     1       4.830   6.121  16.951  0.00  0.00    +0.000 A 
ATOM     11  C   UNL     1       4.239   5.103  17.687  0.00  0.00    +0.000 A 
ENDROOT
BRANCH   1  12
ATOM     12  C   UNL     1       2.777   5.921  19.806  0.00  0.00    +0.000 C 
BRANCH  12  16
ATOM     13  C   UNL     1       0.873   9.815  19.028  0.00  0.00    +0.000 A 
ATOM     14  C   UNL     1       1.473   9.045  18.021  0.00  0.00    +0.000 A 
ATOM     15  C   UNL     1       2.155   7.842  18.303  0.00  0.00    +0.000 A 
ATOM     16  C   UNL     1       2.271   7.340  19.606  0.00  0.00    +0.000 A 
ATOM     17  C   UNL     1       1.589   8.062  20.608  0.00  0.00    +0.000 A 
ATOM     18  C   UNL     1       0.906   9.276  20.324  0.00  0.00    +0.000 A 
BRANCH  13  22
ATOM     19  C   UNL     1       0.083  14.751  18.718  0.00  0.00    +0.000 C 
ATOM     20  N   UNL     1      -0.061  13.311  18.616  0.00  0.00    +0.000 N 
ATOM     21  C   UNL     1       0.877  12.357  18.898  0.00  0.00    +0.000 A 
ATOM     22  C   UNL     1       0.267  11.123  18.739  0.00  0.00    +0.000 A 
ATOM     23  C   UNL     1      -1.048  11.477  18.329  0.00  0.00    +0.000 A 
ATOM     24  N   UNL     1      -1.240  12.798  18.251  0.00  0.00    +0.000 NA
ENDBRANCH  13  22
ENDBRANCH  12  16
ENDBRANCH   1  12
BRANCH   8  25
ATOM     25  O   UNL     1       6.515   3.953  14.296  0.00  0.00    +0.000 OA
BRANCH  25  26
ATOM     26  C   UNL     1       6.094   3.752  12.964  0.00  0.00    +0.000 C 
ATOM     27  F   UNL     1       6.845   4.421  12.063  0.00  0.00    +0.000 F 
ATOM     28  F   UNL     1       6.187   2.428  12.689  0.00  0.00    +0.000 F 
ATOM     29  F   UNL     1       4.804   4.109  12.821  0.00  0.00    +0.000 F 
ENDBRANCH  25  26
ENDBRANCH   8  25
TORSDOF 5
ENDMDL
MODEL 4
REMARK VINA RESULT:      -8.9      0.797      1.446
REMARK  Name = 
REMARK  6 active torsions:
REMARK  status: ('A' for Active; 'I' for Inactive)
REMARK    1  A    between atoms: C_1  and  N_2
REMARK    2  A    between atoms: C_4  and  C_5
REMARK    3  A    between atoms: C_8  and  C_9
REMARK    4  A    between atoms: C_9  and  N_10
REMARK    5  A    between atoms: C_17  and  O_18
REMARK    6  A    between atoms: O_18  and  C_19
REMARK                            x       y       z     vdW  Elec       q    Type
REMARK                         _______ _______ _______ _____ _____    ______ ____
ROOT
ATOM      1  N   UNL     1       4.061   5.433  18.373  0.00  0.00    +0.000 N 
ATOM      2  C   UNL     1       3.331   4.247  18.609  0.00  0.00    +0.000 C 
ATOM      3  O   UNL     1       2.340   4.073  19.293  0.00  0.00    +0.000 OA
ATOM      4  C   UNL     1       3.931   3.167  17.724  0.00  0.00    +0.000 C 
ATOM      5  O   UNL     1       3.763   1.971  17.803  0.00  0.00    +0.000 OA
ATOM      6  C   UNL     1       4.748   3.897  16.780  0.00  0.00    +0.000 A 
ATOM      7  C   UNL     1       5.309   3.319  15.659  0.00  0.00    +0.000 A 
ATOM      8  C   UNL     1       5.883   4.142  14.699  0.00  0.00    +0.000 A 
ATOM      9  C   UNL     1       5.854   5.531  14.941  0.00  0.00    +0.000 A 
ATOM     10  C   UNL     1       5.301   6.098  16.167  0.00  0.00    +0.000 A 
ATOM     11  C   UNL     1       4.742   5.260  17.121  0.00  0.00    +0.000 A 
ENDROOT
BRANCH   1  12
ATOM     12  C   UNL     1       3.646   6.514  19.248  0.00  0.00    +0.000 C 
BRANCH  12  16
ATOM     13  C   UNL     1       0.507   9.598  19.086  0.00  0.00    +0.000 A 
ATOM     14  C   UNL     1       0.843   8.914  20.264  0.00  0.00    +0.000 A 
ATOM     15  C   UNL     1       1.791   7.868  20.277  0.00  0.00    +0.000 A 
ATOM     16  C   UNL     1       2.456   7.451  19.117  0.00  0.00    +0.000 A 
ATOM     17  C   UNL     1       2.189   8.197  17.950  0.00  0.00    +0.000 A 
ATOM     18  C   UNL     1       1.232   9.249  17.936  0.00  0.00    +0.000 A 
BRANCH  13  22
ATOM     19  C   UNL     1      -3.843  11.928  18.225  0.00  0.00    +0.000 C 
ATOM     20  N   UNL     1      -2.496  11.616  18.664  0.00  0.00    +0.000 N 
ATOM     21  C   UNL     1      -1.860  10.407  18.611  0.00  0.00    +0.000 A 
ATOM     22  C   UNL     1      -0.564  10.606  19.061  0.00  0.00    +0.000 A 
ATOM     23  C   UNL     1      -0.556  11.991  19.383  0.00  0.00    +0.000 A 
ATOM     24  N   UNL     1      -1.724  12.596  19.147  0.00  0.00    +0.000 NA
ENDBRANCH  13  22
ENDBRANCH  12  16
ENDBRANCH   1  12
BRANCH   8  25
ATOM     25  O   UNL     1       6.445   3.415  13.701  0.00  0.00    +0.000 OA
BRANCH  25  26
ATOM     26  C   UNL     1       6.087   3.453  12.336  0.00  0.00    +0.000 C 
ATOM     27  F   UNL     1       6.846   4.304  11.612  0.00  0.00    +0.000 F 
ATOM     28  F   UNL     1       6.246   2.208  11.825  0.00  0.00    +0.000 F 
ATOM     29  F   UNL     1       4.791   3.788  12.201  0.00  0.00    +0.000 F 
ENDBRANCH  25  26
ENDBRANCH   8  25
TORSDOF 5
ENDMDL
MODEL 5
REMARK VINA RESULT:      -8.6      1.020      1.398
REMARK  Name = 
REMARK  6 active torsions:
REMARK  status: ('A' for Active; 'I' for Inactive)
REMARK    1  A    between atoms: C_1  and  N_2
REMARK    2  A    between atoms: C_4  and  C_5
REMARK    3  A    between atoms: C_8  and  C_9
REMARK    4  A    between atoms: C_9  and  N_10
REMARK    5  A    between atoms: C_17  and  O_18
REMARK    6  A    between atoms: O_18  and  C_19
REMARK                            x       y       z     vdW  Elec       q    Type
REMARK                         _______ _______ _______ _____ _____    ______ ____
ROOT
ATOM      1  N   UNL     1       2.809   5.208  19.135  0.00  0.00    +0.000 N 
ATOM      2  C   UNL     1       2.069   4.009  19.038  0.00  0.00    +0.000 C 
ATOM      3  O   UNL     1       0.949   3.758  19.442  0.00  0.00    +0.000 OA
ATOM      4  C   UNL     1       2.881   3.048  18.186  0.00  0.00    +0.000 C 
ATOM      5  O   UNL     1       2.724   1.854  18.067  0.00  0.00    +0.000 OA
ATOM      6  C   UNL     1       3.881   3.888  17.563  0.00  0.00    +0.000 A 
ATOM      7  C   UNL     1       4.700   3.456  16.539  0.00  0.00    +0.000 A 
ATOM      8  C   UNL     1       5.466   4.391  15.855  0.00  0.00    +0.000 A 
ATOM      9  C   UNL     1       5.352   5.736  16.262  0.00  0.00    +0.000 A 
ATOM     10  C   UNL     1       4.516   6.144  17.387  0.00  0.00    +0.000 A 
ATOM     11  C   UNL     1       3.768   5.194  18.067  0.00  0.00    +0.000 A 
ENDROOT
BRANCH   1  12
ATOM     12  C   UNL     1       2.179   6.170  20.021  0.00  0.00    +0.000 C 
BRANCH  12  16
ATOM     13  C   UNL     1       1.100  10.355  19.178  0.00  0.00    +0.000 A 
ATOM     14  C   UNL     1       1.676   9.508  18.219  0.00  0.00    +0.000 A 
ATOM     15  C   UNL     1       2.095   8.198  18.533  0.00  0.00    +0.000 A 
ATOM     16  C   UNL     1       1.959   7.661  19.819  0.00  0.00    +0.000 A 
ATOM     17  C   UNL     1       1.296   8.475  20.761  0.00  0.00    +0.000 A 
ATOM     18  C   UNL     1       0.877   9.796  20.446  0.00  0.00    +0.000 A 
BRANCH  13  22
ATOM     19  C   UNL     1       1.370  15.336  18.731  0.00  0.00    +0.000 C 
ATOM     20  N   UNL     1       0.916  13.960  18.686  0.00  0.00    +0.000 N 
ATOM     21  C   UNL     1       1.642  12.833  18.959  0.00  0.00    +0.000 A 
ATOM     22  C   UNL     1       0.774  11.756  18.870  0.00  0.00    +0.000 A 
ATOM     23  C   UNL     1      -0.454  12.375  18.508  0.00  0.00    +0.000 A 
ATOM     24  N   UNL     1      -0.363  13.704  18.393  0.00  0.00    +0.000 NA
ENDBRANCH  13  22
ENDBRANCH  12  16
ENDBRANCH   1  12
BRANCH   8  25
ATOM     25  O   UNL     1       6.260   3.795  14.931  0.00  0.00    +0.000 OA
BRANCH  25  26
ATOM     26  C   UNL     1       6.216   4.000  13.535  0.00  0.00    +0.000 C 
ATOM     27  F   UNL     1       6.463   2.878  12.826  0.00  0.00    +0.000 F 
ATOM     28  F   UNL     1       4.975   4.438  13.214  0.00  0.00    +0.000 F 
ATOM     29  F   UNL     1       7.093   4.956  13.175  0.00  0.00    +0.000 F 
ENDBRANCH  25  26
ENDBRANCH   8  25
TORSDOF 5
ENDMDL
MODEL 6
REMARK VINA RESULT:      -8.6      0.829      1.627
REMARK  Name = 
REMARK  6 active torsions:
REMARK  status: ('A' for Active; 'I' for Inactive)
REMARK    1  A    between atoms: C_1  and  N_2
REMARK    2  A    between atoms: C_4  and  C_5
REMARK    3  A    between atoms: C_8  and  C_9
REMARK    4  A    between atoms: C_9  and  N_10
REMARK    5  A    between atoms: C_17  and  O_18
REMARK    6  A    between atoms: O_18  and  C_19
REMARK                            x       y       z     vdW  Elec       q    Type
REMARK                         _______ _______ _______ _____ _____    ______ ____
ROOT
ATOM      1  N   UNL     1       3.954   5.354  18.531  0.00  0.00    +0.000 N 
ATOM      2  C   UNL     1       3.179   4.182  18.677  0.00  0.00    +0.000 C 
ATOM      3  O   UNL     1       2.168   4.001  19.327  0.00  0.00    +0.000 OA
ATOM      4  C   UNL     1       3.763   3.139  17.738  0.00  0.00    +0.000 C 
ATOM      5  O   UNL     1       3.553   1.948  17.737  0.00  0.00    +0.000 OA
ATOM      6  C   UNL     1       4.626   3.899  16.859  0.00  0.00    +0.000 A 
ATOM      7  C   UNL     1       5.193   3.372  15.716  0.00  0.00    +0.000 A 
ATOM      8  C   UNL     1       5.816   4.233  14.822  0.00  0.00    +0.000 A 
ATOM      9  C   UNL     1       5.828   5.604  15.151  0.00  0.00    +0.000 A 
ATOM     10  C   UNL     1       5.266   6.113  16.398  0.00  0.00    +0.000 A 
ATOM     11  C   UNL     1       4.658   5.237  17.286  0.00  0.00    +0.000 A 
ENDROOT
BRANCH   1  12
ATOM     12  C   UNL     1       3.555   6.393  19.464  0.00  0.00    +0.000 C 
BRANCH  12  16
ATOM     13  C   UNL     1       0.382   9.349  18.699  0.00  0.00    +0.000 A 
ATOM     14  C   UNL     1       1.196   8.823  17.683  0.00  0.00    +0.000 A 
ATOM     15  C   UNL     1       2.264   7.944  17.960  0.00  0.00    +0.000 A 
ATOM     16  C   UNL     1       2.576   7.538  19.264  0.00  0.00    +0.000 A 
ATOM     17  C   UNL     1       1.704   7.990  20.276  0.00  0.00    +0.000 A 
ATOM     18  C   UNL     1       0.630   8.879  19.998  0.00  0.00    +0.000 A 
BRANCH  13  22
ATOM     19  C   UNL     1      -3.790  11.575  17.050  0.00  0.00    +0.000 C 
ATOM     20  N   UNL     1      -2.505  11.317  17.670  0.00  0.00    +0.000 N 
ATOM     21  C   UNL     1      -1.900  10.106  17.863  0.00  0.00    +0.000 A 
ATOM     22  C   UNL     1      -0.652  10.354  18.413  0.00  0.00    +0.000 A 
ATOM     23  C   UNL     1      -0.639  11.772  18.526  0.00  0.00    +0.000 A 
ATOM     24  N   UNL     1      -1.760  12.349  18.081  0.00  0.00    +0.000 NA
ENDBRANCH  13  22
ENDBRANCH  12  16
ENDBRANCH   1  12
BRANCH   8  25
ATOM     25  O   UNL     1       6.376   3.550  13.791  0.00  0.00    +0.000 OA
BRANCH  25  26
ATOM     26  C   UNL     1       5.864   3.450  12.480  0.00  0.00    +0.000 C 
ATOM     27  F   UNL     1       5.820   2.180  12.023  0.00  0.00    +0.000 F 
ATOM     28  F   UNL     1       4.601   3.941  12.484  0.00  0.00    +0.000 F 
ATOM     29  F   UNL     1       6.593   4.202  11.634  0.00  0.00    +0.000 F 
ENDBRANCH  25  26
ENDBRANCH   8  25
TORSDOF 5
ENDMDL
MODEL 7
REMARK VINA RESULT:      -8.5      1.029      1.296
REMARK  Name = 
REMARK  6 active torsions:
REMARK  status: ('A' for Active; 'I' for Inactive)
REMARK    1  A    between atoms: C_1  and  N_2
REMARK    2  A    between atoms: C_4  and  C_5
REMARK    3  A    between atoms: C_8  and  C_9
REMARK    4  A    between atoms: C_9  and  N_10
REMARK    5  A    between atoms: C_17  and  O_18
REMARK    6  A    between atoms: O_18  and  C_19
REMARK                            x       y       z     vdW  Elec       q    Type
REMARK                         _______ _______ _______ _____ _____    ______ ____
ROOT
ATOM      1  N   UNL     1       2.849   5.430  19.152  0.00  0.00    +0.000 N 
ATOM      2  C   UNL     1       2.134   4.212  19.174  0.00  0.00    +0.000 C 
ATOM      3  O   UNL     1       1.036   3.970  19.637  0.00  0.00    +0.000 OA
ATOM      4  C   UNL     1       2.936   3.206  18.366  0.00  0.00    +0.000 C 
ATOM      5  O   UNL     1       2.802   2.004  18.343  0.00  0.00    +0.000 OA
ATOM      6  C   UNL     1       3.893   4.016  17.644  0.00  0.00    +0.000 A 
ATOM      7  C   UNL     1       4.685   3.524  16.625  0.00  0.00    +0.000 A 
ATOM      8  C   UNL     1       5.403   4.419  15.844  0.00  0.00    +0.000 A 
ATOM      9  C   UNL     1       5.273   5.789  16.153  0.00  0.00    +0.000 A 
ATOM     10  C   UNL     1       4.470   6.264  17.275  0.00  0.00    +0.000 A 
ATOM     11  C   UNL     1       3.769   5.354  18.052  0.00  0.00    +0.000 A 
ENDROOT
BRANCH   1  12
ATOM     12  C   UNL     1       2.230   6.443  19.987  0.00  0.00    +0.000 C 
BRANCH  12  16
ATOM     13  C   UNL     1       1.147  10.624  19.127  0.00  0.00    +0.000 A 
ATOM     14  C   UNL     1       0.911  10.015  20.369  0.00  0.00    +0.000 A 
ATOM     15  C   UNL     1       1.184   8.650  20.598  0.00  0.00    +0.000 A 
ATOM     16  C   UNL     1       1.712   7.820  19.601  0.00  0.00    +0.000 A 
ATOM     17  C   UNL     1       2.038   8.449  18.381  0.00  0.00    +0.000 A 
ATOM     18  C   UNL     1       1.759   9.824  18.150  0.00  0.00    +0.000 A 
BRANCH  13  22
ATOM     19  C   UNL     1       1.113  15.629  18.942  0.00  0.00    +0.000 C 
ATOM     20  N   UNL     1       0.757  14.231  18.798  0.00  0.00    +0.000 N 
ATOM     21  C   UNL     1       1.536  13.139  19.068  0.00  0.00    +0.000 A 
ATOM     22  C   UNL     1       0.751  12.015  18.865  0.00  0.00    +0.000 A 
ATOM     23  C   UNL     1      -0.488  12.574  18.444  0.00  0.00    +0.000 A 
ATOM     24  N   UNL     1      -0.479  13.910  18.400  0.00  0.00    +0.000 NA
ENDBRANCH  13  22
ENDBRANCH  12  16
ENDBRANCH   1  12
BRANCH   8  25
ATOM     25  O   UNL     1       6.177   3.771  14.938  0.00  0.00    +0.000 OA
BRANCH  25  26
ATOM     26  C   UNL     1       6.087   3.879  13.534  0.00  0.00    +0.000 C 
ATOM     27  F   UNL     1       4.851   4.217  13.106  0.00  0.00    +0.000 F 
ATOM     28  F   UNL     1       6.950   4.842  13.131  0.00  0.00    +0.000 F 
ATOM     29  F   UNL     1       6.459   2.725  12.950  0.00  0.00    +0.000 F 
ENDBRANCH  25  26
ENDBRANCH   8  25
TORSDOF 5
ENDMDL
MODEL 8
REMARK VINA RESULT:      -8.3      1.016      1.296
REMARK  Name = 
REMARK  6 active torsions:
REMARK  status: ('A' for Active; 'I' for Inactive)
REMARK    1  A    between atoms: C_1  and  N_2
REMARK    2  A    between atoms: C_4  and  C_5
REMARK    3  A    between atoms: C_8  and  C_9
REMARK    4  A    between atoms: C_9  and  N_10
REMARK    5  A    between atoms: C_17  and  O_18
REMARK    6  A    between atoms: O_18  and  C_19
REMARK                            x       y       z     vdW  Elec       q    Type
REMARK                         _______ _______ _______ _____ _____    ______ ____
ROOT
ATOM      1  N   UNL     1       3.012   5.329  19.264  0.00  0.00    +0.000 N 
ATOM      2  C   UNL     1       2.139   4.225  19.138  0.00  0.00    +0.000 C 
ATOM      3  O   UNL     1       1.006   4.084  19.556  0.00  0.00    +0.000 OA
ATOM      4  C   UNL     1       2.823   3.215  18.231  0.00  0.00    +0.000 C 
ATOM      5  O   UNL     1       2.530   2.052  18.071  0.00  0.00    +0.000 OA
ATOM      6  C   UNL     1       3.900   3.962  17.619  0.00  0.00    +0.000 A 
ATOM      7  C   UNL     1       4.648   3.482  16.562  0.00  0.00    +0.000 A 
ATOM      8  C   UNL     1       5.501   4.353  15.897  0.00  0.00    +0.000 A 
ATOM      9  C   UNL     1       5.547   5.685  16.358  0.00  0.00    +0.000 A 
ATOM     10  C   UNL     1       4.783   6.138  17.516  0.00  0.00    +0.000 A 
ATOM     11  C   UNL     1       3.944   5.251  18.175  0.00  0.00    +0.000 A 
ENDROOT
BRANCH   1  12
ATOM     12  C   UNL     1       2.510   6.318  20.200  0.00  0.00    +0.000 C 
BRANCH  12  16
ATOM     13  C   UNL     1       0.669  10.286  19.687  0.00  0.00    +0.000 A 
ATOM     14  C   UNL     1       0.516   9.520  20.852  0.00  0.00    +0.000 A 
ATOM     15  C   UNL     1       1.040   8.214  20.964  0.00  0.00    +0.000 A 
ATOM     16  C   UNL     1       1.749   7.605  19.920  0.00  0.00    +0.000 A 
ATOM     17  C   UNL     1       1.985   8.406  18.784  0.00  0.00    +0.000 A 
ATOM     18  C   UNL     1       1.453   9.720  18.670  0.00  0.00    +0.000 A 
BRANCH  13  22
ATOM     19  C   UNL     1      -0.143  15.134  18.729  0.00  0.00    +0.000 C 
ATOM     20  N   UNL     1      -0.313  13.746  19.110  0.00  0.00    +0.000 N 
ATOM     21  C   UNL     1       0.578  12.721  18.950  0.00  0.00    +0.000 A 
ATOM     22  C   UNL     1       0.020  11.597  19.538  0.00  0.00    +0.000 A 
ATOM     23  C   UNL     1      -1.237  12.078  19.998  0.00  0.00    +0.000 A 
ATOM     24  N   UNL     1      -1.437  13.374  19.733  0.00  0.00    +0.000 NA
ENDBRANCH  13  22
ENDBRANCH  12  16
ENDBRANCH   1  12
BRANCH   8  25
ATOM     25  O   UNL     1       6.207   3.710  14.933  0.00  0.00    +0.000 OA
BRANCH  25  26
ATOM     26  C   UNL     1       6.129   3.945  13.544  0.00  0.00    +0.000 C 
ATOM     27  F   UNL     1       6.949   4.933  13.126  0.00  0.00    +0.000 F 
ATOM     28  F   UNL     1       6.484   2.804  12.905  0.00  0.00    +0.000 F 
ATOM     29  F   UNL     1       4.864   4.235  13.188  0.00  0.00    +0.000 F 
ENDBRANCH  25  26
ENDBRANCH   8  25
TORSDOF 5
ENDMDL
MODEL 9
REMARK VINA RESULT:      -8.1      1.654      1.980
REMARK  Name = 
REMARK  6 active torsions:
REMARK  status: ('A' for Active; 'I' for Inactive)
REMARK    1  A    between atoms: C_1  and  N_2
REMARK    2  A    between atoms: C_4  and  C_5
REMARK    3  A    between atoms: C_8  and  C_9
REMARK    4  A    between atoms: C_9  and  N_10
REMARK    5  A    between atoms: C_17  and  O_18
REMARK    6  A    between atoms: O_18  and  C_19
REMARK                            x       y       z     vdW  Elec       q    Type
REMARK                         _______ _______ _______ _____ _____    ______ ____
ROOT
ATOM      1  N   UNL     1       4.900   5.377  18.185  0.00  0.00    +0.000 N 
ATOM      2  C   UNL     1       6.021   4.971  18.943  0.00  0.00    +0.000 C 
ATOM      3  O   UNL     1       6.100   4.719  20.130  0.00  0.00    +0.000 OA
ATOM      4  C   UNL     1       7.168   4.758  17.968  0.00  0.00    +0.000 C 
ATOM      5  O   UNL     1       8.345   4.649  18.227  0.00  0.00    +0.000 OA
ATOM      6  C   UNL     1       6.528   4.724  16.671  0.00  0.00    +0.000 A 
ATOM      7  C   UNL     1       7.178   4.337  15.517  0.00  0.00    +0.000 A 
ATOM      8  C   UNL     1       6.429   4.119  14.368  0.00  0.00    +0.000 A 
ATOM      9  C   UNL     1       5.035   4.313  14.463  0.00  0.00    +0.000 A 
ATOM     10  C   UNL     1       4.393   4.777  15.689  0.00  0.00    +0.000 A 
ATOM     11  C   UNL     1       5.159   5.002  16.823  0.00  0.00    +0.000 A 
ENDROOT
BRANCH   1  12
ATOM     12  C   UNL     1       3.766   5.717  19.024  0.00  0.00    +0.000 C 
BRANCH  12  16
ATOM     13  C   UNL     1       1.266   9.339  18.863  0.00  0.00    +0.000 A 
ATOM     14  C   UNL     1       1.411   8.563  20.023  0.00  0.00    +0.000 A 
ATOM     15  C   UNL     1       2.146   7.358  20.032  0.00  0.00    +0.000 A 
ATOM     16  C   UNL     1       2.779   6.864  18.884  0.00  0.00    +0.000 A 
ATOM     17  C   UNL     1       2.714   7.688  17.741  0.00  0.00    +0.000 A 
ATOM     18  C   UNL     1       1.971   8.900  17.731  0.00  0.00    +0.000 A 
BRANCH  13  22
ATOM     19  C   UNL     1      -0.513  13.967  19.568  0.00  0.00    +0.000 C 
ATOM     20  N   UNL     1      -0.363  12.583  19.164  0.00  0.00    +0.000 N 
ATOM     21  C   UNL     1       0.753  11.799  19.267  0.00  0.00    +0.000 A 
ATOM     22  C   UNL     1       0.404  10.529  18.836  0.00  0.00    +0.000 A 
ATOM     23  C   UNL     1      -0.962  10.689  18.471  0.00  0.00    +0.000 A 
ATOM     24  N   UNL     1      -1.419  11.931  18.666  0.00  0.00    +0.000 NA
ENDBRANCH  13  22
ENDBRANCH  12  16
ENDBRANCH   1  12
BRANCH   8  25
ATOM     25  O   UNL     1       7.224   3.812  13.313  0.00  0.00    +0.000 OA
BRANCH  25  26
ATOM     26  C   UNL     1       6.809   3.642  11.975  0.00  0.00    +0.000 C 
ATOM     27  F   UNL     1       5.466   3.586  11.839  0.00  0.00    +0.000 F 
ATOM     28  F   UNL     1       7.261   4.699  11.257  0.00  0.00    +0.000 F 
ATOM     29  F   UNL     1       7.356   2.529  11.452  0.00  0.00    +0.000 F 
ENDBRANCH  25  26
ENDBRANCH   8  25
TORSDOF 5
ENDMDL
