MODEL 1
REMARK VINA RESULT:      -7.2      0.000      0.000
REMARK  Name = 
REMARK  7 active torsions:
REMARK  status: ('A' for Active; 'I' for Inactive)
REMARK    1  A    between atoms: C_2  and  C_4
REMARK    2  A    between atoms: C_4  and  C_5
REMARK    3  A    between atoms: C_5  and  C_6
REMARK    4  A    between atoms: C_6  and  O_7
REMARK    5  A    between atoms: C_6  and  C_8
REMARK    6  A    between atoms: C_11  and  C_12
REMARK    7  A    between atoms: C_13  and  C_14
REMARK                            x       y       z     vdW  Elec       q    Type
REMARK                         _______ _______ _______ _____ _____    ______ ____
ROOT
ATOM      1  C   UNL     1       6.098   5.148  17.225  0.00  0.00    +0.000 A 
ATOM      2  C   UNL     1       6.026   6.455  16.714  0.00  0.00    +0.000 A 
ATOM      3  C   UNL     1       6.851   7.462  17.218  0.00  0.00    +0.000 A 
ATOM      4  C   UNL     1       7.766   7.202  18.255  0.00  0.00    +0.000 A 
ATOM      5  C   UNL     1       7.872   5.894  18.730  0.00  0.00    +0.000 A 
ATOM      6  C   UNL     1       7.046   4.883  18.227  0.00  0.00    +0.000 A 
ENDROOT
BRANCH   4   7
ATOM      7  C   UNL     1       8.583   8.311  18.749  0.00  0.00    +0.000 C 
ATOM      8  C   UNL     1       8.546   9.561  18.252  0.00  0.00    +0.000 C 
BRANCH   8   9
ATOM      9  C   UNL     1       9.404  10.646  18.750  0.00  0.00    +0.000 A 
ATOM     10  C   UNL     1       9.620  10.796  20.118  0.00  0.00    +0.000 A 
ATOM     11  C   UNL     1      10.443  11.829  20.559  0.00  0.00    +0.000 A 
ATOM     12  C   UNL     1      11.021  12.684  19.628  0.00  0.00    +0.000 A 
ATOM     13  C   UNL     1      10.750  12.468  18.288  0.00  0.00    +0.000 A 
ATOM     14  N   UNL     1       9.964  11.470  17.833  0.00  0.00    +0.000 NA
ENDBRANCH   8   9
ENDBRANCH   4   7
BRANCH   1  15
ATOM     15  C   UNL     1       5.176   4.030  16.779  0.00  0.00    +0.000 C 
BRANCH  15  16
ATOM     16  O   UNL     1       5.261   3.912  15.355  0.00  0.00    +0.000 OA
ATOM     17  H   UNL     1       5.623   4.756  15.032  0.00  0.00    +0.000 HD
ENDBRANCH  15  16
BRANCH  15  18
ATOM     18  C   UNL     1       3.697   4.183  17.177  0.00  0.00    +0.000 C 
BRANCH  18  19
ATOM     19  C   UNL     1       3.415   3.801  18.624  0.00  0.00    +0.000 C 
BRANCH  19  21
ATOM     20  O   UNL     1       3.519   1.393  18.580  0.00  0.00    +0.000 OA
ATOM     21  C   UNL     1       3.957   2.463  19.054  0.00  0.00    +0.000 C 
ATOM     22  O   UNL     1       4.877   2.484  19.938  0.00  0.00    +0.000 OA
ENDBRANCH  19  21
ENDBRANCH  18  19
ENDBRANCH  15  18
ENDBRANCH   1  15
TORSDOF 7
ENDMDL
MODEL 2
REMARK VINA RESULT:      -7.2      1.479      3.016
REMARK  Name = 
REMARK  7 active torsions:
REMARK  status: ('A' for Active; 'I' for Inactive)
REMARK    1  A    between atoms: C_2  and  C_4
REMARK    2  A    between atoms: C_4  and  C_5
REMARK    3  A    between atoms: C_5  and  C_6
REMARK    4  A    between atoms: C_6  and  O_7
REMARK    5  A    between atoms: C_6  and  C_8
REMARK    6  A    between atoms: C_11  and  C_12
REMARK    7  A    between atoms: C_13  and  C_14
REMARK                            x       y       z     vdW  Elec       q    Type
REMARK                         _______ _______ _______ _____ _____    ______ ____
ROOT
ATOM      1  C   UNL     1       5.973   5.638  17.524  0.00  0.00    +0.000 A 
ATOM      2  C   UNL     1       5.984   6.931  16.973  0.00  0.00    +0.000 A 
ATOM      3  C   UNL     1       6.937   7.868  17.377  0.00  0.00    +0.000 A 
ATOM      4  C   UNL     1       7.900   7.551  18.352  0.00  0.00    +0.000 A 
ATOM      5  C   UNL     1       7.919   6.253  18.866  0.00  0.00    +0.000 A 
ATOM      6  C   UNL     1       6.966   5.312  18.462  0.00  0.00    +0.000 A 
ENDROOT
BRANCH   4   7
ATOM      7  C   UNL     1       8.854   8.590  18.745  0.00  0.00    +0.000 C 
ATOM      8  C   UNL     1       8.760   9.882  18.382  0.00  0.00    +0.000 C 
BRANCH   8   9
ATOM      9  C   UNL     1       9.752  10.896  18.766  0.00  0.00    +0.000 A 
ATOM     10  C   UNL     1      10.487  11.562  17.788  0.00  0.00    +0.000 A 
ATOM     11  C   UNL     1      11.416  12.523  18.183  0.00  0.00    +0.000 A 
ATOM     12  C   UNL     1      11.587  12.787  19.536  0.00  0.00    +0.000 A 
ATOM     13  C   UNL     1      10.821  12.076  20.442  0.00  0.00    +0.000 A 
ATOM     14  N   UNL     1       9.908  11.147  20.087  0.00  0.00    +0.000 NA
ENDBRANCH   8   9
ENDBRANCH   4   7
BRANCH   1  15
ATOM     15  C   UNL     1       4.918   4.602  17.188  0.00  0.00    +0.000 C 
BRANCH  15  16
ATOM     16  O   UNL     1       5.072   3.493  18.080  0.00  0.00    +0.000 OA
ATOM     17  H   UNL     1       5.837   3.699  18.643  0.00  0.00    +0.000 HD
ENDBRANCH  15  16
BRANCH  15  18
ATOM     18  C   UNL     1       4.928   4.080  15.740  0.00  0.00    +0.000 C 
BRANCH  18  19
ATOM     19  C   UNL     1       6.310   3.663  15.255  0.00  0.00    +0.000 C 
BRANCH  19  21
ATOM     20  O   UNL     1       6.511   4.060  12.886  0.00  0.00    +0.000 OA
ATOM     21  C   UNL     1       6.819   4.404  14.047  0.00  0.00    +0.000 C 
ATOM     22  O   UNL     1       7.593   5.393  14.276  0.00  0.00    +0.000 OA
ENDBRANCH  19  21
ENDBRANCH  18  19
ENDBRANCH  15  18
ENDBRANCH   1  15
TORSDOF 7
ENDMDL
MODEL 3
REMARK VINA RESULT:      -7.2      0.630      1.051
REMARK  Name = 
REMARK  7 active torsions:
REMARK  status: ('A' for Active; 'I' for Inactive)
REMARK    1  A    between atoms: C_2  and  C_4
REMARK    2  A    between atoms: C_4  and  C_5
REMARK    3  A    between atoms: C_5  and  C_6
REMARK    4  A    between atoms: C_6  and  O_7
REMARK    5  A    between atoms: C_6  and  C_8
REMARK    6  A    between atoms: C_11  and  C_12
REMARK    7  A    between atoms: C_13  and  C_14
REMARK                            x       y       z     vdW  Elec       q    Type
REMARK                         _______ _______ _______ _____ _____    ______ ____
ROOT
ATOM      1  C   UNL     1       6.166   5.052  17.146  0.00  0.00    +0.000 A 
ATOM      2  C   UNL     1       6.170   6.336  16.576  0.00  0.00    +0.000 A 
ATOM      3  C   UNL     1       6.980   7.345  17.102  0.00  0.00    +0.000 A 
ATOM      4  C   UNL     1       7.800   7.110  18.221  0.00  0.00    +0.000 A 
ATOM      5  C   UNL     1       7.831   5.823  18.759  0.00  0.00    +0.000 A 
ATOM      6  C   UNL     1       7.022   4.810  18.233  0.00  0.00    +0.000 A 
ENDROOT
BRANCH   4   7
ATOM      7  C   UNL     1       8.604   8.221  18.733  0.00  0.00    +0.000 C 
ATOM      8  C   UNL     1       8.513   9.490  18.294  0.00  0.00    +0.000 C 
BRANCH   8   9
ATOM      9  C   UNL     1       9.358  10.578  18.807  0.00  0.00    +0.000 A 
ATOM     10  C   UNL     1      10.063  11.392  17.924  0.00  0.00    +0.000 A 
ATOM     11  C   UNL     1      10.850  12.419  18.439  0.00  0.00    +0.000 A 
ATOM     12  C   UNL     1      10.916  12.600  19.815  0.00  0.00    +0.000 A 
ATOM     13  C   UNL     1      10.189  11.743  20.622  0.00  0.00    +0.000 A 
ATOM     14  N   UNL     1       9.411  10.746  20.149  0.00  0.00    +0.000 NA
ENDBRANCH   8   9
ENDBRANCH   4   7
BRANCH   1  15
ATOM     15  C   UNL     1       5.253   3.937  16.674  0.00  0.00    +0.000 C 
BRANCH  15  16
ATOM     16  O   UNL     1       5.379   3.818  15.254  0.00  0.00    +0.000 OA
ATOM     17  H   UNL     1       4.474   3.769  14.902  0.00  0.00    +0.000 HD
ENDBRANCH  15  16
BRANCH  15  18
ATOM     18  C   UNL     1       3.763   4.095  17.029  0.00  0.00    +0.000 C 
BRANCH  18  19
ATOM     19  C   UNL     1       3.452   3.794  18.489  0.00  0.00    +0.000 C 
BRANCH  19  21
ATOM     20  O   UNL     1       3.514   1.384  18.521  0.00  0.00    +0.000 OA
ATOM     21  C   UNL     1       3.942   2.460  18.989  0.00  0.00    +0.000 C 
ATOM     22  O   UNL     1       4.808   2.493  19.927  0.00  0.00    +0.000 OA
ENDBRANCH  19  21
ENDBRANCH  18  19
ENDBRANCH  15  18
ENDBRANCH   1  15
TORSDOF 7
ENDMDL
MODEL 4
REMARK VINA RESULT:      -7.1      0.966      1.589
REMARK  Name = 
REMARK  7 active torsions:
REMARK  status: ('A' for Active; 'I' for Inactive)
REMARK    1  A    between atoms: C_2  and  C_4
REMARK    2  A    between atoms: C_4  and  C_5
REMARK    3  A    between atoms: C_5  and  C_6
REMARK    4  A    between atoms: C_6  and  O_7
REMARK    5  A    between atoms: C_6  and  C_8
REMARK    6  A    between atoms: C_11  and  C_12
REMARK    7  A    between atoms: C_13  and  C_14
REMARK                            x       y       z     vdW  Elec       q    Type
REMARK                         _______ _______ _______ _____ _____    ______ ____
ROOT
ATOM      1  C   UNL     1       5.996   5.058  17.241  0.00  0.00    +0.000 A 
ATOM      2  C   UNL     1       7.010   4.835  18.188  0.00  0.00    +0.000 A 
ATOM      3  C   UNL     1       7.818   5.887  18.626  0.00  0.00    +0.000 A 
ATOM      4  C   UNL     1       7.649   7.190  18.125  0.00  0.00    +0.000 A 
ATOM      5  C   UNL     1       6.612   7.421  17.219  0.00  0.00    +0.000 A 
ATOM      6  C   UNL     1       5.801   6.370  16.780  0.00  0.00    +0.000 A 
ENDROOT
BRANCH   4   7
ATOM      7  C   UNL     1       8.547   8.239  18.611  0.00  0.00    +0.000 C 
ATOM      8  C   UNL     1       8.485   9.528  18.230  0.00  0.00    +0.000 C 
BRANCH   8   9
ATOM      9  C   UNL     1       9.423  10.552  18.713  0.00  0.00    +0.000 A 
ATOM     10  C   UNL     1       9.558  10.789  20.078  0.00  0.00    +0.000 A 
ATOM     11  C   UNL     1      10.460  11.761  20.507  0.00  0.00    +0.000 A 
ATOM     12  C   UNL     1      11.194  12.469  19.563  0.00  0.00    +0.000 A 
ATOM     13  C   UNL     1      10.994  12.176  18.226  0.00  0.00    +0.000 A 
ATOM     14  N   UNL     1      10.135  11.233  17.785  0.00  0.00    +0.000 NA
ENDBRANCH   8   9
ENDBRANCH   4   7
BRANCH   1  15
ATOM     15  C   UNL     1       5.140   3.946  16.665  0.00  0.00    +0.000 C 
BRANCH  15  16
ATOM     16  O   UNL     1       5.192   4.028  15.238  0.00  0.00    +0.000 OA
ATOM     17  H   UNL     1       5.624   4.873  15.027  0.00  0.00    +0.000 HD
ENDBRANCH  15  16
BRANCH  15  18
ATOM     18  C   UNL     1       3.666   3.939  17.109  0.00  0.00    +0.000 C 
BRANCH  18  19
ATOM     19  C   UNL     1       3.153   2.555  17.487  0.00  0.00    +0.000 C 
BRANCH  19  21
ATOM     20  O   UNL     1       2.308   2.190  19.715  0.00  0.00    +0.000 OA
ATOM     21  C   UNL     1       2.074   2.534  18.537  0.00  0.00    +0.000 C 
ATOM     22  O   UNL     1       0.905   2.874  18.152  0.00  0.00    +0.000 OA
ENDBRANCH  19  21
ENDBRANCH  18  19
ENDBRANCH  15  18
ENDBRANCH   1  15
TORSDOF 7
ENDMDL
MODEL 5
REMARK VINA RESULT:      -7.1      1.056      1.767
REMARK  Name = 
REMARK  7 active torsions:
REMARK  status: ('A' for Active; 'I' for Inactive)
REMARK    1  A    between atoms: C_2  and  C_4
REMARK    2  A    between atoms: C_4  and  C_5
REMARK    3  A    between atoms: C_5  and  C_6
REMARK    4  A    between atoms: C_6  and  O_7
REMARK    5  A    between atoms: C_6  and  C_8
REMARK    6  A    between atoms: C_11  and  C_12
REMARK    7  A    between atoms: C_13  and  C_14
REMARK                            x       y       z     vdW  Elec       q    Type
REMARK                         _______ _______ _______ _____ _____    ______ ____
ROOT
ATOM      1  C   UNL     1       6.351   5.257  17.717  0.00  0.00    +0.000 A 
ATOM      2  C   UNL     1       7.454   5.473  18.561  0.00  0.00    +0.000 A 
ATOM      3  C   UNL     1       8.066   6.726  18.625  0.00  0.00    +0.000 A 
ATOM      4  C   UNL     1       7.606   7.801  17.842  0.00  0.00    +0.000 A 
ATOM      5  C   UNL     1       6.482   7.600  17.039  0.00  0.00    +0.000 A 
ATOM      6  C   UNL     1       5.867   6.346  16.973  0.00  0.00    +0.000 A 
ENDROOT
BRANCH   4   7
ATOM      7  C   UNL     1       8.310   9.080  17.943  0.00  0.00    +0.000 C 
ATOM      8  C   UNL     1       9.006   9.480  19.023  0.00  0.00    +0.000 C 
BRANCH   8   9
ATOM      9  C   UNL     1       9.676  10.786  19.106  0.00  0.00    +0.000 A 
ATOM     10  C   UNL     1      10.131  11.413  17.950  0.00  0.00    +0.000 A 
ATOM     11  C   UNL     1      10.756  12.654  18.059  0.00  0.00    +0.000 A 
ATOM     12  C   UNL     1      10.912  13.227  19.315  0.00  0.00    +0.000 A 
ATOM     13  C   UNL     1      10.436  12.534  20.414  0.00  0.00    +0.000 A 
ATOM     14  N   UNL     1       9.819  11.336  20.335  0.00  0.00    +0.000 NA
ENDBRANCH   8   9
ENDBRANCH   4   7
BRANCH   1  15
ATOM     15  C   UNL     1       5.693   3.902  17.540  0.00  0.00    +0.000 C 
BRANCH  15  16
ATOM     16  O   UNL     1       5.912   3.464  16.195  0.00  0.00    +0.000 OA
ATOM     17  H   UNL     1       6.876   3.413  16.078  0.00  0.00    +0.000 HD
ENDBRANCH  15  16
BRANCH  15  18
ATOM     18  C   UNL     1       4.185   3.845  17.842  0.00  0.00    +0.000 C 
BRANCH  18  19
ATOM     19  C   UNL     1       3.743   2.533  18.478  0.00  0.00    +0.000 C 
BRANCH  19  21
ATOM     20  O   UNL     1       5.057   1.908  20.400  0.00  0.00    +0.000 OA
ATOM     21  C   UNL     1       4.005   2.415  19.957  0.00  0.00    +0.000 C 
ATOM     22  O   UNL     1       3.085   2.848  20.729  0.00  0.00    +0.000 OA
ENDBRANCH  19  21
ENDBRANCH  18  19
ENDBRANCH  15  18
ENDBRANCH   1  15
TORSDOF 7
ENDMDL
MODEL 6
REMARK VINA RESULT:      -7.0      1.606      3.227
REMARK  Name = 
REMARK  7 active torsions:
REMARK  status: ('A' for Active; 'I' for Inactive)
REMARK    1  A    between atoms: C_2  and  C_4
REMARK    2  A    between atoms: C_4  and  C_5
REMARK    3  A    between atoms: C_5  and  C_6
REMARK    4  A    between atoms: C_6  and  O_7
REMARK    5  A    between atoms: C_6  and  C_8
REMARK    6  A    between atoms: C_11  and  C_12
REMARK    7  A    between atoms: C_13  and  C_14
REMARK                            x       y       z     vdW  Elec       q    Type
REMARK                         _______ _______ _______ _____ _____    ______ ____
ROOT
ATOM      1  C   UNL     1       6.365   5.800  17.813  0.00  0.00    +0.000 A 
ATOM      2  C   UNL     1       7.558   5.910  18.547  0.00  0.00    +0.000 A 
ATOM      3  C   UNL     1       8.255   7.119  18.596  0.00  0.00    +0.000 A 
ATOM      4  C   UNL     1       7.792   8.253  17.904  0.00  0.00    +0.000 A 
ATOM      5  C   UNL     1       6.583   8.158  17.213  0.00  0.00    +0.000 A 
ATOM      6  C   UNL     1       5.883   6.948  17.163  0.00  0.00    +0.000 A 
ENDROOT
BRANCH   4   7
ATOM      7  C   UNL     1       8.585   9.481  17.981  0.00  0.00    +0.000 C 
ATOM      8  C   UNL     1       9.080   9.994  19.122  0.00  0.00    +0.000 C 
BRANCH   8   9
ATOM      9  C   UNL     1       9.847  11.248  19.170  0.00  0.00    +0.000 A 
ATOM     10  C   UNL     1      11.094  11.282  19.789  0.00  0.00    +0.000 A 
ATOM     11  C   UNL     1      11.800  12.483  19.813  0.00  0.00    +0.000 A 
ATOM     12  C   UNL     1      11.242  13.611  19.225  0.00  0.00    +0.000 A 
ATOM     13  C   UNL     1       9.995  13.492  18.636  0.00  0.00    +0.000 A 
ATOM     14  N   UNL     1       9.294  12.339  18.591  0.00  0.00    +0.000 NA
ENDBRANCH   8   9
ENDBRANCH   4   7
BRANCH   1  15
ATOM     15  C   UNL     1       5.605   4.498  17.654  0.00  0.00    +0.000 C 
BRANCH  15  16
ATOM     16  O   UNL     1       5.865   3.678  18.798  0.00  0.00    +0.000 OA
ATOM     17  H   UNL     1       5.904   2.762  18.475  0.00  0.00    +0.000 HD
ENDBRANCH  15  16
BRANCH  15  18
ATOM     18  C   UNL     1       5.920   3.689  16.382  0.00  0.00    +0.000 C 
BRANCH  18  19
ATOM     19  C   UNL     1       5.565   4.421  15.095  0.00  0.00    +0.000 C 
BRANCH  19  21
ATOM     20  O   UNL     1       7.651   5.426  14.421  0.00  0.00    +0.000 OA
ATOM     21  C   UNL     1       6.713   4.647  14.146  0.00  0.00    +0.000 C 
ATOM     22  O   UNL     1       6.666   4.010  13.041  0.00  0.00    +0.000 OA
ENDBRANCH  19  21
ENDBRANCH  18  19
ENDBRANCH  15  18
ENDBRANCH   1  15
TORSDOF 7
ENDMDL
MODEL 7
REMARK VINA RESULT:      -7.0      5.560      7.367
REMARK  Name = 
REMARK  7 active torsions:
REMARK  status: ('A' for Active; 'I' for Inactive)
REMARK    1  A    between atoms: C_2  and  C_4
REMARK    2  A    between atoms: C_4  and  C_5
REMARK    3  A    between atoms: C_5  and  C_6
REMARK    4  A    between atoms: C_6  and  O_7
REMARK    5  A    between atoms: C_6  and  C_8
REMARK    6  A    between atoms: C_11  and  C_12
REMARK    7  A    between atoms: C_13  and  C_14
REMARK                            x       y       z     vdW  Elec       q    Type
REMARK                         _______ _______ _______ _____ _____    ______ ____
ROOT
ATOM      1  C   UNL     1       3.635   4.851  18.521  0.00  0.00    +0.000 A 
ATOM      2  C   UNL     1       2.969   4.858  19.758  0.00  0.00    +0.000 A 
ATOM      3  C   UNL     1       2.295   6.000  20.197  0.00  0.00    +0.000 A 
ATOM      4  C   UNL     1       2.274   7.174  19.422  0.00  0.00    +0.000 A 
ATOM      5  C   UNL     1       2.896   7.153  18.173  0.00  0.00    +0.000 A 
ATOM      6  C   UNL     1       3.571   6.011  17.731  0.00  0.00    +0.000 A 
ENDROOT
BRANCH   4   7
ATOM      7  C   UNL     1       1.567   8.340  19.955  0.00  0.00    +0.000 C 
ATOM      8  C   UNL     1       1.120   8.444  21.220  0.00  0.00    +0.000 C 
BRANCH   8   9
ATOM      9  C   UNL     1       0.384   9.616  21.715  0.00  0.00    +0.000 A 
ATOM     10  C   UNL     1       0.529  10.850  21.087  0.00  0.00    +0.000 A 
ATOM     11  C   UNL     1      -0.186  11.942  21.575  0.00  0.00    +0.000 A 
ATOM     12  C   UNL     1      -1.018  11.772  22.675  0.00  0.00    +0.000 A 
ATOM     13  C   UNL     1      -1.100  10.513  23.244  0.00  0.00    +0.000 A 
ATOM     14  N   UNL     1      -0.426   9.438  22.785  0.00  0.00    +0.000 NA
ENDBRANCH   8   9
ENDBRANCH   4   7
BRANCH   1  15
ATOM     15  C   UNL     1       4.452   3.674  18.025  0.00  0.00    +0.000 C 
BRANCH  15  16
ATOM     16  O   UNL     1       5.575   3.502  18.896  0.00  0.00    +0.000 OA
ATOM     17  H   UNL     1       6.359   3.773  18.388  0.00  0.00    +0.000 HD
ENDBRANCH  15  16
BRANCH  15  18
ATOM     18  C   UNL     1       4.960   3.775  16.575  0.00  0.00    +0.000 C 
BRANCH  18  19
ATOM     19  C   UNL     1       6.380   4.314  16.465  0.00  0.00    +0.000 C 
BRANCH  19  21
ATOM     20  O   UNL     1       5.718   6.158  15.060  0.00  0.00    +0.000 OA
ATOM     21  C   UNL     1       6.599   5.330  15.375  0.00  0.00    +0.000 C 
ATOM     22  O   UNL     1       7.729   5.288  14.783  0.00  0.00    +0.000 OA
ENDBRANCH  19  21
ENDBRANCH  18  19
ENDBRANCH  15  18
ENDBRANCH   1  15
TORSDOF 7
ENDMDL
MODEL 8
REMARK VINA RESULT:      -6.9      5.287      6.631
REMARK  Name = 
REMARK  7 active torsions:
REMARK  status: ('A' for Active; 'I' for Inactive)
REMARK    1  A    between atoms: C_2  and  C_4
REMARK    2  A    between atoms: C_4  and  C_5
REMARK    3  A    between atoms: C_5  and  C_6
REMARK    4  A    between atoms: C_6  and  O_7
REMARK    5  A    between atoms: C_6  and  C_8
REMARK    6  A    between atoms: C_11  and  C_12
REMARK    7  A    between atoms: C_13  and  C_14
REMARK                            x       y       z     vdW  Elec       q    Type
REMARK                         _______ _______ _______ _____ _____    ______ ____
ROOT
ATOM      1  C   UNL     1       3.909   5.059  18.917  0.00  0.00    +0.000 A 
ATOM      2  C   UNL     1       4.207   5.850  17.795  0.00  0.00    +0.000 A 
ATOM      3  C   UNL     1       3.581   7.085  17.608  0.00  0.00    +0.000 A 
ATOM      4  C   UNL     1       2.630   7.564  18.528  0.00  0.00    +0.000 A 
ATOM      5  C   UNL     1       2.369   6.800  19.667  0.00  0.00    +0.000 A 
ATOM      6  C   UNL     1       2.994   5.564  19.856  0.00  0.00    +0.000 A 
ENDROOT
BRANCH   4   7
ATOM      7  C   UNL     1       1.998   8.856  18.257  0.00  0.00    +0.000 C 
ATOM      8  C   UNL     1       1.156   9.481  19.101  0.00  0.00    +0.000 C 
BRANCH   8   9
ATOM      9  C   UNL     1       0.511  10.764  18.785  0.00  0.00    +0.000 A 
ATOM     10  C   UNL     1      -0.839  10.804  18.447  0.00  0.00    +0.000 A 
ATOM     11  C   UNL     1      -1.424  12.035  18.160  0.00  0.00    +0.000 A 
ATOM     12  C   UNL     1      -0.647  13.185  18.212  0.00  0.00    +0.000 A 
ATOM     13  C   UNL     1       0.689  13.056  18.551  0.00  0.00    +0.000 A 
ATOM     14  N   UNL     1       1.278  11.878  18.843  0.00  0.00    +0.000 NA
ENDBRANCH   8   9
ENDBRANCH   4   7
BRANCH   1  15
ATOM     15  C   UNL     1       4.491   3.676  19.136  0.00  0.00    +0.000 C 
BRANCH  15  16
ATOM     16  O   UNL     1       5.882   3.712  18.803  0.00  0.00    +0.000 OA
ATOM     17  H   UNL     1       6.028   2.997  18.160  0.00  0.00    +0.000 HD
ENDBRANCH  15  16
BRANCH  15  18
ATOM     18  C   UNL     1       3.821   2.535  18.350  0.00  0.00    +0.000 C 
BRANCH  18  19
ATOM     19  C   UNL     1       2.527   2.041  18.983  0.00  0.00    +0.000 C 
BRANCH  19  21
ATOM     20  O   UNL     1       1.293   3.491  17.504  0.00  0.00    +0.000 OA
ATOM     21  C   UNL     1       1.265   2.635  18.415  0.00  0.00    +0.000 C 
ATOM     22  O   UNL     1       0.169   2.227  18.925  0.00  0.00    +0.000 OA
ENDBRANCH  19  21
ENDBRANCH  18  19
ENDBRANCH  15  18
ENDBRANCH   1  15
TORSDOF 7
ENDMDL
MODEL 9
REMARK VINA RESULT:      -6.9      1.224      1.666
REMARK  Name = 
REMARK  7 active torsions:
REMARK  status: ('A' for Active; 'I' for Inactive)
REMARK    1  A    between atoms: C_2  and  C_4
REMARK    2  A    between atoms: C_4  and  C_5
REMARK    3  A    between atoms: C_5  and  C_6
REMARK    4  A    between atoms: C_6  and  O_7
REMARK    5  A    between atoms: C_6  and  C_8
REMARK    6  A    between atoms: C_11  and  C_12
REMARK    7  A    between atoms: C_13  and  C_14
REMARK                            x       y       z     vdW  Elec       q    Type
REMARK                         _______ _______ _______ _____ _____    ______ ____
ROOT
ATOM      1  C   UNL     1       6.352   5.377  17.950  0.00  0.00    +0.000 A 
ATOM      2  C   UNL     1       5.935   6.424  17.111  0.00  0.00    +0.000 A 
ATOM      3  C   UNL     1       6.613   7.646  17.108  0.00  0.00    +0.000 A 
ATOM      4  C   UNL     1       7.718   7.866  17.950  0.00  0.00    +0.000 A 
ATOM      5  C   UNL     1       8.161   6.810  18.749  0.00  0.00    +0.000 A 
ATOM      6  C   UNL     1       7.485   5.586  18.753  0.00  0.00    +0.000 A 
ENDROOT
BRANCH   4   7
ATOM      7  C   UNL     1       8.366   9.178  17.911  0.00  0.00    +0.000 C 
ATOM      8  C   UNL     1       9.045   9.719  18.939  0.00  0.00    +0.000 C 
BRANCH   8   9
ATOM      9  C   UNL     1       9.657  11.055  18.879  0.00  0.00    +0.000 A 
ATOM     10  C   UNL     1      10.471  11.404  17.805  0.00  0.00    +0.000 A 
ATOM     11  C   UNL     1      11.032  12.679  17.772  0.00  0.00    +0.000 A 
ATOM     12  C   UNL     1      10.769  13.564  18.811  0.00  0.00    +0.000 A 
ATOM     13  C   UNL     1       9.954  13.134  19.844  0.00  0.00    +0.000 A 
ATOM     14  N   UNL     1       9.391  11.909  19.895  0.00  0.00    +0.000 NA
ENDBRANCH   8   9
ENDBRANCH   4   7
BRANCH   1  15
ATOM     15  C   UNL     1       5.613   4.057  18.060  0.00  0.00    +0.000 C 
BRANCH  15  16
ATOM     16  O   UNL     1       5.499   3.491  16.750  0.00  0.00    +0.000 OA
ATOM     17  H   UNL     1       6.059   2.696  16.746  0.00  0.00    +0.000 HD
ENDBRANCH  15  16
BRANCH  15  18
ATOM     18  C   UNL     1       4.213   4.124  18.695  0.00  0.00    +0.000 C 
BRANCH  18  19
ATOM     19  C   UNL     1       3.091   3.758  17.732  0.00  0.00    +0.000 C 
BRANCH  19  21
ATOM     20  O   UNL     1       0.923   2.800  18.176  0.00  0.00    +0.000 OA
ATOM     21  C   UNL     1       2.165   2.669  18.208  0.00  0.00    +0.000 C 
ATOM     22  O   UNL     1       2.722   1.612  18.657  0.00  0.00    +0.000 OA
ENDBRANCH  19  21
ENDBRANCH  18  19
ENDBRANCH  15  18
ENDBRANCH   1  15
TORSDOF 7
ENDMDL
