MODEL 1
REMARK VINA RESULT:      -7.7      0.000      0.000
REMARK  Name = 
REMARK  8 active torsions:
REMARK  status: ('A' for Active; 'I' for Inactive)
REMARK    1  A    between atoms: N_1  and  C_2
REMARK    2  A    between atoms: C_2  and  C_3
REMARK    3  A    between atoms: C_7  and  C_8
REMARK    4  A    between atoms: C_12  and  C_13
REMARK    5  A    between atoms: C_13  and  N_14
REMARK    6  A    between atoms: N_18  and  C_19
REMARK    7  A    between atoms: C_19  and  C_20
REMARK    8  A    between atoms: C_20  and  O_21
REMARK                            x       y       z     vdW  Elec       q    Type
REMARK                         _______ _______ _______ _____ _____    ______ ____
ROOT
ATOM      1  C   UNL     1       5.374   5.232  15.811  0.00  0.00    +0.000 A 
ATOM      2  C   UNL     1       5.142   6.593  16.030  0.00  0.00    +0.000 A 
ATOM      3  C   UNL     1       4.261   7.024  17.026  0.00  0.00    +0.000 A 
ATOM      4  C   UNL     1       3.560   6.081  17.812  0.00  0.00    +0.000 A 
ATOM      5  C   UNL     1       2.606   6.179  18.880  0.00  0.00    +0.000 A 
ATOM      6  C   UNL     1       2.302   4.887  19.265  0.00  0.00    +0.000 A 
ATOM      7  N   UNL     1       3.039   4.024  18.494  0.00  0.00    +0.000 N 
ATOM      8  C   UNL     1       3.808   4.724  17.589  0.00  0.00    +0.000 A 
ATOM      9  C   UNL     1       4.705   4.280  16.598  0.00  0.00    +0.000 A 
ENDROOT
BRANCH   5  10
ATOM     10  C   UNL     1       2.052   7.365  19.528  0.00  0.00    +0.000 A 
ATOM     11  C   UNL     1       1.632   7.317  20.864  0.00  0.00    +0.000 A 
ATOM     12  C   UNL     1       1.010   8.417  21.458  0.00  0.00    +0.000 A 
ATOM     13  C   UNL     1       0.827   9.591  20.730  0.00  0.00    +0.000 A 
ATOM     14  C   UNL     1       1.267   9.672  19.402  0.00  0.00    +0.000 A 
ATOM     15  C   UNL     1       1.881   8.557  18.811  0.00  0.00    +0.000 A 
BRANCH  14  16
ATOM     16  C   UNL     1       1.060  10.925  18.623  0.00  0.00    +0.000 C 
ATOM     17  S   UNL     1      -0.244  11.959  18.775  0.00  0.00    +0.000 S 
BRANCH  16  18
ATOM     18  N   UNL     1       2.038  11.249  17.716  0.00  0.00    +0.000 N 
ATOM     19  H   UNL     1       2.849  11.807  17.947  0.00  0.00    +0.000 HD
ATOM     20  H   UNL     1       1.860  11.068  16.734  0.00  0.00    +0.000 HD
ENDBRANCH  16  18
ENDBRANCH  14  16
ENDBRANCH   5  10
BRANCH   1  21
ATOM     21  C   UNL     1       6.330   4.795  14.730  0.00  0.00    +0.000 C 
BRANCH  21  22
ATOM     22  N   UNL     1       7.653   5.382  14.916  0.00  0.00    +0.000 NA
ATOM     23  H   UNL     1       7.915   5.310  15.897  0.00  0.00    +0.000 HD
ATOM     24  H   UNL     1       7.598   6.376  14.702  0.00  0.00    +0.000 HD
ENDBRANCH  21  22
ENDBRANCH   1  21
BRANCH   7  25
ATOM     25  C   UNL     1       3.026   2.574  18.647  0.00  0.00    +0.000 C 
BRANCH  25  26
ATOM     26  C   UNL     1       3.868   2.098  19.824  0.00  0.00    +0.000 C 
BRANCH  26  27
ATOM     27  O   UNL     1       5.232   2.500  19.704  0.00  0.00    +0.000 OA
ATOM     28  H   UNL     1       5.648   1.911  19.045  0.00  0.00    +0.000 HD
ENDBRANCH  26  27
ENDBRANCH  25  26
ENDBRANCH   7  25
TORSDOF 8
ENDMDL
MODEL 2
REMARK VINA RESULT:      -7.5      1.455      1.455
REMARK  Name = 
REMARK  8 active torsions:
REMARK  status: ('A' for Active; 'I' for Inactive)
REMARK    1  A    between atoms: N_1  and  C_2
REMARK    2  A    between atoms: C_2  and  C_3
REMARK    3  A    between atoms: C_7  and  C_8
REMARK    4  A    between atoms: C_12  and  C_13
REMARK    5  A    between atoms: C_13  and  N_14
REMARK    6  A    between atoms: N_18  and  C_19
REMARK    7  A    between atoms: C_19  and  C_20
REMARK    8  A    between atoms: C_20  and  O_21
REMARK                            x       y       z     vdW  Elec       q    Type
REMARK                         _______ _______ _______ _____ _____    ______ ____
ROOT
ATOM      1  C   UNL     1       5.704   4.921  15.711  0.00  0.00    +0.000 A 
ATOM      2  C   UNL     1       5.626   6.267  16.079  0.00  0.00    +0.000 A 
ATOM      3  C   UNL     1       4.662   6.712  16.989  0.00  0.00    +0.000 A 
ATOM      4  C   UNL     1       3.724   5.805  17.530  0.00  0.00    +0.000 A 
ATOM      5  C   UNL     1       2.633   5.925  18.455  0.00  0.00    +0.000 A 
ATOM      6  C   UNL     1       2.100   4.660  18.613  0.00  0.00    +0.000 A 
ATOM      7  N   UNL     1       2.829   3.788  17.844  0.00  0.00    +0.000 N 
ATOM      8  C   UNL     1       3.819   4.460  17.163  0.00  0.00    +0.000 A 
ATOM      9  C   UNL     1       4.796   4.000  16.258  0.00  0.00    +0.000 A 
ENDROOT
BRANCH   5  10
ATOM     10  C   UNL     1       2.147   7.100  19.174  0.00  0.00    +0.000 A 
ATOM     11  C   UNL     1       1.839   7.025  20.539  0.00  0.00    +0.000 A 
ATOM     12  C   UNL     1       1.280   8.116  21.208  0.00  0.00    +0.000 A 
ATOM     13  C   UNL     1       1.047   9.308  20.523  0.00  0.00    +0.000 A 
ATOM     14  C   UNL     1       1.376   9.415  19.165  0.00  0.00    +0.000 A 
ATOM     15  C   UNL     1       1.927   8.310  18.500  0.00  0.00    +0.000 A 
BRANCH  14  16
ATOM     16  C   UNL     1       1.115  10.687  18.434  0.00  0.00    +0.000 C 
ATOM     17  S   UNL     1       2.204  11.943  18.250  0.00  0.00    +0.000 S 
BRANCH  16  18
ATOM     18  N   UNL     1      -0.123  10.818  17.857  0.00  0.00    +0.000 N 
ATOM     19  H   UNL     1      -0.990  10.726  18.370  0.00  0.00    +0.000 HD
ATOM     20  H   UNL     1      -0.181  10.839  16.844  0.00  0.00    +0.000 HD
ENDBRANCH  16  18
ENDBRANCH  14  16
ENDBRANCH   5  10
BRANCH   1  21
ATOM     21  C   UNL     1       6.754   4.469  14.727  0.00  0.00    +0.000 C 
BRANCH  21  22
ATOM     22  N   UNL     1       7.749   5.509  14.490  0.00  0.00    +0.000 NA
ATOM     23  H   UNL     1       7.570   6.291  15.116  0.00  0.00    +0.000 HD
ATOM     24  H   UNL     1       7.629   5.862  13.542  0.00  0.00    +0.000 HD
ENDBRANCH  21  22
ENDBRANCH   1  21
BRANCH   7  25
ATOM     25  C   UNL     1       2.596   2.349  17.795  0.00  0.00    +0.000 C 
BRANCH  25  26
ATOM     26  C   UNL     1       1.660   1.866  18.896  0.00  0.00    +0.000 C 
BRANCH  26  27
ATOM     27  O   UNL     1       0.309   1.771  18.448  0.00  0.00    +0.000 OA
ATOM     28  H   UNL     1       0.157   2.515  17.834  0.00  0.00    +0.000 HD
ENDBRANCH  26  27
ENDBRANCH  25  26
ENDBRANCH   7  25
TORSDOF 8
ENDMDL
MODEL 3
REMARK VINA RESULT:      -7.5      1.788      2.207
REMARK  Name = 
REMARK  8 active torsions:
REMARK  status: ('A' for Active; 'I' for Inactive)
REMARK    1  A    between atoms: N_1  and  C_2
REMARK    2  A    between atoms: C_2  and  C_3
REMARK    3  A    between atoms: C_7  and  C_8
REMARK    4  A    between atoms: C_12  and  C_13
REMARK    5  A    between atoms: C_13  and  N_14
REMARK    6  A    between atoms: N_18  and  C_19
REMARK    7  A    between atoms: C_19  and  C_20
REMARK    8  A    between atoms: C_20  and  O_21
REMARK                            x       y       z     vdW  Elec       q    Type
REMARK                         _______ _______ _______ _____ _____    ______ ____
ROOT
ATOM      1  C   UNL     1       5.990   4.968  16.054  0.00  0.00    +0.000 A 
ATOM      2  C   UNL     1       5.611   6.305  15.904  0.00  0.00    +0.000 A 
ATOM      3  C   UNL     1       4.599   6.862  16.692  0.00  0.00    +0.000 A 
ATOM      4  C   UNL     1       3.916   6.066  17.637  0.00  0.00    +0.000 A 
ATOM      5  C   UNL     1       2.856   6.311  18.574  0.00  0.00    +0.000 A 
ATOM      6  C   UNL     1       2.638   5.126  19.251  0.00  0.00    +0.000 A 
ATOM      7  N   UNL     1       3.526   4.192  18.780  0.00  0.00    +0.000 N 
ATOM      8  C   UNL     1       4.311   4.733  17.785  0.00  0.00    +0.000 A 
ATOM      9  C   UNL     1       5.339   4.167  17.007  0.00  0.00    +0.000 A 
ENDROOT
BRANCH   5  10
ATOM     10  C   UNL     1       2.132   7.547  18.859  0.00  0.00    +0.000 A 
ATOM     11  C   UNL     1       1.797   8.432  17.826  0.00  0.00    +0.000 A 
ATOM     12  C   UNL     1       1.195   9.661  18.104  0.00  0.00    +0.000 A 
ATOM     13  C   UNL     1       0.893  10.007  19.420  0.00  0.00    +0.000 A 
ATOM     14  C   UNL     1       1.191   9.124  20.466  0.00  0.00    +0.000 A 
ATOM     15  C   UNL     1       1.807   7.896  20.177  0.00  0.00    +0.000 A 
BRANCH  14  16
ATOM     16  C   UNL     1       0.878   9.502  21.873  0.00  0.00    +0.000 C 
ATOM     17  S   UNL     1      -0.427  10.423  22.364  0.00  0.00    +0.000 S 
BRANCH  16  18
ATOM     18  N   UNL     1       1.737   9.035  22.836  0.00  0.00    +0.000 N 
ATOM     19  H   UNL     1       1.855   9.476  23.739  0.00  0.00    +0.000 HD
ATOM     20  H   UNL     1       2.407   8.320  22.576  0.00  0.00    +0.000 HD
ENDBRANCH  16  18
ENDBRANCH  14  16
ENDBRANCH   5  10
BRANCH   1  21
ATOM     21  C   UNL     1       7.085   4.394  15.191  0.00  0.00    +0.000 C 
BRANCH  21  22
ATOM     22  N   UNL     1       7.512   5.341  14.167  0.00  0.00    +0.000 NA
ATOM     23  H   UNL     1       6.726   5.548  13.555  0.00  0.00    +0.000 HD
ATOM     24  H   UNL     1       8.221   4.893  13.588  0.00  0.00    +0.000 HD
ENDBRANCH  21  22
ENDBRANCH   1  21
BRANCH   7  25
ATOM     25  C   UNL     1       3.633   2.831  19.295  0.00  0.00    +0.000 C 
BRANCH  25  26
ATOM     26  C   UNL     1       2.981   1.802  18.381  0.00  0.00    +0.000 C 
BRANCH  26  27
ATOM     27  O   UNL     1       1.568   1.739  18.566  0.00  0.00    +0.000 OA
ATOM     28  H   UNL     1       1.411   1.534  19.509  0.00  0.00    +0.000 HD
ENDBRANCH  26  27
ENDBRANCH  25  26
ENDBRANCH   7  25
TORSDOF 8
ENDMDL
MODEL 4
REMARK VINA RESULT:      -7.4      2.477      4.208
REMARK  Name = 
REMARK  8 active torsions:
REMARK  status: ('A' for Active; 'I' for Inactive)
REMARK    1  A    between atoms: N_1  and  C_2
REMARK    2  A    between atoms: C_2  and  C_3
REMARK    3  A    between atoms: C_7  and  C_8
REMARK    4  A    between atoms: C_12  and  C_13
REMARK    5  A    between atoms: C_13  and  N_14
REMARK    6  A    between atoms: N_18  and  C_19
REMARK    7  A    between atoms: C_19  and  C_20
REMARK    8  A    between atoms: C_20  and  O_21
REMARK                            x       y       z     vdW  Elec       q    Type
REMARK                         _______ _______ _______ _____ _____    ______ ____
ROOT
ATOM      1  C   UNL     1       3.298   3.874  20.073  0.00  0.00    +0.000 A 
ATOM      2  C   UNL     1       2.258   4.479  20.785  0.00  0.00    +0.000 A 
ATOM      3  C   UNL     1       1.818   5.767  20.466  0.00  0.00    +0.000 A 
ATOM      4  C   UNL     1       2.445   6.496  19.431  0.00  0.00    +0.000 A 
ATOM      5  C   UNL     1       2.253   7.802  18.867  0.00  0.00    +0.000 A 
ATOM      6  C   UNL     1       3.172   7.936  17.844  0.00  0.00    +0.000 A 
ATOM      7  N   UNL     1       3.890   6.770  17.756  0.00  0.00    +0.000 N 
ATOM      8  C   UNL     1       3.476   5.877  18.720  0.00  0.00    +0.000 A 
ATOM      9  C   UNL     1       3.917   4.574  19.024  0.00  0.00    +0.000 A 
ENDROOT
BRANCH   5  10
ATOM     10  C   UNL     1       1.273   8.829  19.209  0.00  0.00    +0.000 A 
ATOM     11  C   UNL     1       0.788   9.708  18.231  0.00  0.00    +0.000 A 
ATOM     12  C   UNL     1      -0.071  10.755  18.572  0.00  0.00    +0.000 A 
ATOM     13  C   UNL     1      -0.481  10.917  19.894  0.00  0.00    +0.000 A 
ATOM     14  C   UNL     1      -0.034  10.031  20.883  0.00  0.00    +0.000 A 
ATOM     15  C   UNL     1       0.838   8.990  20.533  0.00  0.00    +0.000 A 
BRANCH  14  16
ATOM     16  C   UNL     1      -0.466  10.214  22.298  0.00  0.00    +0.000 C 
ATOM     17  S   UNL     1      -1.290  11.538  22.899  0.00  0.00    +0.000 S 
BRANCH  16  18
ATOM     18  N   UNL     1      -0.164   9.195  23.165  0.00  0.00    +0.000 N 
ATOM     19  H   UNL     1      -0.850   8.744  23.756  0.00  0.00    +0.000 HD
ATOM     20  H   UNL     1       0.814   8.996  23.351  0.00  0.00    +0.000 HD
ENDBRANCH  16  18
ENDBRANCH  14  16
ENDBRANCH   5  10
BRANCH   1  21
ATOM     21  C   UNL     1       3.751   2.483  20.438  0.00  0.00    +0.000 C 
BRANCH  21  22
ATOM     22  N   UNL     1       4.968   2.112  19.722  0.00  0.00    +0.000 NA
ATOM     23  H   UNL     1       5.074   2.714  18.910  0.00  0.00    +0.000 HD
ATOM     24  H   UNL     1       4.857   1.163  19.369  0.00  0.00    +0.000 HD
ENDBRANCH  21  22
ENDBRANCH   1  21
BRANCH   7  25
ATOM     25  C   UNL     1       4.919   6.516  16.754  0.00  0.00    +0.000 C 
BRANCH  25  26
ATOM     26  C   UNL     1       6.318   6.862  17.245  0.00  0.00    +0.000 C 
BRANCH  26  27
ATOM     27  O   UNL     1       7.331   6.375  16.367  0.00  0.00    +0.000 OA
ATOM     28  H   UNL     1       6.987   6.460  15.456  0.00  0.00    +0.000 HD
ENDBRANCH  26  27
ENDBRANCH  25  26
ENDBRANCH   7  25
TORSDOF 8
ENDMDL
MODEL 5
REMARK VINA RESULT:      -7.4      2.000      2.384
REMARK  Name = 
REMARK  8 active torsions:
REMARK  status: ('A' for Active; 'I' for Inactive)
REMARK    1  A    between atoms: N_1  and  C_2
REMARK    2  A    between atoms: C_2  and  C_3
REMARK    3  A    between atoms: C_7  and  C_8
REMARK    4  A    between atoms: C_12  and  C_13
REMARK    5  A    between atoms: C_13  and  N_14
REMARK    6  A    between atoms: N_18  and  C_19
REMARK    7  A    between atoms: C_19  and  C_20
REMARK    8  A    between atoms: C_20  and  O_21
REMARK                            x       y       z     vdW  Elec       q    Type
REMARK                         _______ _______ _______ _____ _____    ______ ____
ROOT
ATOM      1  C   UNL     1       5.533   4.997  16.751  0.00  0.00    +0.000 A 
ATOM      2  C   UNL     1       5.241   6.333  16.460  0.00  0.00    +0.000 A 
ATOM      3  C   UNL     1       4.270   7.033  17.182  0.00  0.00    +0.000 A 
ATOM      4  C   UNL     1       3.540   6.386  18.204  0.00  0.00    +0.000 A 
ATOM      5  C   UNL     1       2.501   6.796  19.106  0.00  0.00    +0.000 A 
ATOM      6  C   UNL     1       2.210   5.705  19.903  0.00  0.00    +0.000 A 
ATOM      7  N   UNL     1       3.033   4.671  19.534  0.00  0.00    +0.000 N 
ATOM      8  C   UNL     1       3.848   5.054  18.492  0.00  0.00    +0.000 A 
ATOM      9  C   UNL     1       4.835   4.344  17.780  0.00  0.00    +0.000 A 
ENDROOT
BRANCH   5  10
ATOM     10  C   UNL     1       1.860   8.099  19.257  0.00  0.00    +0.000 A 
ATOM     11  C   UNL     1       1.841   9.014  18.195  0.00  0.00    +0.000 A 
ATOM     12  C   UNL     1       1.318  10.297  18.366  0.00  0.00    +0.000 A 
ATOM     13  C   UNL     1       0.781  10.673  19.595  0.00  0.00    +0.000 A 
ATOM     14  C   UNL     1       0.761   9.764  20.662  0.00  0.00    +0.000 A 
ATOM     15  C   UNL     1       1.299   8.481  20.484  0.00  0.00    +0.000 A 
BRANCH  14  16
ATOM     16  C   UNL     1       0.196  10.173  21.979  0.00  0.00    +0.000 C 
ATOM     17  S   UNL     1      -0.748  11.525  22.254  0.00  0.00    +0.000 S 
BRANCH  16  18
ATOM     18  N   UNL     1       0.473   9.353  23.044  0.00  0.00    +0.000 N 
ATOM     19  H   UNL     1       1.263   9.486  23.660  0.00  0.00    +0.000 HD
ATOM     20  H   UNL     1      -0.035   8.477  23.119  0.00  0.00    +0.000 HD
ENDBRANCH  16  18
ENDBRANCH  14  16
ENDBRANCH   5  10
BRANCH   1  21
ATOM     21  C   UNL     1       6.586   4.266  15.957  0.00  0.00    +0.000 C 
BRANCH  21  22
ATOM     22  N   UNL     1       7.423   5.190  15.198  0.00  0.00    +0.000 NA
ATOM     23  H   UNL     1       7.717   4.741  14.334  0.00  0.00    +0.000 HD
ATOM     24  H   UNL     1       8.270   5.374  15.734  0.00  0.00    +0.000 HD
ENDBRANCH  21  22
ENDBRANCH   1  21
BRANCH   7  25
ATOM     25  C   UNL     1       3.054   3.368  20.190  0.00  0.00    +0.000 C 
BRANCH  25  26
ATOM     26  C   UNL     1       2.205   3.331  21.453  0.00  0.00    +0.000 C 
BRANCH  26  27
ATOM     27  O   UNL     1       0.914   2.773  21.216  0.00  0.00    +0.000 OA
ATOM     28  H   UNL     1       0.956   2.307  20.358  0.00  0.00    +0.000 HD
ENDBRANCH  26  27
ENDBRANCH  25  26
ENDBRANCH   7  25
TORSDOF 8
ENDMDL
MODEL 6
REMARK VINA RESULT:      -7.4      1.021      1.072
REMARK  Name = 
REMARK  8 active torsions:
REMARK  status: ('A' for Active; 'I' for Inactive)
REMARK    1  A    between atoms: N_1  and  C_2
REMARK    2  A    between atoms: C_2  and  C_3
REMARK    3  A    between atoms: C_7  and  C_8
REMARK    4  A    between atoms: C_12  and  C_13
REMARK    5  A    between atoms: C_13  and  N_14
REMARK    6  A    between atoms: N_18  and  C_19
REMARK    7  A    between atoms: C_19  and  C_20
REMARK    8  A    between atoms: C_20  and  O_21
REMARK                            x       y       z     vdW  Elec       q    Type
REMARK                         _______ _______ _______ _____ _____    ______ ____
ROOT
ATOM      1  C   UNL     1       5.635   5.234  15.909  0.00  0.00    +0.000 A 
ATOM      2  C   UNL     1       5.147   6.542  15.985  0.00  0.00    +0.000 A 
ATOM      3  C   UNL     1       4.269   6.926  17.003  0.00  0.00    +0.000 A 
ATOM      4  C   UNL     1       3.831   5.983  17.959  0.00  0.00    +0.000 A 
ATOM      5  C   UNL     1       2.955   6.040  19.094  0.00  0.00    +0.000 A 
ATOM      6  C   UNL     1       2.948   4.778  19.658  0.00  0.00    +0.000 A 
ATOM      7  N   UNL     1       3.789   3.976  18.929  0.00  0.00    +0.000 N 
ATOM      8  C   UNL     1       4.334   4.681  17.878  0.00  0.00    +0.000 A 
ATOM      9  C   UNL     1       5.231   4.288  16.865  0.00  0.00    +0.000 A 
ENDROOT
BRANCH   5  10
ATOM     10  C   UNL     1       2.218   7.173  19.646  0.00  0.00    +0.000 A 
ATOM     11  C   UNL     1       1.679   7.114  20.938  0.00  0.00    +0.000 A 
ATOM     12  C   UNL     1       0.889   8.154  21.432  0.00  0.00    +0.000 A 
ATOM     13  C   UNL     1       0.652   9.282  20.649  0.00  0.00    +0.000 A 
ATOM     14  C   UNL     1       1.207   9.376  19.366  0.00  0.00    +0.000 A 
ATOM     15  C   UNL     1       1.990   8.321  18.874  0.00  0.00    +0.000 A 
BRANCH  14  16
ATOM     16  C   UNL     1       0.943  10.579  18.526  0.00  0.00    +0.000 C 
ATOM     17  S   UNL     1      -0.489  11.441  18.486  0.00  0.00    +0.000 S 
BRANCH  16  18
ATOM     18  N   UNL     1       1.977  11.011  17.734  0.00  0.00    +0.000 N 
ATOM     19  H   UNL     1       2.901  10.600  17.751  0.00  0.00    +0.000 HD
ATOM     20  H   UNL     1       1.864  11.885  17.233  0.00  0.00    +0.000 HD
ENDBRANCH  16  18
ENDBRANCH  14  16
ENDBRANCH   5  10
BRANCH   1  21
ATOM     21  C   UNL     1       6.582   4.846  14.802  0.00  0.00    +0.000 C 
BRANCH  21  22
ATOM     22  N   UNL     1       6.260   3.532  14.257  0.00  0.00    +0.000 NA
ATOM     23  H   UNL     1       5.283   3.323  14.446  0.00  0.00    +0.000 HD
ATOM     24  H   UNL     1       6.809   2.833  14.755  0.00  0.00    +0.000 HD
ENDBRANCH  21  22
ENDBRANCH   1  21
BRANCH   7  25
ATOM     25  C   UNL     1       4.082   2.585  19.256  0.00  0.00    +0.000 C 
BRANCH  25  26
ATOM     26  C   UNL     1       3.358   1.602  18.346  0.00  0.00    +0.000 C 
BRANCH  26  27
ATOM     27  O   UNL     1       1.957   1.558  18.609  0.00  0.00    +0.000 OA
ATOM     28  H   UNL     1       1.827   1.875  19.525  0.00  0.00    +0.000 HD
ENDBRANCH  26  27
ENDBRANCH  25  26
ENDBRANCH   7  25
TORSDOF 8
ENDMDL
MODEL 7
REMARK VINA RESULT:      -7.4      3.239      6.989
REMARK  Name = 
REMARK  8 active torsions:
REMARK  status: ('A' for Active; 'I' for Inactive)
REMARK    1  A    between atoms: N_1  and  C_2
REMARK    2  A    between atoms: C_2  and  C_3
REMARK    3  A    between atoms: C_7  and  C_8
REMARK    4  A    between atoms: C_12  and  C_13
REMARK    5  A    between atoms: C_13  and  N_14
REMARK    6  A    between atoms: N_18  and  C_19
REMARK    7  A    between atoms: C_19  and  C_20
REMARK    8  A    between atoms: C_20  and  O_21
REMARK                            x       y       z     vdW  Elec       q    Type
REMARK                         _______ _______ _______ _____ _____    ______ ____
ROOT
ATOM      1  C   UNL     1       2.623   7.211  18.937  0.00  0.00    +0.000 A 
ATOM      2  C   UNL     1       3.283   7.722  17.815  0.00  0.00    +0.000 A 
ATOM      3  C   UNL     1       4.023   6.888  16.971  0.00  0.00    +0.000 A 
ATOM      4  C   UNL     1       4.142   5.511  17.259  0.00  0.00    +0.000 A 
ATOM      5  C   UNL     1       4.811   4.410  16.626  0.00  0.00    +0.000 A 
ATOM      6  C   UNL     1       4.530   3.285  17.378  0.00  0.00    +0.000 A 
ATOM      7  N   UNL     1       3.714   3.655  18.417  0.00  0.00    +0.000 N 
ATOM      8  C   UNL     1       3.470   5.010  18.377  0.00  0.00    +0.000 A 
ATOM      9  C   UNL     1       2.710   5.839  19.226  0.00  0.00    +0.000 A 
ENDROOT
BRANCH   5  10
ATOM     10  C   UNL     1       5.605   4.382  15.401  0.00  0.00    +0.000 A 
ATOM     11  C   UNL     1       6.769   5.154  15.286  0.00  0.00    +0.000 A 
ATOM     12  C   UNL     1       7.476   5.210  14.084  0.00  0.00    +0.000 A 
ATOM     13  C   UNL     1       7.043   4.468  12.986  0.00  0.00    +0.000 A 
ATOM     14  C   UNL     1       5.899   3.664  13.087  0.00  0.00    +0.000 A 
ATOM     15  C   UNL     1       5.189   3.624  14.296  0.00  0.00    +0.000 A 
BRANCH  14  16
ATOM     16  C   UNL     1       5.432   2.881  11.908  0.00  0.00    +0.000 C 
ATOM     17  S   UNL     1       4.052   3.194  11.018  0.00  0.00    +0.000 S 
BRANCH  16  18
ATOM     18  N   UNL     1       6.220   1.824  11.526  0.00  0.00    +0.000 N 
ATOM     19  H   UNL     1       7.202   1.750  11.754  0.00  0.00    +0.000 HD
ATOM     20  H   UNL     1       5.849   1.172  10.843  0.00  0.00    +0.000 HD
ENDBRANCH  16  18
ENDBRANCH  14  16
ENDBRANCH   5  10
BRANCH   1  21
ATOM     21  C   UNL     1       1.832   8.133  19.830  0.00  0.00    +0.000 C 
BRANCH  21  22
ATOM     22  N   UNL     1       1.532   7.507  21.114  0.00  0.00    +0.000 NA
ATOM     23  H   UNL     1       2.102   6.671  21.219  0.00  0.00    +0.000 HD
ATOM     24  H   UNL     1       0.562   7.199  21.104  0.00  0.00    +0.000 HD
ENDBRANCH  21  22
ENDBRANCH   1  21
BRANCH   7  25
ATOM     25  C   UNL     1       3.163   2.725  19.397  0.00  0.00    +0.000 C 
BRANCH  25  26
ATOM     26  C   UNL     1       4.145   2.395  20.513  0.00  0.00    +0.000 C 
BRANCH  26  27
ATOM     27  O   UNL     1       5.142   1.465  20.093  0.00  0.00    +0.000 OA
ATOM     28  H   UNL     1       5.987   1.953  20.042  0.00  0.00    +0.000 HD
ENDBRANCH  26  27
ENDBRANCH  25  26
ENDBRANCH   7  25
TORSDOF 8
ENDMDL
MODEL 8
REMARK VINA RESULT:      -7.3      1.232      1.232
REMARK  Name = 
REMARK  8 active torsions:
REMARK  status: ('A' for Active; 'I' for Inactive)
REMARK    1  A    between atoms: N_1  and  C_2
REMARK    2  A    between atoms: C_2  and  C_3
REMARK    3  A    between atoms: C_7  and  C_8
REMARK    4  A    between atoms: C_12  and  C_13
REMARK    5  A    between atoms: C_13  and  N_14
REMARK    6  A    between atoms: N_18  and  C_19
REMARK    7  A    between atoms: C_19  and  C_20
REMARK    8  A    between atoms: C_20  and  O_21
REMARK                            x       y       z     vdW  Elec       q    Type
REMARK                         _______ _______ _______ _____ _____    ______ ____
ROOT
ATOM      1  C   UNL     1       5.142   5.289  16.387  0.00  0.00    +0.000 A 
ATOM      2  C   UNL     1       4.848   6.655  16.440  0.00  0.00    +0.000 A 
ATOM      3  C   UNL     1       3.981   7.169  17.409  0.00  0.00    +0.000 A 
ATOM      4  C   UNL     1       3.358   6.305  18.336  0.00  0.00    +0.000 A 
ATOM      5  C   UNL     1       2.437   6.495  19.421  0.00  0.00    +0.000 A 
ATOM      6  C   UNL     1       2.214   5.251  19.980  0.00  0.00    +0.000 A 
ATOM      7  N   UNL     1       2.968   4.331  19.295  0.00  0.00    +0.000 N 
ATOM      8  C   UNL     1       3.667   4.943  18.278  0.00  0.00    +0.000 A 
ATOM      9  C   UNL     1       4.551   4.417  17.316  0.00  0.00    +0.000 A 
ENDROOT
BRANCH   5  10
ATOM     10  C   UNL     1       1.846   7.727  19.935  0.00  0.00    +0.000 A 
ATOM     11  C   UNL     1       1.350   7.789  21.244  0.00  0.00    +0.000 A 
ATOM     12  C   UNL     1       0.694   8.931  21.708  0.00  0.00    +0.000 A 
ATOM     13  C   UNL     1       0.551  10.039  20.874  0.00  0.00    +0.000 A 
ATOM     14  C   UNL     1       1.066  10.010  19.571  0.00  0.00    +0.000 A 
ATOM     15  C   UNL     1       1.714   8.854  19.111  0.00  0.00    +0.000 A 
BRANCH  14  16
ATOM     16  C   UNL     1       0.901  11.192  18.679  0.00  0.00    +0.000 C 
ATOM     17  S   UNL     1       2.023  12.414  18.467  0.00  0.00    +0.000 S 
BRANCH  16  18
ATOM     18  N   UNL     1      -0.270  11.262  17.968  0.00  0.00    +0.000 N 
ATOM     19  H   UNL     1      -1.177  11.385  18.398  0.00  0.00    +0.000 HD
ATOM     20  H   UNL     1      -0.251  11.012  16.985  0.00  0.00    +0.000 HD
ENDBRANCH  16  18
ENDBRANCH  14  16
ENDBRANCH   5  10
BRANCH   1  21
ATOM     21  C   UNL     1       6.082   4.761  15.332  0.00  0.00    +0.000 C 
BRANCH  21  22
ATOM     22  N   UNL     1       7.371   5.444  15.373  0.00  0.00    +0.000 NA
ATOM     23  H   UNL     1       8.116   4.751  15.360  0.00  0.00    +0.000 HD
ATOM     24  H   UNL     1       7.447   5.937  16.262  0.00  0.00    +0.000 HD
ENDBRANCH  21  22
ENDBRANCH   1  21
BRANCH   7  25
ATOM     25  C   UNL     1       3.035   2.913  19.633  0.00  0.00    +0.000 C 
BRANCH  25  26
ATOM     26  C   UNL     1       2.067   2.527  20.744  0.00  0.00    +0.000 C 
BRANCH  26  27
ATOM     27  O   UNL     1       2.698   2.512  22.024  0.00  0.00    +0.000 OA
ATOM     28  H   UNL     1       2.937   1.584  22.215  0.00  0.00    +0.000 HD
ENDBRANCH  26  27
ENDBRANCH  25  26
ENDBRANCH   7  25
TORSDOF 8
ENDMDL
MODEL 9
REMARK VINA RESULT:      -7.3      2.369      3.940
REMARK  Name = 
REMARK  8 active torsions:
REMARK  status: ('A' for Active; 'I' for Inactive)
REMARK    1  A    between atoms: N_1  and  C_2
REMARK    2  A    between atoms: C_2  and  C_3
REMARK    3  A    between atoms: C_7  and  C_8
REMARK    4  A    between atoms: C_12  and  C_13
REMARK    5  A    between atoms: C_13  and  N_14
REMARK    6  A    between atoms: N_18  and  C_19
REMARK    7  A    between atoms: C_19  and  C_20
REMARK    8  A    between atoms: C_20  and  O_21
REMARK                            x       y       z     vdW  Elec       q    Type
REMARK                         _______ _______ _______ _____ _____    ______ ____
ROOT
ATOM      1  C   UNL     1       2.832   2.837  18.487  0.00  0.00    +0.000 A 
ATOM      2  C   UNL     1       1.843   3.486  19.231  0.00  0.00    +0.000 A 
ATOM      3  C   UNL     1       1.727   4.879  19.217  0.00  0.00    +0.000 A 
ATOM      4  C   UNL     1       2.635   5.661  18.469  0.00  0.00    +0.000 A 
ATOM      5  C   UNL     1       2.798   7.070  18.248  0.00  0.00    +0.000 A 
ATOM      6  C   UNL     1       3.867   7.218  17.384  0.00  0.00    +0.000 A 
ATOM      7  N   UNL     1       4.338   5.970  17.065  0.00  0.00    +0.000 N 
ATOM      8  C   UNL     1       3.613   4.999  17.721  0.00  0.00    +0.000 A 
ATOM      9  C   UNL     1       3.729   3.596  17.717  0.00  0.00    +0.000 A 
ENDROOT
BRANCH   5  10
ATOM     10  C   UNL     1       2.008   8.189  18.752  0.00  0.00    +0.000 A 
ATOM     11  C   UNL     1       1.559   9.194  17.884  0.00  0.00    +0.000 A 
ATOM     12  C   UNL     1       0.890  10.317  18.375  0.00  0.00    +0.000 A 
ATOM     13  C   UNL     1       0.635  10.435  19.740  0.00  0.00    +0.000 A 
ATOM     14  C   UNL     1       1.047   9.427  20.622  0.00  0.00    +0.000 A 
ATOM     15  C   UNL     1       1.728   8.308  20.121  0.00  0.00    +0.000 A 
BRANCH  14  16
ATOM     16  C   UNL     1       0.782   9.561  22.083  0.00  0.00    +0.000 C 
ATOM     17  S   UNL     1      -0.579  10.252  22.764  0.00  0.00    +0.000 S 
BRANCH  16  18
ATOM     18  N   UNL     1       1.741   9.058  22.926  0.00  0.00    +0.000 N 
ATOM     19  H   UNL     1       1.905   8.069  23.056  0.00  0.00    +0.000 HD
ATOM     20  H   UNL     1       2.190   9.695  23.575  0.00  0.00    +0.000 HD
ENDBRANCH  16  18
ENDBRANCH  14  16
ENDBRANCH   5  10
BRANCH   1  21
ATOM     21  C   UNL     1       2.934   1.333  18.520  0.00  0.00    +0.000 C 
BRANCH  21  22
ATOM     22  N   UNL     1       4.324   0.890  18.490  0.00  0.00    +0.000 NA
ATOM     23  H   UNL     1       4.923   1.649  18.807  0.00  0.00    +0.000 HD
ATOM     24  H   UNL     1       4.582   0.699  17.524  0.00  0.00    +0.000 HD
ENDBRANCH  21  22
ENDBRANCH   1  21
BRANCH   7  25
ATOM     25  C   UNL     1       5.430   5.721  16.131  0.00  0.00    +0.000 C 
BRANCH  25  26
ATOM     26  C   UNL     1       6.795   5.719  16.808  0.00  0.00    +0.000 C 
BRANCH  26  27
ATOM     27  O   UNL     1       7.574   6.859  16.450  0.00  0.00    +0.000 OA
ATOM     28  H   UNL     1       8.121   6.602  15.681  0.00  0.00    +0.000 HD
ENDBRANCH  26  27
ENDBRANCH  25  26
ENDBRANCH   7  25
TORSDOF 8
ENDMDL
