MODEL 1
REMARK VINA RESULT:      -7.3      0.000      0.000
REMARK  Name = 
REMARK  10 active torsions:
REMARK  status: ('A' for Active; 'I' for Inactive)
REMARK    1  A    between atoms: C_1  and  O_2
REMARK    2  A    between atoms: O_2  and  C_3
REMARK    3  A    between atoms: C_6  and  N_7
REMARK    4  A    between atoms: C_8  and  C_10
REMARK    5  A    between atoms: C_10  and  N_11
REMARK    6  A    between atoms: C_16  and  S_17
REMARK    7  A    between atoms: S_17  and  C_18
REMARK    8  A    between atoms: C_18  and  C_19
REMARK    9  A    between atoms: C_18  and  C_20
REMARK   10  A    between atoms: C_18  and  C_21
REMARK                            x       y       z     vdW  Elec       q    Type
REMARK                         _______ _______ _______ _____ _____    ______ ____
ROOT
ATOM      1  N   UNL     1       1.463  10.052  18.736  0.00  0.00    +0.000 N 
ATOM      2  N   UNL     1       2.268   9.633  17.684  0.00  0.00    +0.000 NA
ATOM      3  C   UNL     1       2.596   8.422  18.016  0.00  0.00    +0.000 A 
ATOM      4  C   UNL     1       3.442   7.488  17.265  0.00  0.00    +0.000 A 
ATOM      5  C   UNL     1       3.685   6.287  17.809  0.00  0.00    +0.000 A 
ATOM      6  C   UNL     1       3.075   5.997  19.132  0.00  0.00    +0.000 A 
ATOM      7  N   UNL     1       2.274   6.781  19.779  0.00  0.00    +0.000 NA
ATOM      8  N   UNL     1       2.063   7.985  19.183  0.00  0.00    +0.000 N 
ATOM      9  C   UNL     1       1.256   9.003  19.654  0.00  0.00    +0.000 A 
ATOM     10  O   UNL     1       0.506   9.035  20.619  0.00  0.00    +0.000 OA
ENDROOT
BRANCH   1  11
ATOM     11  C   UNL     1       0.718  11.288  18.689  0.00  0.00    +0.000 C 
BRANCH  11  13
ATOM     12  N   UNL     1       2.124  13.218  18.112  0.00  0.00    +0.000 N 
ATOM     13  C   UNL     1       1.556  12.480  19.145  0.00  0.00    +0.000 C 
ATOM     14  O   UNL     1       1.769  12.660  20.344  0.00  0.00    +0.000 OA
ATOM     15  H   UNL     1       1.979  12.880  17.159  0.00  0.00    +0.000 HD
BRANCH  12  19
ATOM     16  C   UNL     1       4.641  16.576  18.645  0.00  0.00    +0.000 A 
ATOM     17  C   UNL     1       3.263  16.700  18.810  0.00  0.00    +0.000 A 
ATOM     18  C   UNL     1       2.425  15.599  18.631  0.00  0.00    +0.000 A 
ATOM     19  C   UNL     1       2.942  14.357  18.262  0.00  0.00    +0.000 A 
ATOM     20  C   UNL     1       4.314  14.241  18.024  0.00  0.00    +0.000 A 
ATOM     21  C   UNL     1       5.159  15.343  18.227  0.00  0.00    +0.000 A 
ATOM     22 CL   UNL     1       6.859  15.120  17.989  0.00  0.00    +0.000 Cl
BRANCH  16  24
ATOM     23  C   UNL     1       5.860  17.869  20.201  0.00  0.00    +0.000 C 
ATOM     24  O   UNL     1       5.508  17.621  18.842  0.00  0.00    +0.000 OA
ENDBRANCH  16  24
ENDBRANCH  12  19
ENDBRANCH  11  13
ENDBRANCH   1  11
BRANCH   6  25
ATOM     25  S   UNL     1       3.475   4.417  19.760  0.00  0.00    +0.000 S 
BRANCH  25  26
ATOM     26  C   UNL     1       2.064   3.363  19.207  0.00  0.00    +0.000 C 
ATOM     27  C   UNL     1       2.487   1.906  18.980  0.00  0.00    +0.000 C 
ATOM     28  C   UNL     1       1.024   3.398  20.344  0.00  0.00    +0.000 C 
ATOM     29  C   UNL     1       1.420   3.939  17.941  0.00  0.00    +0.000 C 
ENDBRANCH  25  26
ENDBRANCH   6  25
TORSDOF 6
ENDMDL
MODEL 2
REMARK VINA RESULT:      -7.2      0.738      1.142
REMARK  Name = 
REMARK  10 active torsions:
REMARK  status: ('A' for Active; 'I' for Inactive)
REMARK    1  A    between atoms: C_1  and  O_2
REMARK    2  A    between atoms: O_2  and  C_3
REMARK    3  A    between atoms: C_6  and  N_7
REMARK    4  A    between atoms: C_8  and  C_10
REMARK    5  A    between atoms: C_10  and  N_11
REMARK    6  A    between atoms: C_16  and  S_17
REMARK    7  A    between atoms: S_17  and  C_18
REMARK    8  A    between atoms: C_18  and  C_19
REMARK    9  A    between atoms: C_18  and  C_20
REMARK   10  A    between atoms: C_18  and  C_21
REMARK                            x       y       z     vdW  Elec       q    Type
REMARK                         _______ _______ _______ _____ _____    ______ ____
ROOT
ATOM      1  N   UNL     1       1.392   9.528  19.187  0.00  0.00    +0.000 N 
ATOM      2  N   UNL     1       2.086   9.321  18.001  0.00  0.00    +0.000 NA
ATOM      3  C   UNL     1       2.595   8.136  18.150  0.00  0.00    +0.000 A 
ATOM      4  C   UNL     1       3.432   7.397  17.198  0.00  0.00    +0.000 A 
ATOM      5  C   UNL     1       3.885   6.192  17.567  0.00  0.00    +0.000 A 
ATOM      6  C   UNL     1       3.503   5.698  18.916  0.00  0.00    +0.000 A 
ATOM      7  N   UNL     1       2.714   6.305  19.742  0.00  0.00    +0.000 NA
ATOM      8  N   UNL     1       2.284   7.523  19.318  0.00  0.00    +0.000 N 
ATOM      9  C   UNL     1       1.437   8.377  20.000  0.00  0.00    +0.000 A 
ATOM     10  O   UNL     1       0.831   8.218  21.048  0.00  0.00    +0.000 OA
ENDROOT
BRANCH   1  11
ATOM     11  C   UNL     1       0.509  10.655  19.374  0.00  0.00    +0.000 C 
BRANCH  11  13
ATOM     12  N   UNL     1       1.752  12.611  18.559  0.00  0.00    +0.000 N 
ATOM     13  C   UNL     1       1.277  11.939  19.680  0.00  0.00    +0.000 C 
ATOM     14  O   UNL     1       1.520  12.247  20.847  0.00  0.00    +0.000 OA
ATOM     15  H   UNL     1       1.596  12.174  17.648  0.00  0.00    +0.000 HD
BRANCH  12  19
ATOM     16  C   UNL     1       4.049  16.162  18.655  0.00  0.00    +0.000 A 
ATOM     17  C   UNL     1       2.699  16.191  18.999  0.00  0.00    +0.000 A 
ATOM     18  C   UNL     1       1.933  15.026  18.965  0.00  0.00    +0.000 A 
ATOM     19  C   UNL     1       2.492  13.811  18.566  0.00  0.00    +0.000 A 
ATOM     20  C   UNL     1       3.825  13.787  18.149  0.00  0.00    +0.000 A 
ATOM     21  C   UNL     1       4.601  14.955  18.206  0.00  0.00    +0.000 A 
ATOM     22 CL   UNL     1       6.268  14.848  17.750  0.00  0.00    +0.000 Cl
BRANCH  16  24
ATOM     23  C   UNL     1       5.485  17.509  19.960  0.00  0.00    +0.000 C 
ATOM     24  O   UNL     1       4.850  17.274  18.705  0.00  0.00    +0.000 OA
ENDBRANCH  16  24
ENDBRANCH  12  19
ENDBRANCH  11  13
ENDBRANCH   1  11
BRANCH   6  25
ATOM     25  S   UNL     1       4.167   4.130  19.305  0.00  0.00    +0.000 S 
BRANCH  25  26
ATOM     26  C   UNL     1       2.736   2.987  19.076  0.00  0.00    +0.000 C 
ATOM     27  C   UNL     1       1.681   3.566  18.125  0.00  0.00    +0.000 C 
ATOM     28  C   UNL     1       3.306   1.700  18.448  0.00  0.00    +0.000 C 
ATOM     29  C   UNL     1       2.105   2.630  20.427  0.00  0.00    +0.000 C 
ENDBRANCH  25  26
ENDBRANCH   6  25
TORSDOF 6
ENDMDL
MODEL 3
REMARK VINA RESULT:      -7.2      1.766      2.048
REMARK  Name = 
REMARK  10 active torsions:
REMARK  status: ('A' for Active; 'I' for Inactive)
REMARK    1  A    between atoms: C_1  and  O_2
REMARK    2  A    between atoms: O_2  and  C_3
REMARK    3  A    between atoms: C_6  and  N_7
REMARK    4  A    between atoms: C_8  and  C_10
REMARK    5  A    between atoms: C_10  and  N_11
REMARK    6  A    between atoms: C_16  and  S_17
REMARK    7  A    between atoms: S_17  and  C_18
REMARK    8  A    between atoms: C_18  and  C_19
REMARK    9  A    between atoms: C_18  and  C_20
REMARK   10  A    between atoms: C_18  and  C_21
REMARK                            x       y       z     vdW  Elec       q    Type
REMARK                         _______ _______ _______ _____ _____    ______ ____
ROOT
ATOM      1  N   UNL     1       1.074   9.165  20.000  0.00  0.00    +0.000 N 
ATOM      2  N   UNL     1       1.665   9.216  18.743  0.00  0.00    +0.000 NA
ATOM      3  C   UNL     1       2.306   8.089  18.664  0.00  0.00    +0.000 A 
ATOM      4  C   UNL     1       3.116   7.600  17.543  0.00  0.00    +0.000 A 
ATOM      5  C   UNL     1       3.725   6.414  17.682  0.00  0.00    +0.000 A 
ATOM      6  C   UNL     1       3.530   5.689  18.964  0.00  0.00    +0.000 A 
ATOM      7  N   UNL     1       2.770   6.072  19.937  0.00  0.00    +0.000 NA
ATOM      8  N   UNL     1       2.176   7.281  19.744  0.00  0.00    +0.000 N 
ATOM      9  C   UNL     1       1.318   7.921  20.617  0.00  0.00    +0.000 A 
ATOM     10  O   UNL     1       0.837   7.541  21.674  0.00  0.00    +0.000 OA
ENDROOT
BRANCH   1  11
ATOM     11  C   UNL     1       0.103  10.143  20.432  0.00  0.00    +0.000 C 
BRANCH  11  13
ATOM     12  N   UNL     1       0.502  12.206  19.162  0.00  0.00    +0.000 N 
ATOM     13  C   UNL     1       0.660  11.563  20.385  0.00  0.00    +0.000 C 
ATOM     14  O   UNL     1       1.286  12.011  21.346  0.00  0.00    +0.000 OA
ATOM     15  H   UNL     1       0.083  11.671  18.400  0.00  0.00    +0.000 HD
BRANCH  12  19
ATOM     16  C   UNL     1       1.875  16.118  18.319  0.00  0.00    +0.000 A 
ATOM     17  C   UNL     1       0.557  15.909  18.719  0.00  0.00    +0.000 A 
ATOM     18  C   UNL     1       0.095  14.622  18.994  0.00  0.00    +0.000 A 
ATOM     19  C   UNL     1       0.931  13.514  18.854  0.00  0.00    +0.000 A 
ATOM     20  C   UNL     1       2.232  13.707  18.384  0.00  0.00    +0.000 A 
ATOM     21  C   UNL     1       2.704  15.004  18.131  0.00  0.00    +0.000 A 
ATOM     22 CL   UNL     1       4.349  15.188  17.623  0.00  0.00    +0.000 Cl
BRANCH  16  24
ATOM     23  C   UNL     1       1.530  18.233  17.327  0.00  0.00    +0.000 C 
ATOM     24  O   UNL     1       2.385  17.367  18.070  0.00  0.00    +0.000 OA
ENDBRANCH  16  24
ENDBRANCH  12  19
ENDBRANCH  11  13
ENDBRANCH   1  11
BRANCH   6  25
ATOM     25  S   UNL     1       4.388   4.169  19.049  0.00  0.00    +0.000 S 
BRANCH  25  26
ATOM     26  C   UNL     1       3.075   2.914  18.721  0.00  0.00    +0.000 C 
ATOM     27  C   UNL     1       3.653   1.603  18.174  0.00  0.00    +0.000 C 
ATOM     28  C   UNL     1       2.405   2.622  20.079  0.00  0.00    +0.000 C 
ATOM     29  C   UNL     1       2.014   3.474  17.766  0.00  0.00    +0.000 C 
ENDBRANCH  25  26
ENDBRANCH   6  25
TORSDOF 6
ENDMDL
MODEL 4
REMARK VINA RESULT:      -7.2      4.514      6.467
REMARK  Name = 
REMARK  10 active torsions:
REMARK  status: ('A' for Active; 'I' for Inactive)
REMARK    1  A    between atoms: C_1  and  O_2
REMARK    2  A    between atoms: O_2  and  C_3
REMARK    3  A    between atoms: C_6  and  N_7
REMARK    4  A    between atoms: C_8  and  C_10
REMARK    5  A    between atoms: C_10  and  N_11
REMARK    6  A    between atoms: C_16  and  S_17
REMARK    7  A    between atoms: S_17  and  C_18
REMARK    8  A    between atoms: C_18  and  C_19
REMARK    9  A    between atoms: C_18  and  C_20
REMARK   10  A    between atoms: C_18  and  C_21
REMARK                            x       y       z     vdW  Elec       q    Type
REMARK                         _______ _______ _______ _____ _____    ______ ____
ROOT
ATOM      1  N   UNL     1       1.513   9.927  18.822  0.00  0.00    +0.000 N 
ATOM      2  N   UNL     1       2.271   9.510  17.735  0.00  0.00    +0.000 NA
ATOM      3  C   UNL     1       2.614   8.298  18.050  0.00  0.00    +0.000 A 
ATOM      4  C   UNL     1       3.427   7.367  17.261  0.00  0.00    +0.000 A 
ATOM      5  C   UNL     1       3.693   6.165  17.791  0.00  0.00    +0.000 A 
ATOM      6  C   UNL     1       3.142   5.872  19.139  0.00  0.00    +0.000 A 
ATOM      7  N   UNL     1       2.370   6.654  19.822  0.00  0.00    +0.000 NA
ATOM      8  N   UNL     1       2.132   7.859  19.239  0.00  0.00    +0.000 N 
ATOM      9  C   UNL     1       1.346   8.875  19.747  0.00  0.00    +0.000 A 
ATOM     10  O   UNL     1       0.639   8.905  20.743  0.00  0.00    +0.000 OA
ENDROOT
BRANCH   1  11
ATOM     11  C   UNL     1       0.766  11.162  18.811  0.00  0.00    +0.000 C 
BRANCH  11  13
ATOM     12  N   UNL     1      -1.580  11.882  18.924  0.00  0.00    +0.000 N 
ATOM     13  C   UNL     1      -0.690  10.948  18.404  0.00  0.00    +0.000 C 
ATOM     14  O   UNL     1      -1.008   9.949  17.758  0.00  0.00    +0.000 OA
ATOM     15  H   UNL     1      -1.203  12.586  19.560  0.00  0.00    +0.000 HD
BRANCH  12  19
ATOM     16  C   UNL     1      -5.772  11.873  18.358  0.00  0.00    +0.000 A 
ATOM     17  C   UNL     1      -4.920  11.608  17.288  0.00  0.00    +0.000 A 
ATOM     18  C   UNL     1      -3.536  11.614  17.465  0.00  0.00    +0.000 A 
ATOM     19  C   UNL     1      -2.973  11.906  18.707  0.00  0.00    +0.000 A 
ATOM     20  C   UNL     1      -3.817  12.244  19.767  0.00  0.00    +0.000 A 
ATOM     21  C   UNL     1      -5.210  12.215  19.595  0.00  0.00    +0.000 A 
ATOM     22 CL   UNL     1      -6.207  12.569  20.965  0.00  0.00    +0.000 Cl
BRANCH  16  24
ATOM     23  C   UNL     1      -7.741  13.091  17.894  0.00  0.00    +0.000 C 
ATOM     24  O   UNL     1      -7.139  11.847  18.242  0.00  0.00    +0.000 OA
ENDBRANCH  16  24
ENDBRANCH  12  19
ENDBRANCH  11  13
ENDBRANCH   1  11
BRANCH   6  25
ATOM     25  S   UNL     1       3.569   4.290  19.745  0.00  0.00    +0.000 S 
BRANCH  25  26
ATOM     26  C   UNL     1       2.085   3.264  19.358  0.00  0.00    +0.000 C 
ATOM     27  C   UNL     1       1.331   3.781  18.126  0.00  0.00    +0.000 C 
ATOM     28  C   UNL     1       2.606   1.846  19.051  0.00  0.00    +0.000 C 
ATOM     29  C   UNL     1       1.148   3.186  20.569  0.00  0.00    +0.000 C 
ENDBRANCH  25  26
ENDBRANCH   6  25
TORSDOF 6
ENDMDL
MODEL 5
REMARK VINA RESULT:      -7.2      1.543      1.918
REMARK  Name = 
REMARK  10 active torsions:
REMARK  status: ('A' for Active; 'I' for Inactive)
REMARK    1  A    between atoms: C_1  and  O_2
REMARK    2  A    between atoms: O_2  and  C_3
REMARK    3  A    between atoms: C_6  and  N_7
REMARK    4  A    between atoms: C_8  and  C_10
REMARK    5  A    between atoms: C_10  and  N_11
REMARK    6  A    between atoms: C_16  and  S_17
REMARK    7  A    between atoms: S_17  and  C_18
REMARK    8  A    between atoms: C_18  and  C_19
REMARK    9  A    between atoms: C_18  and  C_20
REMARK   10  A    between atoms: C_18  and  C_21
REMARK                            x       y       z     vdW  Elec       q    Type
REMARK                         _______ _______ _______ _____ _____    ______ ____
ROOT
ATOM      1  N   UNL     1       0.482  10.277  20.094  0.00  0.00    +0.000 N 
ATOM      2  N   UNL     1       0.994  10.110  18.813  0.00  0.00    +0.000 NA
ATOM      3  C   UNL     1       1.564   8.945  18.863  0.00  0.00    +0.000 A 
ATOM      4  C   UNL     1       2.272   8.250  17.782  0.00  0.00    +0.000 A 
ATOM      5  C   UNL     1       2.822   7.060  18.059  0.00  0.00    +0.000 A 
ATOM      6  C   UNL     1       2.670   6.538  19.442  0.00  0.00    +0.000 A 
ATOM      7  N   UNL     1       1.996   7.104  20.389  0.00  0.00    +0.000 NA
ATOM      8  N   UNL     1       1.459   8.309  20.055  0.00  0.00    +0.000 N 
ATOM      9  C   UNL     1       0.696   9.121  20.872  0.00  0.00    +0.000 A 
ATOM     10  O   UNL     1       0.263   8.927  21.998  0.00  0.00    +0.000 OA
ENDROOT
BRANCH   1  11
ATOM     11  C   UNL     1      -0.403  11.366  20.432  0.00  0.00    +0.000 C 
BRANCH  11  13
ATOM     12  N   UNL     1       1.413  12.841  19.683  0.00  0.00    +0.000 N 
ATOM     13  C   UNL     1       0.342  12.693  20.558  0.00  0.00    +0.000 C 
ATOM     14  O   UNL     1       0.044  13.483  21.454  0.00  0.00    +0.000 OA
ATOM     15  H   UNL     1       1.638  12.049  19.079  0.00  0.00    +0.000 HD
BRANCH  12  19
ATOM     16  C   UNL     1       3.989  16.177  19.321  0.00  0.00    +0.000 A 
ATOM     17  C   UNL     1       4.178  15.253  20.347  0.00  0.00    +0.000 A 
ATOM     18  C   UNL     1       3.330  14.153  20.477  0.00  0.00    +0.000 A 
ATOM     19  C   UNL     1       2.263  13.963  19.600  0.00  0.00    +0.000 A 
ATOM     20  C   UNL     1       2.022  14.922  18.613  0.00  0.00    +0.000 A 
ATOM     21  C   UNL     1       2.889  16.016  18.468  0.00  0.00    +0.000 A 
ATOM     22 CL   UNL     1       2.585  17.131  17.180  0.00  0.00    +0.000 Cl
BRANCH  16  24
ATOM     23  C   UNL     1       5.312  17.854  20.327  0.00  0.00    +0.000 C 
ATOM     24  O   UNL     1       4.815  17.255  19.133  0.00  0.00    +0.000 OA
ENDBRANCH  16  24
ENDBRANCH  12  19
ENDBRANCH  11  13
ENDBRANCH   1  11
BRANCH   6  25
ATOM     25  S   UNL     1       3.446   4.994  19.700  0.00  0.00    +0.000 S 
BRANCH  25  26
ATOM     26  C   UNL     1       2.108   3.774  19.342  0.00  0.00    +0.000 C 
ATOM     27  C   UNL     1       1.459   4.015  17.973  0.00  0.00    +0.000 C 
ATOM     28  C   UNL     1       2.778   2.386  19.326  0.00  0.00    +0.000 C 
ATOM     29  C   UNL     1       1.048   3.790  20.450  0.00  0.00    +0.000 C 
ENDBRANCH  25  26
ENDBRANCH   6  25
TORSDOF 6
ENDMDL
MODEL 6
REMARK VINA RESULT:      -7.2      2.530      3.009
REMARK  Name = 
REMARK  10 active torsions:
REMARK  status: ('A' for Active; 'I' for Inactive)
REMARK    1  A    between atoms: C_1  and  O_2
REMARK    2  A    between atoms: O_2  and  C_3
REMARK    3  A    between atoms: C_6  and  N_7
REMARK    4  A    between atoms: C_8  and  C_10
REMARK    5  A    between atoms: C_10  and  N_11
REMARK    6  A    between atoms: C_16  and  S_17
REMARK    7  A    between atoms: S_17  and  C_18
REMARK    8  A    between atoms: C_18  and  C_19
REMARK    9  A    between atoms: C_18  and  C_20
REMARK   10  A    between atoms: C_18  and  C_21
REMARK                            x       y       z     vdW  Elec       q    Type
REMARK                         _______ _______ _______ _____ _____    ______ ____
ROOT
ATOM      1  N   UNL     1       0.423  10.059  20.411  0.00  0.00    +0.000 N 
ATOM      2  N   UNL     1       0.946  10.126  19.126  0.00  0.00    +0.000 NA
ATOM      3  C   UNL     1       1.593   9.007  19.002  0.00  0.00    +0.000 A 
ATOM      4  C   UNL     1       2.347   8.536  17.835  0.00  0.00    +0.000 A 
ATOM      5  C   UNL     1       2.975   7.356  17.931  0.00  0.00    +0.000 A 
ATOM      6  C   UNL     1       2.857   6.618  19.215  0.00  0.00    +0.000 A 
ATOM      7  N   UNL     1       2.145   6.985  20.230  0.00  0.00    +0.000 NA
ATOM      8  N   UNL     1       1.530   8.188  20.081  0.00  0.00    +0.000 N 
ATOM      9  C   UNL     1       0.713   8.812  21.004  0.00  0.00    +0.000 A 
ATOM     10  O   UNL     1       0.293   8.418  22.082  0.00  0.00    +0.000 OA
ENDROOT
BRANCH   1  11
ATOM     11  C   UNL     1      -0.534  11.022  20.904  0.00  0.00    +0.000 C 
BRANCH  11  13
ATOM     12  N   UNL     1      -0.048  12.997  19.528  0.00  0.00    +0.000 N 
ATOM     13  C   UNL     1      -0.009  12.452  20.807  0.00  0.00    +0.000 C 
ATOM     14  O   UNL     1       0.499  12.989  21.791  0.00  0.00    +0.000 OA
ATOM     15  H   UNL     1      -0.369  12.394  18.769  0.00  0.00    +0.000 HD
BRANCH  12  19
ATOM     16  C   UNL     1       1.153  16.883  18.364  0.00  0.00    +0.000 A 
ATOM     17  C   UNL     1       2.080  15.843  18.397  0.00  0.00    +0.000 A 
ATOM     18  C   UNL     1       1.694  14.560  18.784  0.00  0.00    +0.000 A 
ATOM     19  C   UNL     1       0.380  14.292  19.168  0.00  0.00    +0.000 A 
ATOM     20  C   UNL     1      -0.539  15.344  19.209  0.00  0.00    +0.000 A 
ATOM     21  C   UNL     1      -0.155  16.630  18.797  0.00  0.00    +0.000 A 
ATOM     22 CL   UNL     1      -1.356  17.876  18.795  0.00  0.00    +0.000 Cl
BRANCH  16  24
ATOM     23  C   UNL     1       1.299  18.410  16.568  0.00  0.00    +0.000 C 
ATOM     24  O   UNL     1       1.477  18.153  17.959  0.00  0.00    +0.000 OA
ENDBRANCH  16  24
ENDBRANCH  12  19
ENDBRANCH  11  13
ENDBRANCH   1  11
BRANCH   6  25
ATOM     25  S   UNL     1       3.734   5.107  19.240  0.00  0.00    +0.000 S 
BRANCH  25  26
ATOM     26  C   UNL     1       2.424   3.843  18.936  0.00  0.00    +0.000 C 
ATOM     27  C   UNL     1       3.016   2.469  18.595  0.00  0.00    +0.000 C 
ATOM     28  C   UNL     1       1.627   3.718  20.249  0.00  0.00    +0.000 C 
ATOM     29  C   UNL     1       1.469   4.306  17.830  0.00  0.00    +0.000 C 
ENDBRANCH  25  26
ENDBRANCH   6  25
TORSDOF 6
ENDMDL
MODEL 7
REMARK VINA RESULT:      -7.1      1.195      1.527
REMARK  Name = 
REMARK  10 active torsions:
REMARK  status: ('A' for Active; 'I' for Inactive)
REMARK    1  A    between atoms: C_1  and  O_2
REMARK    2  A    between atoms: O_2  and  C_3
REMARK    3  A    between atoms: C_6  and  N_7
REMARK    4  A    between atoms: C_8  and  C_10
REMARK    5  A    between atoms: C_10  and  N_11
REMARK    6  A    between atoms: C_16  and  S_17
REMARK    7  A    between atoms: S_17  and  C_18
REMARK    8  A    between atoms: C_18  and  C_19
REMARK    9  A    between atoms: C_18  and  C_20
REMARK   10  A    between atoms: C_18  and  C_21
REMARK                            x       y       z     vdW  Elec       q    Type
REMARK                         _______ _______ _______ _____ _____    ______ ____
ROOT
ATOM      1  N   UNL     1       0.657  10.080  20.038  0.00  0.00    +0.000 N 
ATOM      2  N   UNL     1       1.304   9.969  18.814  0.00  0.00    +0.000 NA
ATOM      3  C   UNL     1       1.833   8.784  18.856  0.00  0.00    +0.000 A 
ATOM      4  C   UNL     1       2.639   8.129  17.820  0.00  0.00    +0.000 A 
ATOM      5  C   UNL     1       3.122   6.907  18.082  0.00  0.00    +0.000 A 
ATOM      6  C   UNL     1       2.801   6.312  19.405  0.00  0.00    +0.000 A 
ATOM      7  N   UNL     1       2.040   6.846  20.305  0.00  0.00    +0.000 NA
ATOM      8  N   UNL     1       1.578   8.084  19.988  0.00  0.00    +0.000 N 
ATOM      9  C   UNL     1       0.750   8.874  20.763  0.00  0.00    +0.000 A 
ATOM     10  O   UNL     1       0.188   8.630  21.821  0.00  0.00    +0.000 OA
ENDROOT
BRANCH   1  11
ATOM     11  C   UNL     1      -0.231  11.177  20.342  0.00  0.00    +0.000 C 
BRANCH  11  13
ATOM     12  N   UNL     1       1.129  13.031  19.480  0.00  0.00    +0.000 N 
ATOM     13  C   UNL     1       0.530  12.474  20.605  0.00  0.00    +0.000 C 
ATOM     14  O   UNL     1       0.663  12.887  21.757  0.00  0.00    +0.000 OA
ATOM     15  H   UNL     1       1.055  12.513  18.603  0.00  0.00    +0.000 HD
BRANCH  12  19
ATOM     16  C   UNL     1       3.475  16.552  19.488  0.00  0.00    +0.000 A 
ATOM     17  C   UNL     1       2.087  16.635  19.570  0.00  0.00    +0.000 A 
ATOM     18  C   UNL     1       1.305  15.479  19.563  0.00  0.00    +0.000 A 
ATOM     19  C   UNL     1       1.891  14.218  19.451  0.00  0.00    +0.000 A 
ATOM     20  C   UNL     1       3.276  14.129  19.295  0.00  0.00    +0.000 A 
ATOM     21  C   UNL     1       4.064  15.290  19.326  0.00  0.00    +0.000 A 
ATOM     22 CL   UNL     1       5.781  15.113  19.205  0.00  0.00    +0.000 Cl
BRANCH  16  24
ATOM     23  C   UNL     1       4.528  18.189  20.825  0.00  0.00    +0.000 C 
ATOM     24  O   UNL     1       4.287  17.657  19.525  0.00  0.00    +0.000 OA
ENDBRANCH  16  24
ENDBRANCH  12  19
ENDBRANCH  11  13
ENDBRANCH   1  11
BRANCH   6  25
ATOM     25  S   UNL     1       3.500   4.730  19.653  0.00  0.00    +0.000 S 
BRANCH  25  26
ATOM     26  C   UNL     1       2.122   3.578  19.227  0.00  0.00    +0.000 C 
ATOM     27  C   UNL     1       1.456   3.944  17.894  0.00  0.00    +0.000 C 
ATOM     28  C   UNL     1       2.753   2.179  19.089  0.00  0.00    +0.000 C 
ATOM     29  C   UNL     1       1.083   3.534  20.353  0.00  0.00    +0.000 C 
ENDBRANCH  25  26
ENDBRANCH   6  25
TORSDOF 6
ENDMDL
MODEL 8
REMARK VINA RESULT:      -7.0      4.964      6.372
REMARK  Name = 
REMARK  10 active torsions:
REMARK  status: ('A' for Active; 'I' for Inactive)
REMARK    1  A    between atoms: C_1  and  O_2
REMARK    2  A    between atoms: O_2  and  C_3
REMARK    3  A    between atoms: C_6  and  N_7
REMARK    4  A    between atoms: C_8  and  C_10
REMARK    5  A    between atoms: C_10  and  N_11
REMARK    6  A    between atoms: C_16  and  S_17
REMARK    7  A    between atoms: S_17  and  C_18
REMARK    8  A    between atoms: C_18  and  C_19
REMARK    9  A    between atoms: C_18  and  C_20
REMARK   10  A    between atoms: C_18  and  C_21
REMARK                            x       y       z     vdW  Elec       q    Type
REMARK                         _______ _______ _______ _____ _____    ______ ____
ROOT
ATOM      1  N   UNL     1       1.552   8.487  20.082  0.00  0.00    +0.000 N 
ATOM      2  N   UNL     1       1.638   7.351  20.877  0.00  0.00    +0.000 NA
ATOM      3  C   UNL     1       2.168   6.467  20.086  0.00  0.00    +0.000 A 
ATOM      4  C   UNL     1       2.495   5.071  20.399  0.00  0.00    +0.000 A 
ATOM      5  C   UNL     1       3.009   4.315  19.420  0.00  0.00    +0.000 A 
ATOM      6  C   UNL     1       3.206   4.952  18.092  0.00  0.00    +0.000 A 
ATOM      7  N   UNL     1       2.985   6.196  17.815  0.00  0.00    +0.000 NA
ATOM      8  N   UNL     1       2.465   6.918  18.843  0.00  0.00    +0.000 N 
ATOM      9  C   UNL     1       2.139   8.260  18.820  0.00  0.00    +0.000 A 
ATOM     10  O   UNL     1       2.312   9.101  17.950  0.00  0.00    +0.000 OA
ENDROOT
BRANCH   1  11
ATOM     11  C   UNL     1       1.190   9.777  20.621  0.00  0.00    +0.000 C 
BRANCH  11  13
ATOM     12  N   UNL     1      -0.492  10.375  18.935  0.00  0.00    +0.000 N 
ATOM     13  C   UNL     1      -0.251  10.154  20.286  0.00  0.00    +0.000 C 
ATOM     14  O   UNL     1      -1.064  10.342  21.192  0.00  0.00    +0.000 OA
ATOM     15  H   UNL     1       0.305  10.318  18.300  0.00  0.00    +0.000 HD
BRANCH  12  19
ATOM     16  C   UNL     1      -4.147  11.515  17.134  0.00  0.00    +0.000 A 
ATOM     17  C   UNL     1      -3.845  11.929  18.429  0.00  0.00    +0.000 A 
ATOM     18  C   UNL     1      -2.644  11.554  19.032  0.00  0.00    +0.000 A 
ATOM     19  C   UNL     1      -1.730  10.739  18.365  0.00  0.00    +0.000 A 
ATOM     20  C   UNL     1      -2.057  10.259  17.094  0.00  0.00    +0.000 A 
ATOM     21  C   UNL     1      -3.254  10.656  16.478  0.00  0.00    +0.000 A 
ATOM     22 CL   UNL     1      -3.570  10.092  14.873  0.00  0.00    +0.000 Cl
BRANCH  16  24
ATOM     23  C   UNL     1      -6.215  12.647  17.268  0.00  0.00    +0.000 C 
ATOM     24  O   UNL     1      -5.298  11.885  16.486  0.00  0.00    +0.000 OA
ENDBRANCH  16  24
ENDBRANCH  12  19
ENDBRANCH  11  13
ENDBRANCH   1  11
BRANCH   6  25
ATOM     25  S   UNL     1       3.856   3.871  16.883  0.00  0.00    +0.000 S 
BRANCH  25  26
ATOM     26  C   UNL     1       5.493   4.618  16.471  0.00  0.00    +0.000 C 
ATOM     27  C   UNL     1       6.405   4.724  17.700  0.00  0.00    +0.000 C 
ATOM     28  C   UNL     1       6.157   3.674  15.450  0.00  0.00    +0.000 C 
ATOM     29  C   UNL     1       5.312   5.993  15.816  0.00  0.00    +0.000 C 
ENDBRANCH  25  26
ENDBRANCH   6  25
TORSDOF 6
ENDMDL
MODEL 9
REMARK VINA RESULT:      -7.0      2.100      2.612
REMARK  Name = 
REMARK  10 active torsions:
REMARK  status: ('A' for Active; 'I' for Inactive)
REMARK    1  A    between atoms: C_1  and  O_2
REMARK    2  A    between atoms: O_2  and  C_3
REMARK    3  A    between atoms: C_6  and  N_7
REMARK    4  A    between atoms: C_8  and  C_10
REMARK    5  A    between atoms: C_10  and  N_11
REMARK    6  A    between atoms: C_16  and  S_17
REMARK    7  A    between atoms: S_17  and  C_18
REMARK    8  A    between atoms: C_18  and  C_19
REMARK    9  A    between atoms: C_18  and  C_20
REMARK   10  A    between atoms: C_18  and  C_21
REMARK                            x       y       z     vdW  Elec       q    Type
REMARK                         _______ _______ _______ _____ _____    ______ ____
ROOT
ATOM      1  N   UNL     1       0.851   9.694  20.077  0.00  0.00    +0.000 N 
ATOM      2  N   UNL     1       1.451   9.669  18.824  0.00  0.00    +0.000 NA
ATOM      3  C   UNL     1       2.028   8.506  18.787  0.00  0.00    +0.000 A 
ATOM      4  C   UNL     1       2.815   7.934  17.689  0.00  0.00    +0.000 A 
ATOM      5  C   UNL     1       3.356   6.722  17.872  0.00  0.00    +0.000 A 
ATOM      6  C   UNL     1       3.115   6.053  19.177  0.00  0.00    +0.000 A 
ATOM      7  N   UNL     1       2.371   6.512  20.131  0.00  0.00    +0.000 NA
ATOM      8  N   UNL     1       1.848   7.744  19.893  0.00  0.00    +0.000 N 
ATOM      9  C   UNL     1       1.022   8.460  20.738  0.00  0.00    +0.000 A 
ATOM     10  O   UNL     1       0.515   8.144  21.804  0.00  0.00    +0.000 OA
ENDROOT
BRANCH   1  11
ATOM     11  C   UNL     1      -0.066  10.738  20.469  0.00  0.00    +0.000 C 
BRANCH  11  13
ATOM     12  N   UNL     1       1.216  12.784  20.015  0.00  0.00    +0.000 N 
ATOM     13  C   UNL     1       0.124  12.008  19.642  0.00  0.00    +0.000 C 
ATOM     14  O   UNL     1      -0.716  12.325  18.800  0.00  0.00    +0.000 OA
ATOM     15  H   UNL     1       1.758  12.474  20.824  0.00  0.00    +0.000 HD
BRANCH  12  19
ATOM     16  C   UNL     1       2.277  16.454  18.199  0.00  0.00    +0.000 A 
ATOM     17  C   UNL     1       2.880  15.268  17.786  0.00  0.00    +0.000 A 
ATOM     18  C   UNL     1       2.540  14.054  18.383  0.00  0.00    +0.000 A 
ATOM     19  C   UNL     1       1.608  14.000  19.419  0.00  0.00    +0.000 A 
ATOM     20  C   UNL     1       1.052  15.193  19.889  0.00  0.00    +0.000 A 
ATOM     21  C   UNL     1       1.377  16.411  19.272  0.00  0.00    +0.000 A 
ATOM     22 CL   UNL     1       0.600  17.848  19.847  0.00  0.00    +0.000 Cl
BRANCH  16  24
ATOM     23  C   UNL     1       1.671  18.053  16.570  0.00  0.00    +0.000 C 
ATOM     24  O   UNL     1       2.554  17.667  17.621  0.00  0.00    +0.000 OA
ENDBRANCH  16  24
ENDBRANCH  12  19
ENDBRANCH  11  13
ENDBRANCH   1  11
BRANCH   6  25
ATOM     25  S   UNL     1       3.885   4.491  19.319  0.00  0.00    +0.000 S 
BRANCH  25  26
ATOM     26  C   UNL     1       2.502   3.301  19.044  0.00  0.00    +0.000 C 
ATOM     27  C   UNL     1       1.498   3.814  18.003  0.00  0.00    +0.000 C 
ATOM     28  C   UNL     1       3.144   2.007  18.506  0.00  0.00    +0.000 C 
ATOM     29  C   UNL     1       1.791   2.980  20.363  0.00  0.00    +0.000 C 
ENDBRANCH  25  26
ENDBRANCH   6  25
TORSDOF 6
ENDMDL
