MODEL 1
REMARK VINA RESULT:      -7.5      0.000      0.000
REMARK  Name = 
REMARK  8 active torsions:
REMARK  status: ('A' for Active; 'I' for Inactive)
REMARK    1  A    between atoms: C_1  and  O_2
REMARK    2  A    between atoms: O_2  and  C_3
REMARK    3  A    between atoms: C_6  and  O_7
REMARK    4  A    between atoms: O_7  and  C_8
REMARK    5  A    between atoms: C_9  and  N_10
REMARK    6  A    between atoms: C_11  and  S_12
REMARK    7  A    between atoms: C_15  and  C_16
REMARK    8  A    between atoms: C_18  and  C_19
REMARK                            x       y       z     vdW  Elec       q    Type
REMARK                         _______ _______ _______ _____ _____    ______ ____
ROOT
ATOM      1  N   UNL     1       4.714   5.285  16.804  0.00  0.00    +0.000 N 
ATOM      2  C   UNL     1       5.386   5.277  15.586  0.00  0.00    +0.000 A 
ATOM      3  N   UNL     1       5.548   6.502  15.141  0.00  0.00    +0.000 NA
ATOM      4  N   UNL     1       4.953   7.353  16.026  0.00  0.00    +0.000 NA
ATOM      5  C   UNL     1       4.365   6.619  16.952  0.00  0.00    +0.000 A 
ENDROOT
BRANCH   1  10
ATOM      6  C   UNL     1       2.661   2.620  18.388  0.00  0.00    +0.000 A 
ATOM      7  C   UNL     1       3.488   2.212  19.428  0.00  0.00    +0.000 A 
ATOM      8  C   UNL     1       4.757   2.767  19.587  0.00  0.00    +0.000 A 
ATOM      9  C   UNL     1       5.229   3.749  18.706  0.00  0.00    +0.000 A 
ATOM     10  C   UNL     1       4.373   4.197  17.669  0.00  0.00    +0.000 A 
ATOM     11  C   UNL     1       3.101   3.618  17.520  0.00  0.00    +0.000 A 
BRANCH   6  13
ATOM     12  C   UNL     1       0.381   2.629  19.044  0.00  0.00    +0.000 C 
ATOM     13  O   UNL     1       1.446   1.999  18.342  0.00  0.00    +0.000 OA
ENDBRANCH   6  13
BRANCH   9  14
ATOM     14  O   UNL     1       6.496   4.273  18.786  0.00  0.00    +0.000 OA
ATOM     15  C   UNL     1       6.670   5.493  19.509  0.00  0.00    +0.000 C 
ENDBRANCH   9  14
ENDBRANCH   1  10
BRANCH   5  16
ATOM     16  C   UNL     1       3.363   7.200  17.895  0.00  0.00    +0.000 A 
ATOM     17  C   UNL     1       2.515   8.285  17.609  0.00  0.00    +0.000 A 
ATOM     18  C   UNL     1       1.841   8.517  18.781  0.00  0.00    +0.000 A 
ATOM     19  N   UNL     1       2.248   7.549  19.647  0.00  0.00    +0.000 N 
ATOM     20  N   UNL     1       3.146   6.706  19.128  0.00  0.00    +0.000 NA
ATOM     21  H   UNL     1       1.956   7.420  20.614  0.00  0.00    +0.000 HD
BRANCH  18  22
ATOM     22  C   UNL     1       0.901   9.513  19.163  0.00  0.00    +0.000 A 
ATOM     23  C   UNL     1      -0.028  10.175  18.382  0.00  0.00    +0.000 A 
ATOM     24  C   UNL     1      -0.721  11.067  19.232  0.00  0.00    +0.000 A 
ATOM     25  C   UNL     1      -0.170  10.911  20.480  0.00  0.00    +0.000 A 
ATOM     26  O   UNL     1       0.811   9.976  20.450  0.00  0.00    +0.000 OA
ENDBRANCH  18  22
ENDBRANCH   5  16
BRANCH   2  27
ATOM     27  S   UNL     1       6.077   3.913  14.762  0.00  0.00    +0.000 S 
ATOM     28  H   UNL     1       5.225   3.811  13.735  0.00  0.00    +0.000 HD
ENDBRANCH   2  27
TORSDOF 6
ENDMDL
MODEL 2
REMARK VINA RESULT:      -7.1      3.722      8.324
REMARK  Name = 
REMARK  8 active torsions:
REMARK  status: ('A' for Active; 'I' for Inactive)
REMARK    1  A    between atoms: C_1  and  O_2
REMARK    2  A    between atoms: O_2  and  C_3
REMARK    3  A    between atoms: C_6  and  O_7
REMARK    4  A    between atoms: O_7  and  C_8
REMARK    5  A    between atoms: C_9  and  N_10
REMARK    6  A    between atoms: C_11  and  S_12
REMARK    7  A    between atoms: C_15  and  C_16
REMARK    8  A    between atoms: C_18  and  C_19
REMARK                            x       y       z     vdW  Elec       q    Type
REMARK                         _______ _______ _______ _____ _____    ______ ____
ROOT
ATOM      1  N   UNL     1      -0.235  10.481  21.270  0.00  0.00    +0.000 N 
ATOM      2  C   UNL     1      -0.656  10.695  22.579  0.00  0.00    +0.000 A 
ATOM      3  N   UNL     1       0.132  10.069  23.424  0.00  0.00    +0.000 NA
ATOM      4  N   UNL     1       1.068   9.389  22.702  0.00  0.00    +0.000 NA
ATOM      5  C   UNL     1       0.779   9.548  21.424  0.00  0.00    +0.000 A 
ENDROOT
BRANCH   1  10
ATOM      6  C   UNL     1      -2.137  10.612  18.078  0.00  0.00    +0.000 A 
ATOM      7  C   UNL     1      -1.683  11.806  17.531  0.00  0.00    +0.000 A 
ATOM      8  C   UNL     1      -0.787  12.614  18.232  0.00  0.00    +0.000 A 
ATOM      9  C   UNL     1      -0.324  12.243  19.501  0.00  0.00    +0.000 A 
ATOM     10  C   UNL     1      -0.754  11.006  20.044  0.00  0.00    +0.000 A 
ATOM     11  C   UNL     1      -1.664  10.211  19.325  0.00  0.00    +0.000 A 
BRANCH   6  13
ATOM     12  C   UNL     1      -2.774   9.952  15.890  0.00  0.00    +0.000 C 
ATOM     13  O   UNL     1      -3.010   9.916  17.292  0.00  0.00    +0.000 OA
ENDBRANCH   6  13
BRANCH   9  14
ATOM     14  O   UNL     1       0.504  13.040  20.253  0.00  0.00    +0.000 OA
ATOM     15  C   UNL     1       1.900  13.030  19.946  0.00  0.00    +0.000 C 
ENDBRANCH   9  14
ENDBRANCH   1  10
BRANCH   5  16
ATOM     16  C   UNL     1       1.399   8.693  20.367  0.00  0.00    +0.000 A 
ATOM     17  C   UNL     1       1.766   7.344  20.526  0.00  0.00    +0.000 A 
ATOM     18  C   UNL     1       2.364   7.006  19.339  0.00  0.00    +0.000 A 
ATOM     19  N   UNL     1       2.258   8.100  18.538  0.00  0.00    +0.000 N 
ATOM     20  N   UNL     1       1.641   9.134  19.118  0.00  0.00    +0.000 NA
ATOM     21  H   UNL     1       2.600   8.205  17.585  0.00  0.00    +0.000 HD
BRANCH  18  22
ATOM     22  C   UNL     1       3.006   5.815  18.897  0.00  0.00    +0.000 A 
ATOM     23  C   UNL     1       2.642   4.963  17.871  0.00  0.00    +0.000 A 
ATOM     24  C   UNL     1       3.605   3.928  17.835  0.00  0.00    +0.000 A 
ATOM     25  C   UNL     1       4.493   4.197  18.846  0.00  0.00    +0.000 A 
ATOM     26  O   UNL     1       4.140   5.333  19.495  0.00  0.00    +0.000 OA
ENDBRANCH  18  22
ENDBRANCH   5  16
BRANCH   2  27
ATOM     27  S   UNL     1      -1.933  11.736  23.129  0.00  0.00    +0.000 S 
ATOM     28  H   UNL     1      -2.491  12.053  21.955  0.00  0.00    +0.000 HD
ENDBRANCH   2  27
TORSDOF 6
ENDMDL
MODEL 3
REMARK VINA RESULT:      -7.1      2.409      3.741
REMARK  Name = 
REMARK  8 active torsions:
REMARK  status: ('A' for Active; 'I' for Inactive)
REMARK    1  A    between atoms: C_1  and  O_2
REMARK    2  A    between atoms: O_2  and  C_3
REMARK    3  A    between atoms: C_6  and  O_7
REMARK    4  A    between atoms: O_7  and  C_8
REMARK    5  A    between atoms: C_9  and  N_10
REMARK    6  A    between atoms: C_11  and  S_12
REMARK    7  A    between atoms: C_15  and  C_16
REMARK    8  A    between atoms: C_18  and  C_19
REMARK                            x       y       z     vdW  Elec       q    Type
REMARK                         _______ _______ _______ _____ _____    ______ ____
ROOT
ATOM      1  N   UNL     1       3.879   4.301  19.017  0.00  0.00    +0.000 N 
ATOM      2  C   UNL     1       3.728   3.292  19.963  0.00  0.00    +0.000 A 
ATOM      3  N   UNL     1       2.631   3.476  20.662  0.00  0.00    +0.000 NA
ATOM      4  N   UNL     1       2.047   4.631  20.231  0.00  0.00    +0.000 NA
ATOM      5  C   UNL     1       2.848   5.173  19.332  0.00  0.00    +0.000 A 
ENDROOT
BRANCH   1  10
ATOM      6  C   UNL     1       5.495   4.220  15.669  0.00  0.00    +0.000 A 
ATOM      7  C   UNL     1       6.807   4.551  15.984  0.00  0.00    +0.000 A 
ATOM      8  C   UNL     1       7.166   4.862  17.295  0.00  0.00    +0.000 A 
ATOM      9  C   UNL     1       6.216   4.848  18.325  0.00  0.00    +0.000 A 
ATOM     10  C   UNL     1       4.886   4.472  18.014  0.00  0.00    +0.000 A 
ATOM     11  C   UNL     1       4.542   4.171  16.684  0.00  0.00    +0.000 A 
BRANCH   6  13
ATOM     12  C   UNL     1       6.405   3.988  13.490  0.00  0.00    +0.000 C 
ATOM     13  O   UNL     1       5.274   3.938  14.351  0.00  0.00    +0.000 OA
ENDBRANCH   6  13
BRANCH   9  14
ATOM     14  O   UNL     1       6.513   5.213  19.615  0.00  0.00    +0.000 OA
ATOM     15  C   UNL     1       7.855   5.609  19.905  0.00  0.00    +0.000 C 
ENDBRANCH   9  14
ENDBRANCH   1  10
BRANCH   5  16
ATOM     16  C   UNL     1       2.682   6.588  18.884  0.00  0.00    +0.000 A 
ATOM     17  C   UNL     1       1.965   7.579  19.578  0.00  0.00    +0.000 A 
ATOM     18  C   UNL     1       2.012   8.678  18.758  0.00  0.00    +0.000 A 
ATOM     19  N   UNL     1       2.788   8.325  17.698  0.00  0.00    +0.000 N 
ATOM     20  N   UNL     1       3.245   7.070  17.760  0.00  0.00    +0.000 NA
ATOM     21  H   UNL     1       3.032   8.896  16.890  0.00  0.00    +0.000 HD
BRANCH  18  22
ATOM     22  C   UNL     1       1.424   9.970  18.855  0.00  0.00    +0.000 A 
ATOM     23  C   UNL     1       0.223  10.336  19.434  0.00  0.00    +0.000 A 
ATOM     24  C   UNL     1       0.095  11.734  19.269  0.00  0.00    +0.000 A 
ATOM     25  C   UNL     1       1.216  12.143  18.589  0.00  0.00    +0.000 A 
ATOM     26  O   UNL     1       2.024  11.085  18.332  0.00  0.00    +0.000 OA
ENDBRANCH  18  22
ENDBRANCH   5  16
BRANCH   2  27
ATOM     27  S   UNL     1       4.712   1.876  20.174  0.00  0.00    +0.000 S 
ATOM     28  H   UNL     1       4.599   1.336  18.955  0.00  0.00    +0.000 HD
ENDBRANCH   2  27
TORSDOF 6
ENDMDL
MODEL 4
REMARK VINA RESULT:      -7.1      3.729      5.600
REMARK  Name = 
REMARK  8 active torsions:
REMARK  status: ('A' for Active; 'I' for Inactive)
REMARK    1  A    between atoms: C_1  and  O_2
REMARK    2  A    between atoms: O_2  and  C_3
REMARK    3  A    between atoms: C_6  and  O_7
REMARK    4  A    between atoms: O_7  and  C_8
REMARK    5  A    between atoms: C_9  and  N_10
REMARK    6  A    between atoms: C_11  and  S_12
REMARK    7  A    between atoms: C_15  and  C_16
REMARK    8  A    between atoms: C_18  and  C_19
REMARK                            x       y       z     vdW  Elec       q    Type
REMARK                         _______ _______ _______ _____ _____    ______ ____
ROOT
ATOM      1  N   UNL     1       5.671   5.313  17.015  0.00  0.00    +0.000 N 
ATOM      2  C   UNL     1       5.664   4.344  16.016  0.00  0.00    +0.000 A 
ATOM      3  N   UNL     1       6.892   4.012  15.688  0.00  0.00    +0.000 NA
ATOM      4  N   UNL     1       7.746   4.778  16.426  0.00  0.00    +0.000 NA
ATOM      5  C   UNL     1       7.017   5.624  17.130  0.00  0.00    +0.000 A 
ENDROOT
BRANCH   1  10
ATOM      6  C   UNL     1       2.996   7.773  17.800  0.00  0.00    +0.000 A 
ATOM      7  C   UNL     1       2.578   7.341  19.053  0.00  0.00    +0.000 A 
ATOM      8  C   UNL     1       3.131   6.199  19.632  0.00  0.00    +0.000 A 
ATOM      9  C   UNL     1       4.119   5.461  18.967  0.00  0.00    +0.000 A 
ATOM     10  C   UNL     1       4.576   5.922  17.707  0.00  0.00    +0.000 A 
ATOM     11  C   UNL     1       4.000   7.070  17.137  0.00  0.00    +0.000 A 
BRANCH   6  13
ATOM     12  C   UNL     1       1.375   9.462  18.186  0.00  0.00    +0.000 C 
ATOM     13  O   UNL     1       2.376   8.901  17.345  0.00  0.00    +0.000 OA
ENDBRANCH   6  13
BRANCH   9  14
ATOM     14  O   UNL     1       4.641   4.295  19.471  0.00  0.00    +0.000 OA
ATOM     15  C   UNL     1       3.794   3.145  19.508  0.00  0.00    +0.000 C 
ENDBRANCH   9  14
ENDBRANCH   1  10
BRANCH   5  16
ATOM     16  C   UNL     1       7.624   6.810  17.804  0.00  0.00    +0.000 A 
ATOM     17  C   UNL     1       7.570   8.132  17.324  0.00  0.00    +0.000 A 
ATOM     18  C   UNL     1       8.325   8.854  18.212  0.00  0.00    +0.000 A 
ATOM     19  N   UNL     1       8.710   7.978  19.179  0.00  0.00    +0.000 N 
ATOM     20  N   UNL     1       8.269   6.732  18.983  0.00  0.00    +0.000 NA
ATOM     21  H   UNL     1       9.288   8.171  19.995  0.00  0.00    +0.000 HD
BRANCH  18  22
ATOM     22  C   UNL     1       8.714  10.222  18.245  0.00  0.00    +0.000 A 
ATOM     23  C   UNL     1       9.698  10.827  19.006  0.00  0.00    +0.000 A 
ATOM     24  C   UNL     1       9.690  12.201  18.672  0.00  0.00    +0.000 A 
ATOM     25  C   UNL     1       8.696  12.361  17.739  0.00  0.00    +0.000 A 
ATOM     26  O   UNL     1       8.099  11.174  17.475  0.00  0.00    +0.000 OA
ENDBRANCH  18  22
ENDBRANCH   5  16
BRANCH   2  27
ATOM     27  S   UNL     1       4.290   3.527  15.337  0.00  0.00    +0.000 S 
ATOM     28  H   UNL     1       4.194   4.172  14.169  0.00  0.00    +0.000 HD
ENDBRANCH   2  27
TORSDOF 6
ENDMDL
MODEL 5
REMARK VINA RESULT:      -6.9      2.423      4.403
REMARK  Name = 
REMARK  8 active torsions:
REMARK  status: ('A' for Active; 'I' for Inactive)
REMARK    1  A    between atoms: C_1  and  O_2
REMARK    2  A    between atoms: O_2  and  C_3
REMARK    3  A    between atoms: C_6  and  O_7
REMARK    4  A    between atoms: O_7  and  C_8
REMARK    5  A    between atoms: C_9  and  N_10
REMARK    6  A    between atoms: C_11  and  S_12
REMARK    7  A    between atoms: C_15  and  C_16
REMARK    8  A    between atoms: C_18  and  C_19
REMARK                            x       y       z     vdW  Elec       q    Type
REMARK                         _______ _______ _______ _____ _____    ______ ____
ROOT
ATOM      1  N   UNL     1       3.435   4.310  19.766  0.00  0.00    +0.000 N 
ATOM      2  C   UNL     1       3.445   3.212  20.620  0.00  0.00    +0.000 A 
ATOM      3  N   UNL     1       2.425   3.262  21.447  0.00  0.00    +0.000 NA
ATOM      4  N   UNL     1       1.736   4.412  21.195  0.00  0.00    +0.000 NA
ATOM      5  C   UNL     1       2.401   5.083  20.273  0.00  0.00    +0.000 A 
ENDROOT
BRANCH   1  10
ATOM      6  C   UNL     1       6.381   5.716  17.986  0.00  0.00    +0.000 A 
ATOM      7  C   UNL     1       6.022   5.525  16.657  0.00  0.00    +0.000 A 
ATOM      8  C   UNL     1       4.831   4.877  16.329  0.00  0.00    +0.000 A 
ATOM      9  C   UNL     1       3.969   4.405  17.327  0.00  0.00    +0.000 A 
ATOM     10  C   UNL     1       4.312   4.635  18.683  0.00  0.00    +0.000 A 
ATOM     11  C   UNL     1       5.521   5.282  18.993  0.00  0.00    +0.000 A 
BRANCH   6  13
ATOM     12  C   UNL     1       7.685   7.662  17.607  0.00  0.00    +0.000 C 
ATOM     13  O   UNL     1       7.569   6.362  18.173  0.00  0.00    +0.000 OA
ENDBRANCH   6  13
BRANCH   9  14
ATOM     14  O   UNL     1       2.821   3.704  17.048  0.00  0.00    +0.000 OA
ATOM     15  C   UNL     1       2.846   2.286  17.224  0.00  0.00    +0.000 C 
ENDBRANCH   9  14
ENDBRANCH   1  10
BRANCH   5  16
ATOM     16  C   UNL     1       2.111   6.519  19.985  0.00  0.00    +0.000 A 
ATOM     17  C   UNL     1       1.432   7.398  20.848  0.00  0.00    +0.000 A 
ATOM     18  C   UNL     1       1.325   8.567  20.137  0.00  0.00    +0.000 A 
ATOM     19  N   UNL     1       1.987   8.359  18.968  0.00  0.00    +0.000 N 
ATOM     20  N   UNL     1       2.511   7.134  18.856  0.00  0.00    +0.000 NA
ATOM     21  H   UNL     1       2.104   9.014  18.196  0.00  0.00    +0.000 HD
BRANCH  18  22
ATOM     22  C   UNL     1       0.688   9.806  20.425  0.00  0.00    +0.000 A 
ATOM     23  C   UNL     1      -0.349  10.426  19.753  0.00  0.00    +0.000 A 
ATOM     24  C   UNL     1      -0.618  11.634  20.435  0.00  0.00    +0.000 A 
ATOM     25  C   UNL     1       0.275  11.693  21.476  0.00  0.00    +0.000 A 
ATOM     26  O   UNL     1       1.070  10.595  21.478  0.00  0.00    +0.000 OA
ENDBRANCH  18  22
ENDBRANCH   5  16
BRANCH   2  27
ATOM     27  S   UNL     1       4.519   1.847  20.586  0.00  0.00    +0.000 S 
ATOM     28  H   UNL     1       4.879   1.808  21.874  0.00  0.00    +0.000 HD
ENDBRANCH   2  27
TORSDOF 6
ENDMDL
MODEL 6
REMARK VINA RESULT:      -6.8      2.386      4.348
REMARK  Name = 
REMARK  8 active torsions:
REMARK  status: ('A' for Active; 'I' for Inactive)
REMARK    1  A    between atoms: C_1  and  O_2
REMARK    2  A    between atoms: O_2  and  C_3
REMARK    3  A    between atoms: C_6  and  O_7
REMARK    4  A    between atoms: O_7  and  C_8
REMARK    5  A    between atoms: C_9  and  N_10
REMARK    6  A    between atoms: C_11  and  S_12
REMARK    7  A    between atoms: C_15  and  C_16
REMARK    8  A    between atoms: C_18  and  C_19
REMARK                            x       y       z     vdW  Elec       q    Type
REMARK                         _______ _______ _______ _____ _____    ______ ____
ROOT
ATOM      1  N   UNL     1       3.247   4.731  19.500  0.00  0.00    +0.000 N 
ATOM      2  C   UNL     1       3.068   3.815  20.533  0.00  0.00    +0.000 A 
ATOM      3  N   UNL     1       2.006   4.123  21.243  0.00  0.00    +0.000 NA
ATOM      4  N   UNL     1       1.477   5.271  20.731  0.00  0.00    +0.000 NA
ATOM      5  C   UNL     1       2.279   5.687  19.769  0.00  0.00    +0.000 A 
ENDROOT
BRANCH   1  10
ATOM      6  C   UNL     1       6.413   5.554  17.734  0.00  0.00    +0.000 A 
ATOM      7  C   UNL     1       6.153   5.075  16.456  0.00  0.00    +0.000 A 
ATOM      8  C   UNL     1       4.954   4.422  16.172  0.00  0.00    +0.000 A 
ATOM      9  C   UNL     1       3.983   4.233  17.166  0.00  0.00    +0.000 A 
ATOM     10  C   UNL     1       4.229   4.756  18.459  0.00  0.00    +0.000 A 
ATOM     11  C   UNL     1       5.448   5.404  18.727  0.00  0.00    +0.000 A 
BRANCH   6  13
ATOM     12  C   UNL     1       7.665   7.565  17.592  0.00  0.00    +0.000 C 
ATOM     13  O   UNL     1       7.622   6.172  17.880  0.00  0.00    +0.000 OA
ENDBRANCH   6  13
BRANCH   9  14
ATOM     14  O   UNL     1       2.820   3.537  16.946  0.00  0.00    +0.000 OA
ATOM     15  C   UNL     1       2.781   2.162  17.332  0.00  0.00    +0.000 C 
ENDBRANCH   9  14
ENDBRANCH   1  10
BRANCH   5  16
ATOM     16  C   UNL     1       2.181   7.067  19.206  0.00  0.00    +0.000 A 
ATOM     17  C   UNL     1       1.643   8.180  19.877  0.00  0.00    +0.000 A 
ATOM     18  C   UNL     1       1.683   9.194  18.954  0.00  0.00    +0.000 A 
ATOM     19  N   UNL     1       2.289   8.676  17.852  0.00  0.00    +0.000 N 
ATOM     20  N   UNL     1       2.641   7.393  17.983  0.00  0.00    +0.000 NA
ATOM     21  H   UNL     1       2.480   9.148  16.970  0.00  0.00    +0.000 HD
BRANCH  18  22
ATOM     22  C   UNL     1       1.225  10.540  18.991  0.00  0.00    +0.000 A 
ATOM     23  C   UNL     1       0.045  11.041  19.509  0.00  0.00    +0.000 A 
ATOM     24  C   UNL     1       0.065  12.440  19.301  0.00  0.00    +0.000 A 
ATOM     25  C   UNL     1       1.247  12.713  18.659  0.00  0.00    +0.000 A 
ATOM     26  O   UNL     1       1.954  11.573  18.465  0.00  0.00    +0.000 OA
ENDBRANCH  18  22
ENDBRANCH   5  16
BRANCH   2  27
ATOM     27  S   UNL     1       3.974   2.364  20.837  0.00  0.00    +0.000 S 
ATOM     28  H   UNL     1       4.813   2.397  19.796  0.00  0.00    +0.000 HD
ENDBRANCH   2  27
TORSDOF 6
ENDMDL
MODEL 7
REMARK VINA RESULT:      -6.6      2.274      3.713
REMARK  Name = 
REMARK  8 active torsions:
REMARK  status: ('A' for Active; 'I' for Inactive)
REMARK    1  A    between atoms: C_1  and  O_2
REMARK    2  A    between atoms: O_2  and  C_3
REMARK    3  A    between atoms: C_6  and  O_7
REMARK    4  A    between atoms: O_7  and  C_8
REMARK    5  A    between atoms: C_9  and  N_10
REMARK    6  A    between atoms: C_11  and  S_12
REMARK    7  A    between atoms: C_15  and  C_16
REMARK    8  A    between atoms: C_18  and  C_19
REMARK                            x       y       z     vdW  Elec       q    Type
REMARK                         _______ _______ _______ _____ _____    ______ ____
ROOT
ATOM      1  N   UNL     1       3.613   4.016  18.034  0.00  0.00    +0.000 N 
ATOM      2  C   UNL     1       3.256   2.864  18.729  0.00  0.00    +0.000 A 
ATOM      3  N   UNL     1       2.121   3.043  19.367  0.00  0.00    +0.000 NA
ATOM      4  N   UNL     1       1.716   4.328  19.150  0.00  0.00    +0.000 NA
ATOM      5  C   UNL     1       2.659   4.932  18.452  0.00  0.00    +0.000 A 
ENDROOT
BRANCH   1  10
ATOM      6  C   UNL     1       5.550   4.356  14.879  0.00  0.00    +0.000 A 
ATOM      7  C   UNL     1       6.847   4.489  15.361  0.00  0.00    +0.000 A 
ATOM      8  C   UNL     1       7.095   4.527  16.733  0.00  0.00    +0.000 A 
ATOM      9  C   UNL     1       6.047   4.432  17.658  0.00  0.00    +0.000 A 
ATOM     10  C   UNL     1       4.728   4.255  17.170  0.00  0.00    +0.000 A 
ATOM     11  C   UNL     1       4.498   4.228  15.783  0.00  0.00    +0.000 A 
BRANCH   6  13
ATOM     12  C   UNL     1       6.357   3.496  12.820  0.00  0.00    +0.000 C 
ATOM     13  O   UNL     1       5.442   4.332  13.518  0.00  0.00    +0.000 OA
ENDBRANCH   6  13
BRANCH   9  14
ATOM     14  O   UNL     1       6.240   4.532  19.014  0.00  0.00    +0.000 OA
ATOM     15  C   UNL     1       7.097   5.571  19.491  0.00  0.00    +0.000 C 
ENDBRANCH   9  14
ENDBRANCH   1  10
BRANCH   5  16
ATOM     16  C   UNL     1       2.697   6.418  18.305  0.00  0.00    +0.000 A 
ATOM     17  C   UNL     1       1.844   7.320  18.967  0.00  0.00    +0.000 A 
ATOM     18  C   UNL     1       2.186   8.551  18.465  0.00  0.00    +0.000 A 
ATOM     19  N   UNL     1       3.234   8.337  17.624  0.00  0.00    +0.000 N 
ATOM     20  N   UNL     1       3.597   7.054  17.532  0.00  0.00    +0.000 NA
ATOM     21  H   UNL     1       3.737   9.030  17.073  0.00  0.00    +0.000 HD
BRANCH  18  22
ATOM     22  C   UNL     1       1.651   9.852  18.677  0.00  0.00    +0.000 A 
ATOM     23  C   UNL     1       2.071  11.059  18.150  0.00  0.00    +0.000 A 
ATOM     24  C   UNL     1       1.211  12.055  18.667  0.00  0.00    +0.000 A 
ATOM     25  C   UNL     1       0.324  11.405  19.490  0.00  0.00    +0.000 A 
ATOM     26  O   UNL     1       0.582  10.075  19.504  0.00  0.00    +0.000 OA
ENDBRANCH  18  22
ENDBRANCH   5  16
BRANCH   2  27
ATOM     27  S   UNL     1       4.049   1.319  18.705  0.00  0.00    +0.000 S 
ATOM     28  H   UNL     1       4.308   1.216  17.396  0.00  0.00    +0.000 HD
ENDBRANCH   2  27
TORSDOF 6
ENDMDL
MODEL 8
REMARK VINA RESULT:      -6.5      3.945      9.040
REMARK  Name = 
REMARK  8 active torsions:
REMARK  status: ('A' for Active; 'I' for Inactive)
REMARK    1  A    between atoms: C_1  and  O_2
REMARK    2  A    between atoms: O_2  and  C_3
REMARK    3  A    between atoms: C_6  and  O_7
REMARK    4  A    between atoms: O_7  and  C_8
REMARK    5  A    between atoms: C_9  and  N_10
REMARK    6  A    between atoms: C_11  and  S_12
REMARK    7  A    between atoms: C_15  and  C_16
REMARK    8  A    between atoms: C_18  and  C_19
REMARK                            x       y       z     vdW  Elec       q    Type
REMARK                         _______ _______ _______ _____ _____    ______ ____
ROOT
ATOM      1  N   UNL     1       0.005  10.942  21.432  0.00  0.00    +0.000 N 
ATOM      2  C   UNL     1      -0.725  11.072  22.610  0.00  0.00    +0.000 A 
ATOM      3  N   UNL     1      -0.467  10.074  23.424  0.00  0.00    +0.000 NA
ATOM      4  N   UNL     1       0.404   9.233  22.796  0.00  0.00    +0.000 NA
ATOM      5  C   UNL     1       0.594   9.695  21.574  0.00  0.00    +0.000 A 
ENDROOT
BRANCH   1  10
ATOM      6  C   UNL     1       1.140  13.761  19.289  0.00  0.00    +0.000 A 
ATOM      7  C   UNL     1       0.204  13.725  18.262  0.00  0.00    +0.000 A 
ATOM      8  C   UNL     1      -0.778  12.736  18.230  0.00  0.00    +0.000 A 
ATOM      9  C   UNL     1      -0.848  11.756  19.230  0.00  0.00    +0.000 A 
ATOM     10  C   UNL     1       0.079  11.815  20.300  0.00  0.00    +0.000 A 
ATOM     11  C   UNL     1       1.068  12.814  20.309  0.00  0.00    +0.000 A 
BRANCH   6  13
ATOM     12  C   UNL     1       1.526  16.080  18.972  0.00  0.00    +0.000 C 
ATOM     13  O   UNL     1       2.047  14.777  19.205  0.00  0.00    +0.000 OA
ENDBRANCH   6  13
BRANCH   9  14
ATOM     14  O   UNL     1      -1.757  10.727  19.200  0.00  0.00    +0.000 OA
ATOM     15  C   UNL     1      -2.135  10.207  17.924  0.00  0.00    +0.000 C 
ENDBRANCH   9  14
ENDBRANCH   1  10
BRANCH   5  16
ATOM     16  C   UNL     1       1.233   8.863  20.511  0.00  0.00    +0.000 A 
ATOM     17  C   UNL     1       1.665   7.533  20.671  0.00  0.00    +0.000 A 
ATOM     18  C   UNL     1       2.257   7.215  19.475  0.00  0.00    +0.000 A 
ATOM     19  N   UNL     1       2.087   8.298  18.671  0.00  0.00    +0.000 N 
ATOM     20  N   UNL     1       1.433   9.306  19.256  0.00  0.00    +0.000 NA
ATOM     21  H   UNL     1       2.407   8.413  17.710  0.00  0.00    +0.000 HD
BRANCH  18  22
ATOM     22  C   UNL     1       2.944   6.052  19.029  0.00  0.00    +0.000 A 
ATOM     23  C   UNL     1       2.630   5.207  17.981  0.00  0.00    +0.000 A 
ATOM     24  C   UNL     1       3.624   4.202  17.949  0.00  0.00    +0.000 A 
ATOM     25  C   UNL     1       4.481   4.481  18.985  0.00  0.00    +0.000 A 
ATOM     26  O   UNL     1       4.079   5.595  19.644  0.00  0.00    +0.000 OA
ENDBRANCH  18  22
ENDBRANCH   5  16
BRANCH   2  27
ATOM     27  S   UNL     1      -1.742  12.396  23.090  0.00  0.00    +0.000 S 
ATOM     28  H   UNL     1      -0.988  13.423  22.683  0.00  0.00    +0.000 HD
ENDBRANCH   2  27
TORSDOF 6
ENDMDL
MODEL 9
REMARK VINA RESULT:      -6.5      3.745      8.835
REMARK  Name = 
REMARK  8 active torsions:
REMARK  status: ('A' for Active; 'I' for Inactive)
REMARK    1  A    between atoms: C_1  and  O_2
REMARK    2  A    between atoms: O_2  and  C_3
REMARK    3  A    between atoms: C_6  and  O_7
REMARK    4  A    between atoms: O_7  and  C_8
REMARK    5  A    between atoms: C_9  and  N_10
REMARK    6  A    between atoms: C_11  and  S_12
REMARK    7  A    between atoms: C_15  and  C_16
REMARK    8  A    between atoms: C_18  and  C_19
REMARK                            x       y       z     vdW  Elec       q    Type
REMARK                         _______ _______ _______ _____ _____    ______ ____
ROOT
ATOM      1  N   UNL     1       0.277  10.554  21.047  0.00  0.00    +0.000 N 
ATOM      2  C   UNL     1      -0.457  10.440  22.224  0.00  0.00    +0.000 A 
ATOM      3  N   UNL     1      -0.203   9.295  22.817  0.00  0.00    +0.000 NA
ATOM      4  N   UNL     1       0.670   8.600  22.031  0.00  0.00    +0.000 NA
ATOM      5  C   UNL     1       0.865   9.303  20.932  0.00  0.00    +0.000 A 
ENDROOT
BRANCH   1  10
ATOM      6  C   UNL     1       1.549  13.647  19.423  0.00  0.00    +0.000 A 
ATOM      7  C   UNL     1       0.530  13.928  18.520  0.00  0.00    +0.000 A 
ATOM      8  C   UNL     1      -0.562  13.070  18.393  0.00  0.00    +0.000 A 
ATOM      9  C   UNL     1      -0.661  11.908  19.169  0.00  0.00    +0.000 A 
ATOM     10  C   UNL     1       0.356  11.641  20.119  0.00  0.00    +0.000 A 
ATOM     11  C   UNL     1       1.453  12.513  20.227  0.00  0.00    +0.000 A 
BRANCH   6  13
ATOM     12  C   UNL     1       2.666  15.432  18.329  0.00  0.00    +0.000 C 
ATOM     13  O   UNL     1       2.560  14.564  19.451  0.00  0.00    +0.000 OA
ENDBRANCH   6  13
BRANCH   9  14
ATOM     14  O   UNL     1      -1.685  11.003  19.027  0.00  0.00    +0.000 OA
ATOM     15  C   UNL     1      -1.843  10.368  17.758  0.00  0.00    +0.000 C 
ENDBRANCH   9  14
ENDBRANCH   1  10
BRANCH   5  16
ATOM     16  C   UNL     1       1.508   8.708  19.723  0.00  0.00    +0.000 A 
ATOM     17  C   UNL     1       2.171   7.467  19.685  0.00  0.00    +0.000 A 
ATOM     18  C   UNL     1       2.667   7.378  18.409  0.00  0.00    +0.000 A 
ATOM     19  N   UNL     1       2.227   8.487  17.756  0.00  0.00    +0.000 N 
ATOM     20  N   UNL     1       1.486   9.300  18.514  0.00  0.00    +0.000 NA
ATOM     21  H   UNL     1       2.412   8.751  16.789  0.00  0.00    +0.000 HD
BRANCH  18  22
ATOM     22  C   UNL     1       3.484   6.406  17.766  0.00  0.00    +0.000 A 
ATOM     23  C   UNL     1       4.625   6.595  17.008  0.00  0.00    +0.000 A 
ATOM     24  C   UNL     1       5.061   5.315  16.596  0.00  0.00    +0.000 A 
ATOM     25  C   UNL     1       4.158   4.419  17.111  0.00  0.00    +0.000 A 
ATOM     26  O   UNL     1       3.200   5.067  17.818  0.00  0.00    +0.000 OA
ENDBRANCH  18  22
ENDBRANCH   5  16
BRANCH   2  27
ATOM     27  S   UNL     1      -1.476  11.637  22.962  0.00  0.00    +0.000 S 
ATOM     28  H   UNL     1      -2.315  11.879  21.949  0.00  0.00    +0.000 HD
ENDBRANCH   2  27
TORSDOF 6
ENDMDL
