MODEL 1
REMARK VINA RESULT:      -6.5      0.000      0.000
REMARK  Name = 
REMARK  6 active torsions:
REMARK  status: ('A' for Active; 'I' for Inactive)
REMARK    1  A    between atoms: C_1  and  C_2
REMARK    2  A    between atoms: C_2  and  C_3
REMARK    3  A    between atoms: C_2  and  C_4
REMARK    4  A    between atoms: C_5  and  C_6
REMARK    5  A    between atoms: C_8  and  N_9
REMARK    6  A    between atoms: C_14  and  C_15
REMARK                            x       y       z     vdW  Elec       q    Type
REMARK                         _______ _______ _______ _____ _____    ______ ____
ROOT
ATOM      1  C   UNL     1       5.040   5.397  17.943  0.00  0.00    +0.000 C 
ATOM      2  C   UNL     1       6.117   5.910  16.949  0.00  0.00    +0.000 C 
ATOM      3  C   UNL     1       6.589   5.170  15.907  0.00  0.00    +0.000 C 
ATOM      4  O   UNL     1       6.139   3.870  15.651  0.00  0.00    +0.000 OA
ATOM      5  C   UNL     1       5.267   3.370  16.513  0.00  0.00    +0.000 A 
ATOM      6  N   UNL     1       4.768   2.117  16.431  0.00  0.00    +0.000 N 
ATOM      7  N   UNL     1       3.863   1.855  17.385  0.00  0.00    +0.000 NA
ATOM      8  C   UNL     1       3.812   2.973  18.139  0.00  0.00    +0.000 A 
ATOM      9  C   UNL     1       4.695   3.968  17.607  0.00  0.00    +0.000 A 
ATOM     10  H   UNL     1       4.987   1.396  15.752  0.00  0.00    +0.000 HD
ENDROOT
BRANCH   8  11
ATOM     11  C   UNL     1       2.915   3.012  19.300  0.00  0.00    +0.000 A 
ATOM     12  C   UNL     1       3.361   2.694  20.588  0.00  0.00    +0.000 A 
ATOM     13  C   UNL     1       2.475   2.695  21.671  0.00  0.00    +0.000 A 
ATOM     14  C   UNL     1       1.128   2.988  21.474  0.00  0.00    +0.000 A 
ATOM     15  C   UNL     1       0.667   3.309  20.201  0.00  0.00    +0.000 A 
ATOM     16  C   UNL     1       1.556   3.328  19.123  0.00  0.00    +0.000 A 
ENDBRANCH   8  11
BRANCH   1  18
ATOM     17  C   UNL     1       3.309   6.565  19.495  0.00  0.00    +0.000 C 
ATOM     18  C   UNL     1       3.753   6.279  18.056  0.00  0.00    +0.000 C 
ATOM     19  C   UNL     1       3.831   7.585  17.262  0.00  0.00    +0.000 C 
ENDBRANCH   1  18
BRANCH   3  20
ATOM     20  N   UNL     1       7.551   5.576  15.010  0.00  0.00    +0.000 N 
ATOM     21  H   UNL     1       7.300   5.500  14.026  0.00  0.00    +0.000 HD
ATOM     22  H   UNL     1       8.463   5.175  15.219  0.00  0.00    +0.000 HD
ENDBRANCH   3  20
BRANCH   2  23
ATOM     23  C   UNL     1       6.714   7.181  17.203  0.00  0.00    +0.000 C 
ATOM     24  N   UNL     1       7.223   8.205  17.413  0.00  0.00    +0.000 NA
ENDBRANCH   2  23
TORSDOF 4
ENDMDL
MODEL 2
REMARK VINA RESULT:      -6.5      0.070      1.053
REMARK  Name = 
REMARK  6 active torsions:
REMARK  status: ('A' for Active; 'I' for Inactive)
REMARK    1  A    between atoms: C_1  and  C_2
REMARK    2  A    between atoms: C_2  and  C_3
REMARK    3  A    between atoms: C_2  and  C_4
REMARK    4  A    between atoms: C_5  and  C_6
REMARK    5  A    between atoms: C_8  and  N_9
REMARK    6  A    between atoms: C_14  and  C_15
REMARK                            x       y       z     vdW  Elec       q    Type
REMARK                         _______ _______ _______ _____ _____    ______ ____
ROOT
ATOM      1  C   UNL     1       5.042   5.371  17.930  0.00  0.00    +0.000 C 
ATOM      2  C   UNL     1       6.132   5.891  16.954  0.00  0.00    +0.000 C 
ATOM      3  C   UNL     1       6.610   5.162  15.907  0.00  0.00    +0.000 C 
ATOM      4  O   UNL     1       6.155   3.868  15.629  0.00  0.00    +0.000 OA
ATOM      5  C   UNL     1       5.271   3.363  16.476  0.00  0.00    +0.000 A 
ATOM      6  N   UNL     1       4.766   2.113  16.373  0.00  0.00    +0.000 N 
ATOM      7  N   UNL     1       3.850   1.844  17.313  0.00  0.00    +0.000 NA
ATOM      8  C   UNL     1       3.798   2.953  18.081  0.00  0.00    +0.000 A 
ATOM      9  C   UNL     1       4.692   3.949  17.571  0.00  0.00    +0.000 A 
ATOM     10  H   UNL     1       4.988   1.400  15.686  0.00  0.00    +0.000 HD
ENDROOT
BRANCH   8  11
ATOM     11  C   UNL     1       2.888   2.981  19.234  0.00  0.00    +0.000 A 
ATOM     12  C   UNL     1       1.553   3.382  19.110  0.00  0.00    +0.000 A 
ATOM     13  C   UNL     1       0.719   3.443  20.231  0.00  0.00    +0.000 A 
ATOM     14  C   UNL     1       1.217   3.129  21.493  0.00  0.00    +0.000 A 
ATOM     15  C   UNL     1       2.542   2.727  21.635  0.00  0.00    +0.000 A 
ATOM     16  C   UNL     1       3.369   2.646  20.511  0.00  0.00    +0.000 A 
ENDBRANCH   8  11
BRANCH   1  18
ATOM     17  C   UNL     1       3.329   6.570  19.480  0.00  0.00    +0.000 C 
ATOM     18  C   UNL     1       3.758   6.260  18.042  0.00  0.00    +0.000 C 
ATOM     19  C   UNL     1       3.833   7.553  17.227  0.00  0.00    +0.000 C 
ENDBRANCH   1  18
BRANCH   3  20
ATOM     20  N   UNL     1       7.584   5.574  15.025  0.00  0.00    +0.000 N 
ATOM     21  H   UNL     1       7.513   5.200  14.082  0.00  0.00    +0.000 HD
ATOM     22  H   UNL     1       8.518   5.487  15.419  0.00  0.00    +0.000 HD
ENDBRANCH   3  20
BRANCH   2  23
ATOM     23  C   UNL     1       6.734   7.155  17.232  0.00  0.00    +0.000 C 
ATOM     24  N   UNL     1       7.246   8.175  17.450  0.00  0.00    +0.000 NA
ENDBRANCH   2  23
TORSDOF 4
ENDMDL
MODEL 3
REMARK VINA RESULT:      -6.5      2.902      6.113
REMARK  Name = 
REMARK  6 active torsions:
REMARK  status: ('A' for Active; 'I' for Inactive)
REMARK    1  A    between atoms: C_1  and  C_2
REMARK    2  A    between atoms: C_2  and  C_3
REMARK    3  A    between atoms: C_2  and  C_4
REMARK    4  A    between atoms: C_5  and  C_6
REMARK    5  A    between atoms: C_8  and  N_9
REMARK    6  A    between atoms: C_14  and  C_15
REMARK                            x       y       z     vdW  Elec       q    Type
REMARK                         _______ _______ _______ _____ _____    ______ ____
ROOT
ATOM      1  C   UNL     1       3.440   4.864  18.967  0.00  0.00    +0.000 C 
ATOM      2  C   UNL     1       2.505   5.187  20.165  0.00  0.00    +0.000 C 
ATOM      3  C   UNL     1       1.915   6.401  20.349  0.00  0.00    +0.000 C 
ATOM      4  O   UNL     1       2.113   7.468  19.466  0.00  0.00    +0.000 OA
ATOM      5  C   UNL     1       2.955   7.254  18.466  0.00  0.00    +0.000 A 
ATOM      6  N   UNL     1       3.286   8.194  17.553  0.00  0.00    +0.000 N 
ATOM      7  N   UNL     1       4.114   7.730  16.607  0.00  0.00    +0.000 NA
ATOM      8  C   UNL     1       4.361   6.449  16.953  0.00  0.00    +0.000 A 
ATOM      9  C   UNL     1       3.631   6.108  18.137  0.00  0.00    +0.000 A 
ATOM     10  H   UNL     1       2.980   9.160  17.506  0.00  0.00    +0.000 HD
ENDROOT
BRANCH   8  11
ATOM     11  C   UNL     1       5.264   5.645  16.119  0.00  0.00    +0.000 A 
ATOM     12  C   UNL     1       6.653   5.683  16.288  0.00  0.00    +0.000 A 
ATOM     13  C   UNL     1       7.494   4.941  15.451  0.00  0.00    +0.000 A 
ATOM     14  C   UNL     1       6.957   4.174  14.420  0.00  0.00    +0.000 A 
ATOM     15  C   UNL     1       5.578   4.123  14.239  0.00  0.00    +0.000 A 
ATOM     16  C   UNL     1       4.738   4.847  15.088  0.00  0.00    +0.000 A 
ENDBRANCH   8  11
BRANCH   1  18
ATOM     17  C   UNL     1       3.613   2.309  18.501  0.00  0.00    +0.000 C 
ATOM     18  C   UNL     1       3.003   3.651  18.079  0.00  0.00    +0.000 C 
ATOM     19  C   UNL     1       1.487   3.514  17.929  0.00  0.00    +0.000 C 
ENDBRANCH   1  18
BRANCH   3  20
ATOM     20  N   UNL     1       1.092   6.738  21.400  0.00  0.00    +0.000 N 
ATOM     21  H   UNL     1       1.222   7.672  21.782  0.00  0.00    +0.000 HD
ATOM     22  H   UNL     1       1.070   6.014  22.115  0.00  0.00    +0.000 HD
ENDBRANCH   3  20
BRANCH   2  23
ATOM     23  C   UNL     1       2.340   4.192  21.174  0.00  0.00    +0.000 C 
ATOM     24  N   UNL     1       2.181   3.377  21.987  0.00  0.00    +0.000 NA
ENDBRANCH   2  23
TORSDOF 4
ENDMDL
MODEL 4
REMARK VINA RESULT:      -6.3      2.911      6.175
REMARK  Name = 
REMARK  6 active torsions:
REMARK  status: ('A' for Active; 'I' for Inactive)
REMARK    1  A    between atoms: C_1  and  C_2
REMARK    2  A    between atoms: C_2  and  C_3
REMARK    3  A    between atoms: C_2  and  C_4
REMARK    4  A    between atoms: C_5  and  C_6
REMARK    5  A    between atoms: C_8  and  N_9
REMARK    6  A    between atoms: C_14  and  C_15
REMARK                            x       y       z     vdW  Elec       q    Type
REMARK                         _______ _______ _______ _____ _____    ______ ____
ROOT
ATOM      1  C   UNL     1       3.414   4.912  18.995  0.00  0.00    +0.000 C 
ATOM      2  C   UNL     1       2.476   5.230  20.192  0.00  0.00    +0.000 C 
ATOM      3  C   UNL     1       1.886   6.443  20.380  0.00  0.00    +0.000 C 
ATOM      4  O   UNL     1       2.085   7.514  19.503  0.00  0.00    +0.000 OA
ATOM      5  C   UNL     1       2.929   7.305  18.503  0.00  0.00    +0.000 A 
ATOM      6  N   UNL     1       3.262   8.249  17.595  0.00  0.00    +0.000 N 
ATOM      7  N   UNL     1       4.092   7.789  16.648  0.00  0.00    +0.000 NA
ATOM      8  C   UNL     1       4.338   6.507  16.990  0.00  0.00    +0.000 A 
ATOM      9  C   UNL     1       3.606   6.161  18.171  0.00  0.00    +0.000 A 
ATOM     10  H   UNL     1       2.955   9.215  17.551  0.00  0.00    +0.000 HD
ENDROOT
BRANCH   8  11
ATOM     11  C   UNL     1       5.243   5.707  16.154  0.00  0.00    +0.000 A 
ATOM     12  C   UNL     1       4.796   5.052  15.000  0.00  0.00    +0.000 A 
ATOM     13  C   UNL     1       5.668   4.260  14.246  0.00  0.00    +0.000 A 
ATOM     14  C   UNL     1       6.989   4.091  14.651  0.00  0.00    +0.000 A 
ATOM     15  C   UNL     1       7.452   4.736  15.794  0.00  0.00    +0.000 A 
ATOM     16  C   UNL     1       6.586   5.545  16.536  0.00  0.00    +0.000 A 
ENDBRANCH   8  11
BRANCH   1  18
ATOM     17  C   UNL     1       3.560   2.355  18.540  0.00  0.00    +0.000 C 
ATOM     18  C   UNL     1       2.979   3.704  18.101  0.00  0.00    +0.000 C 
ATOM     19  C   UNL     1       1.465   3.588  17.917  0.00  0.00    +0.000 C 
ENDBRANCH   1  18
BRANCH   3  20
ATOM     20  N   UNL     1       1.060   6.775  21.431  0.00  0.00    +0.000 N 
ATOM     21  H   UNL     1       0.865   7.768  21.544  0.00  0.00    +0.000 HD
ATOM     22  H   UNL     1       1.344   6.325  22.298  0.00  0.00    +0.000 HD
ENDBRANCH   3  20
BRANCH   2  23
ATOM     23  C   UNL     1       2.309   4.231  21.197  0.00  0.00    +0.000 C 
ATOM     24  N   UNL     1       2.193   3.404  22.006  0.00  0.00    +0.000 NA
ENDBRANCH   2  23
TORSDOF 4
ENDMDL
MODEL 5
REMARK VINA RESULT:      -6.2      3.054      5.027
REMARK  Name = 
REMARK  6 active torsions:
REMARK  status: ('A' for Active; 'I' for Inactive)
REMARK    1  A    between atoms: C_1  and  C_2
REMARK    2  A    between atoms: C_2  and  C_3
REMARK    3  A    between atoms: C_2  and  C_4
REMARK    4  A    between atoms: C_5  and  C_6
REMARK    5  A    between atoms: C_8  and  N_9
REMARK    6  A    between atoms: C_14  and  C_15
REMARK                            x       y       z     vdW  Elec       q    Type
REMARK                         _______ _______ _______ _____ _____    ______ ____
ROOT
ATOM      1  C   UNL     1       4.414   5.746  19.000  0.00  0.00    +0.000 C 
ATOM      2  C   UNL     1       5.179   4.400  19.127  0.00  0.00    +0.000 C 
ATOM      3  C   UNL     1       4.653   3.292  19.719  0.00  0.00    +0.000 C 
ATOM      4  O   UNL     1       3.368   3.280  20.273  0.00  0.00    +0.000 OA
ATOM      5  C   UNL     1       2.706   4.427  20.243  0.00  0.00    +0.000 A 
ATOM      6  N   UNL     1       1.473   4.593  20.773  0.00  0.00    +0.000 N 
ATOM      7  N   UNL     1       0.985   5.825  20.575  0.00  0.00    +0.000 NA
ATOM      8  C   UNL     1       1.965   6.493  19.931  0.00  0.00    +0.000 A 
ATOM      9  C   UNL     1       3.081   5.626  19.697  0.00  0.00    +0.000 A 
ATOM     10  H   UNL     1       0.905   3.913  21.267  0.00  0.00    +0.000 HD
ENDROOT
BRANCH   8  11
ATOM     11  C   UNL     1       1.755   7.902  19.576  0.00  0.00    +0.000 A 
ATOM     12  C   UNL     1       1.219   8.820  20.486  0.00  0.00    +0.000 A 
ATOM     13  C   UNL     1       0.987  10.147  20.109  0.00  0.00    +0.000 A 
ATOM     14  C   UNL     1       1.264  10.565  18.810  0.00  0.00    +0.000 A 
ATOM     15  C   UNL     1       1.799   9.666  17.892  0.00  0.00    +0.000 A 
ATOM     16  C   UNL     1       2.050   8.346  18.275  0.00  0.00    +0.000 A 
ENDBRANCH   8  11
BRANCH   1  18
ATOM     17  C   UNL     1       5.327   7.288  17.114  0.00  0.00    +0.000 C 
ATOM     18  C   UNL     1       4.245   6.291  17.543  0.00  0.00    +0.000 C 
ATOM     19  C   UNL     1       4.096   5.192  16.489  0.00  0.00    +0.000 C 
ENDBRANCH   1  18
BRANCH   3  20
ATOM     20  N   UNL     1       5.297   2.084  19.866  0.00  0.00    +0.000 N 
ATOM     21  H   UNL     1       4.846   1.285  19.425  0.00  0.00    +0.000 HD
ATOM     22  H   UNL     1       5.561   1.907  20.833  0.00  0.00    +0.000 HD
ENDBRANCH   3  20
BRANCH   2  23
ATOM     23  C   UNL     1       6.537   4.357  18.691  0.00  0.00    +0.000 C 
ATOM     24  N   UNL     1       7.637   4.339  18.318  0.00  0.00    +0.000 NA
ENDBRANCH   2  23
TORSDOF 4
ENDMDL
MODEL 6
REMARK VINA RESULT:      -6.2      9.339     10.658
REMARK  Name = 
REMARK  6 active torsions:
REMARK  status: ('A' for Active; 'I' for Inactive)
REMARK    1  A    between atoms: C_1  and  C_2
REMARK    2  A    between atoms: C_2  and  C_3
REMARK    3  A    between atoms: C_2  and  C_4
REMARK    4  A    between atoms: C_5  and  C_6
REMARK    5  A    between atoms: C_8  and  N_9
REMARK    6  A    between atoms: C_14  and  C_15
REMARK                            x       y       z     vdW  Elec       q    Type
REMARK                         _______ _______ _______ _____ _____    ______ ____
ROOT
ATOM      1  C   UNL     1       9.888  14.317  19.231  0.00  0.00    +0.000 C 
ATOM      2  C   UNL     1      10.543  14.436  17.829  0.00  0.00    +0.000 C 
ATOM      3  C   UNL     1      10.905  13.359  17.077  0.00  0.00    +0.000 C 
ATOM      4  O   UNL     1      10.720  12.044  17.518  0.00  0.00    +0.000 OA
ATOM      5  C   UNL     1      10.222  11.899  18.737  0.00  0.00    +0.000 A 
ATOM      6  N   UNL     1      10.022  10.699  19.325  0.00  0.00    +0.000 N 
ATOM      7  N   UNL     1       9.461  10.802  20.538  0.00  0.00    +0.000 NA
ATOM      8  C   UNL     1       9.338  12.128  20.757  0.00  0.00    +0.000 A 
ATOM      9  C   UNL     1       9.811  12.862  19.622  0.00  0.00    +0.000 A 
ATOM     10  H   UNL     1      10.230   9.776  18.959  0.00  0.00    +0.000 HD
ENDROOT
BRANCH   8  11
ATOM     11  C   UNL     1       8.765  12.592  22.027  0.00  0.00    +0.000 A 
ATOM     12  C   UNL     1       9.101  13.835  22.578  0.00  0.00    +0.000 A 
ATOM     13  C   UNL     1       8.576  14.235  23.811  0.00  0.00    +0.000 A 
ATOM     14  C   UNL     1       7.729  13.387  24.520  0.00  0.00    +0.000 A 
ATOM     15  C   UNL     1       7.382  12.149  23.987  0.00  0.00    +0.000 A 
ATOM     16  C   UNL     1       7.890  11.759  22.745  0.00  0.00    +0.000 A 
ENDBRANCH   8  11
BRANCH   1  18
ATOM     17  C   UNL     1       8.578  16.474  19.866  0.00  0.00    +0.000 C 
ATOM     18  C   UNL     1       8.498  15.020  19.388  0.00  0.00    +0.000 C 
ATOM     19  C   UNL     1       7.618  14.925  18.140  0.00  0.00    +0.000 C 
ENDBRANCH   1  18
BRANCH   3  20
ATOM     20  N   UNL     1      11.501  13.415  15.837  0.00  0.00    +0.000 N 
ATOM     21  H   UNL     1      10.925  13.110  15.055  0.00  0.00    +0.000 HD
ATOM     22  H   UNL     1      12.427  12.992  15.837  0.00  0.00    +0.000 HD
ENDBRANCH   3  20
BRANCH   2  23
ATOM     23  C   UNL     1      10.874  15.739  17.351  0.00  0.00    +0.000 C 
ATOM     24  N   UNL     1      11.126  16.798  16.943  0.00  0.00    +0.000 NA
ENDBRANCH   2  23
TORSDOF 4
ENDMDL
MODEL 7
REMARK VINA RESULT:      -6.1      2.152      3.297
REMARK  Name = 
REMARK  6 active torsions:
REMARK  status: ('A' for Active; 'I' for Inactive)
REMARK    1  A    between atoms: C_1  and  C_2
REMARK    2  A    between atoms: C_2  and  C_3
REMARK    3  A    between atoms: C_2  and  C_4
REMARK    4  A    between atoms: C_5  and  C_6
REMARK    5  A    between atoms: C_8  and  N_9
REMARK    6  A    between atoms: C_14  and  C_15
REMARK                            x       y       z     vdW  Elec       q    Type
REMARK                         _______ _______ _______ _____ _____    ______ ____
ROOT
ATOM      1  C   UNL     1       4.788   4.478  16.438  0.00  0.00    +0.000 C 
ATOM      2  C   UNL     1       5.797   4.410  15.259  0.00  0.00    +0.000 C 
ATOM      3  C   UNL     1       7.138   4.597  15.409  0.00  0.00    +0.000 C 
ATOM      4  O   UNL     1       7.719   4.875  16.651  0.00  0.00    +0.000 OA
ATOM      5  C   UNL     1       6.886   5.005  17.673  0.00  0.00    +0.000 A 
ATOM      6  N   UNL     1       7.282   5.314  18.928  0.00  0.00    +0.000 N 
ATOM      7  N   UNL     1       6.267   5.339  19.802  0.00  0.00    +0.000 NA
ATOM      8  C   UNL     1       5.164   5.080  19.068  0.00  0.00    +0.000 A 
ATOM      9  C   UNL     1       5.523   4.856  17.699  0.00  0.00    +0.000 A 
ATOM     10  H   UNL     1       8.221   5.507  19.261  0.00  0.00    +0.000 HD
ENDROOT
BRANCH   8  11
ATOM     11  C   UNL     1       3.855   5.052  19.731  0.00  0.00    +0.000 A 
ATOM     12  C   UNL     1       3.414   3.932  20.447  0.00  0.00    +0.000 A 
ATOM     13  C   UNL     1       2.143   3.914  21.032  0.00  0.00    +0.000 A 
ATOM     14  C   UNL     1       1.289   5.004  20.888  0.00  0.00    +0.000 A 
ATOM     15  C   UNL     1       1.711   6.127  20.181  0.00  0.00    +0.000 A 
ATOM     16  C   UNL     1       2.988   6.153  19.615  0.00  0.00    +0.000 A 
ENDBRANCH   8  11
BRANCH   1  18
ATOM     17  C   UNL     1       4.513   2.184  17.634  0.00  0.00    +0.000 C 
ATOM     18  C   UNL     1       3.915   3.197  16.652  0.00  0.00    +0.000 C 
ATOM     19  C   UNL     1       2.463   3.499  17.029  0.00  0.00    +0.000 C 
ENDBRANCH   1  18
BRANCH   3  20
ATOM     20  N   UNL     1       8.068   4.561  14.394  0.00  0.00    +0.000 N 
ATOM     21  H   UNL     1       8.296   3.636  14.036  0.00  0.00    +0.000 HD
ATOM     22  H   UNL     1       8.892   5.118  14.610  0.00  0.00    +0.000 HD
ENDBRANCH   3  20
BRANCH   2  23
ATOM     23  C   UNL     1       5.278   4.245  13.940  0.00  0.00    +0.000 C 
ATOM     24  N   UNL     1       4.880   4.107  12.857  0.00  0.00    +0.000 NA
ENDBRANCH   2  23
TORSDOF 4
ENDMDL
MODEL 8
REMARK VINA RESULT:      -6.1      2.232      3.355
REMARK  Name = 
REMARK  6 active torsions:
REMARK  status: ('A' for Active; 'I' for Inactive)
REMARK    1  A    between atoms: C_1  and  C_2
REMARK    2  A    between atoms: C_2  and  C_3
REMARK    3  A    between atoms: C_2  and  C_4
REMARK    4  A    between atoms: C_5  and  C_6
REMARK    5  A    between atoms: C_8  and  N_9
REMARK    6  A    between atoms: C_14  and  C_15
REMARK                            x       y       z     vdW  Elec       q    Type
REMARK                         _______ _______ _______ _____ _____    ______ ____
ROOT
ATOM      1  C   UNL     1       4.221   4.573  17.235  0.00  0.00    +0.000 C 
ATOM      2  C   UNL     1       4.981   5.206  16.037  0.00  0.00    +0.000 C 
ATOM      3  C   UNL     1       4.975   6.541  15.767  0.00  0.00    +0.000 C 
ATOM      4  O   UNL     1       4.269   7.459  16.552  0.00  0.00    +0.000 OA
ATOM      5  C   UNL     1       3.554   6.952  17.546  0.00  0.00    +0.000 A 
ATOM      6  N   UNL     1       2.785   7.698  18.370  0.00  0.00    +0.000 N 
ATOM      7  N   UNL     1       2.198   6.972  19.332  0.00  0.00    +0.000 NA
ATOM      8  C   UNL     1       2.571   5.698  19.088  0.00  0.00    +0.000 A 
ATOM      9  C   UNL     1       3.445   5.648  17.954  0.00  0.00    +0.000 A 
ATOM     10  H   UNL     1       2.623   8.699  18.344  0.00  0.00    +0.000 HD
ENDROOT
BRANCH   8  11
ATOM     11  C   UNL     1       2.077   4.629  19.964  0.00  0.00    +0.000 A 
ATOM     12  C   UNL     1       2.582   4.441  21.256  0.00  0.00    +0.000 A 
ATOM     13  C   UNL     1       2.126   3.387  22.055  0.00  0.00    +0.000 A 
ATOM     14  C   UNL     1       1.178   2.493  21.562  0.00  0.00    +0.000 A 
ATOM     15  C   UNL     1       0.663   2.666  20.280  0.00  0.00    +0.000 A 
ATOM     16  C   UNL     1       1.104   3.731  19.490  0.00  0.00    +0.000 A 
ENDBRANCH   8  11
BRANCH   1  18
ATOM     17  C   UNL     1       5.753   4.582  19.338  0.00  0.00    +0.000 C 
ATOM     18  C   UNL     1       5.101   3.747  18.230  0.00  0.00    +0.000 C 
ATOM     19  C   UNL     1       4.376   2.544  18.838  0.00  0.00    +0.000 C 
ENDBRANCH   1  18
BRANCH   3  20
ATOM     20  N   UNL     1       5.620   7.145  14.711  0.00  0.00    +0.000 N 
ATOM     21  H   UNL     1       6.384   7.770  14.959  0.00  0.00    +0.000 HD
ATOM     22  H   UNL     1       4.967   7.558  14.049  0.00  0.00    +0.000 HD
ENDBRANCH   3  20
BRANCH   2  23
ATOM     23  C   UNL     1       5.633   4.330  15.118  0.00  0.00    +0.000 C 
ATOM     24  N   UNL     1       6.168   3.637  14.354  0.00  0.00    +0.000 NA
ENDBRANCH   2  23
TORSDOF 4
ENDMDL
MODEL 9
REMARK VINA RESULT:      -6.1      3.043      5.043
REMARK  Name = 
REMARK  6 active torsions:
REMARK  status: ('A' for Active; 'I' for Inactive)
REMARK    1  A    between atoms: C_1  and  C_2
REMARK    2  A    between atoms: C_2  and  C_3
REMARK    3  A    between atoms: C_2  and  C_4
REMARK    4  A    between atoms: C_5  and  C_6
REMARK    5  A    between atoms: C_8  and  N_9
REMARK    6  A    between atoms: C_14  and  C_15
REMARK                            x       y       z     vdW  Elec       q    Type
REMARK                         _______ _______ _______ _____ _____    ______ ____
ROOT
ATOM      1  C   UNL     1       4.406   5.736  18.968  0.00  0.00    +0.000 C 
ATOM      2  C   UNL     1       5.189   4.402  19.114  0.00  0.00    +0.000 C 
ATOM      3  C   UNL     1       4.678   3.297  19.723  0.00  0.00    +0.000 C 
ATOM      4  O   UNL     1       3.394   3.276  20.279  0.00  0.00    +0.000 OA
ATOM      5  C   UNL     1       2.717   4.414  20.233  0.00  0.00    +0.000 A 
ATOM      6  N   UNL     1       1.483   4.572  20.762  0.00  0.00    +0.000 N 
ATOM      7  N   UNL     1       0.979   5.794  20.546  0.00  0.00    +0.000 NA
ATOM      8  C   UNL     1       1.949   6.465  19.890  0.00  0.00    +0.000 A 
ATOM      9  C   UNL     1       3.076   5.610  19.668  0.00  0.00    +0.000 A 
ATOM     10  H   UNL     1       0.924   3.893  21.268  0.00  0.00    +0.000 HD
ENDROOT
BRANCH   8  11
ATOM     11  C   UNL     1       1.721   7.866  19.514  0.00  0.00    +0.000 A 
ATOM     12  C   UNL     1       2.045   8.350  18.241  0.00  0.00    +0.000 A 
ATOM     13  C   UNL     1       1.859   9.699  17.921  0.00  0.00    +0.000 A 
ATOM     14  C   UNL     1       1.370  10.585  18.878  0.00  0.00    +0.000 A 
ATOM     15  C   UNL     1       1.040  10.121  20.148  0.00  0.00    +0.000 A 
ATOM     16  C   UNL     1       1.207   8.769  20.460  0.00  0.00    +0.000 A 
ENDBRANCH   8  11
BRANCH   1  18
ATOM     17  C   UNL     1       5.294   7.265  17.059  0.00  0.00    +0.000 C 
ATOM     18  C   UNL     1       4.229   6.256  17.503  0.00  0.00    +0.000 C 
ATOM     19  C   UNL     1       4.100   5.139  16.465  0.00  0.00    +0.000 C 
ENDBRANCH   1  18
BRANCH   3  20
ATOM     20  N   UNL     1       5.338   2.099  19.889  0.00  0.00    +0.000 N 
ATOM     21  H   UNL     1       4.886   1.285  19.479  0.00  0.00    +0.000 HD
ATOM     22  H   UNL     1       5.625   1.951  20.854  0.00  0.00    +0.000 HD
ENDBRANCH   3  20
BRANCH   2  23
ATOM     23  C   UNL     1       6.547   4.370  18.677  0.00  0.00    +0.000 C 
ATOM     24  N   UNL     1       7.648   4.363  18.305  0.00  0.00    +0.000 NA
ENDBRANCH   2  23
TORSDOF 4
ENDMDL
