MODEL 1
REMARK VINA RESULT:      -8.9      0.000      0.000
REMARK  Name = 
REMARK  6 active torsions:
REMARK  status: ('A' for Active; 'I' for Inactive)
REMARK    1  A    between atoms: C_1  and  O_2
REMARK    2  A    between atoms: O_2  and  C_3
REMARK    3  A    between atoms: C_9  and  N_10
REMARK    4  A    between atoms: N_13  and  C_14
REMARK    5  A    between atoms: N_22  and  C_23
REMARK    6  A    between atoms: C_23  and  C_24
REMARK                            x       y       z     vdW  Elec       q    Type
REMARK                         _______ _______ _______ _____ _____    ______ ____
ROOT
ATOM      1  C   UNL     1       1.135   9.090  20.542  0.00  0.00    +0.000 A 
ATOM      2  C   UNL     1       1.333   9.818  19.350  0.00  0.00    +0.000 A 
ATOM      3  C   UNL     1       1.018  11.164  19.225  0.00  0.00    +0.000 A 
ATOM      4  C   UNL     1       0.388  11.834  20.259  0.00  0.00    +0.000 A 
ATOM      5  C   UNL     1       0.019  11.094  21.391  0.00  0.00    +0.000 A 
ATOM      6  C   UNL     1       0.377   9.741  21.559  0.00  0.00    +0.000 A 
ATOM      7  C   UNL     1      -0.144   9.353  22.831  0.00  0.00    +0.000 A 
ATOM      8  C   UNL     1      -0.818  10.427  23.373  0.00  0.00    +0.000 A 
ATOM      9  N   UNL     1      -0.705  11.482  22.503  0.00  0.00    +0.000 N 
ENDROOT
BRANCH   1  13
ATOM     10  N   UNL     1       2.825   5.844  20.002  0.00  0.00    +0.000 N 
ATOM     11  C   UNL     1       2.206   7.038  19.659  0.00  0.00    +0.000 C 
ATOM     12  O   UNL     1       2.131   7.409  18.494  0.00  0.00    +0.000 OA
ATOM     13  N   UNL     1       1.705   7.780  20.726  0.00  0.00    +0.000 N 
ATOM     14  H   UNL     1       2.495   5.344  20.817  0.00  0.00    +0.000 HD
ATOM     15  H   UNL     1       2.047   7.565  21.651  0.00  0.00    +0.000 HD
BRANCH  10  22
ATOM     16  C   UNL     1       2.882   4.115  18.229  0.00  0.00    +0.000 A 
ATOM     17  C   UNL     1       3.609   3.408  17.250  0.00  0.00    +0.000 A 
ATOM     18  C   UNL     1       4.978   3.614  17.072  0.00  0.00    +0.000 A 
ATOM     19  C   UNL     1       5.637   4.513  17.889  0.00  0.00    +0.000 A 
ATOM     20 BR   UNL     1       7.487   4.826  17.651  0.00  0.00    +0.000 Br
ATOM     21  C   UNL     1       4.940   5.203  18.877  0.00  0.00    +0.000 A 
ATOM     22  C   UNL     1       3.549   5.057  19.039  0.00  0.00    +0.000 A 
BRANCH  16  24
ATOM     23  C   UNL     1       1.099   2.614  18.677  0.00  0.00    +0.000 C 
ATOM     24  O   UNL     1       1.530   3.954  18.427  0.00  0.00    +0.000 OA
ENDBRANCH  16  24
ENDBRANCH  10  22
ENDBRANCH   1  13
BRANCH   9  25
ATOM     25  C   UNL     1      -1.352  12.782  22.685  0.00  0.00    +0.000 C 
BRANCH  25  26
ATOM     26  C   UNL     1      -2.845  12.696  22.507  0.00  0.00    +0.000 A 
ATOM     27  C   UNL     1      -3.433  12.743  21.242  0.00  0.00    +0.000 A 
ATOM     28  C   UNL     1      -4.817  12.727  21.156  0.00  0.00    +0.000 A 
ATOM     29  N   UNL     1      -5.638  12.667  22.227  0.00  0.00    +0.000 NA
ATOM     30  C   UNL     1      -5.063  12.614  23.438  0.00  0.00    +0.000 A 
ATOM     31  N   UNL     1      -5.917  12.535  24.535  0.00  0.00    +0.000 N 
ATOM     32  C   UNL     1      -3.687  12.602  23.620  0.00  0.00    +0.000 A 
ATOM     33  H   UNL     1      -6.862  12.645  24.171  0.00  0.00    +0.000 HD
ATOM     34  H   UNL     1      -5.696  13.239  25.228  0.00  0.00    +0.000 HD
ENDBRANCH  25  26
ENDBRANCH   9  25
TORSDOF 5
ENDMDL
MODEL 2
REMARK VINA RESULT:      -8.7      0.799      1.437
REMARK  Name = 
REMARK  6 active torsions:
REMARK  status: ('A' for Active; 'I' for Inactive)
REMARK    1  A    between atoms: C_1  and  O_2
REMARK    2  A    between atoms: O_2  and  C_3
REMARK    3  A    between atoms: C_9  and  N_10
REMARK    4  A    between atoms: N_13  and  C_14
REMARK    5  A    between atoms: N_22  and  C_23
REMARK    6  A    between atoms: C_23  and  C_24
REMARK                            x       y       z     vdW  Elec       q    Type
REMARK                         _______ _______ _______ _____ _____    ______ ____
ROOT
ATOM      1  C   UNL     1       1.102   9.213  20.532  0.00  0.00    +0.000 A 
ATOM      2  C   UNL     1       1.377   9.940  19.355  0.00  0.00    +0.000 A 
ATOM      3  C   UNL     1       1.066  11.285  19.208  0.00  0.00    +0.000 A 
ATOM      4  C   UNL     1       0.364  11.953  20.197  0.00  0.00    +0.000 A 
ATOM      5  C   UNL     1      -0.076  11.212  21.302  0.00  0.00    +0.000 A 
ATOM      6  C   UNL     1       0.276   9.861  21.496  0.00  0.00    +0.000 A 
ATOM      7  C   UNL     1      -0.327   9.472  22.730  0.00  0.00    +0.000 A 
ATOM      8  C   UNL     1      -1.040  10.543  23.224  0.00  0.00    +0.000 A 
ATOM      9  N   UNL     1      -0.874  11.599  22.363  0.00  0.00    +0.000 N 
ENDROOT
BRANCH   1  13
ATOM     10  N   UNL     1       2.779   5.944  20.091  0.00  0.00    +0.000 N 
ATOM     11  C   UNL     1       2.168   7.132  19.712  0.00  0.00    +0.000 C 
ATOM     12  O   UNL     1       2.100   7.471  18.536  0.00  0.00    +0.000 OA
ATOM     13  N   UNL     1       1.665   7.905  20.755  0.00  0.00    +0.000 N 
ATOM     14  H   UNL     1       2.441   5.469  20.918  0.00  0.00    +0.000 HD
ATOM     15  H   UNL     1       2.002   7.715  21.688  0.00  0.00    +0.000 HD
BRANCH  10  22
ATOM     16  C   UNL     1       2.838   4.155  18.379  0.00  0.00    +0.000 A 
ATOM     17  C   UNL     1       3.565   3.418  17.423  0.00  0.00    +0.000 A 
ATOM     18  C   UNL     1       4.933   3.622  17.234  0.00  0.00    +0.000 A 
ATOM     19  C   UNL     1       5.591   4.552  18.018  0.00  0.00    +0.000 A 
ATOM     20 BR   UNL     1       7.439   4.863  17.764  0.00  0.00    +0.000 Br
ATOM     21  C   UNL     1       4.893   5.273  18.983  0.00  0.00    +0.000 A 
ATOM     22  C   UNL     1       3.503   5.127  19.154  0.00  0.00    +0.000 A 
BRANCH  16  24
ATOM     23  C   UNL     1       1.037   2.645  18.705  0.00  0.00    +0.000 C 
ATOM     24  O   UNL     1       1.487   3.996  18.586  0.00  0.00    +0.000 OA
ENDBRANCH  16  24
ENDBRANCH  10  22
ENDBRANCH   1  13
BRANCH   9  25
ATOM     25  C   UNL     1      -1.537  12.896  22.500  0.00  0.00    +0.000 C 
BRANCH  25  26
ATOM     26  C   UNL     1      -2.950  12.862  21.979  0.00  0.00    +0.000 A 
ATOM     27  C   UNL     1      -4.047  12.856  22.842  0.00  0.00    +0.000 A 
ATOM     28  C   UNL     1      -5.317  12.754  22.296  0.00  0.00    +0.000 A 
ATOM     29  N   UNL     1      -5.562  12.660  20.972  0.00  0.00    +0.000 NA
ATOM     30  C   UNL     1      -4.502  12.674  20.149  0.00  0.00    +0.000 A 
ATOM     31  N   UNL     1      -4.766  12.595  18.784  0.00  0.00    +0.000 N 
ATOM     32  C   UNL     1      -3.196  12.796  20.604  0.00  0.00    +0.000 A 
ATOM     33  H   UNL     1      -5.766  12.427  18.694  0.00  0.00    +0.000 HD
ATOM     34  H   UNL     1      -4.221  11.863  18.343  0.00  0.00    +0.000 HD
ENDBRANCH  25  26
ENDBRANCH   9  25
TORSDOF 5
ENDMDL
MODEL 3
REMARK VINA RESULT:      -8.5      4.417      9.349
REMARK  Name = 
REMARK  6 active torsions:
REMARK  status: ('A' for Active; 'I' for Inactive)
REMARK    1  A    between atoms: C_1  and  O_2
REMARK    2  A    between atoms: O_2  and  C_3
REMARK    3  A    between atoms: C_9  and  N_10
REMARK    4  A    between atoms: N_13  and  C_14
REMARK    5  A    between atoms: N_22  and  C_23
REMARK    6  A    between atoms: C_23  and  C_24
REMARK                            x       y       z     vdW  Elec       q    Type
REMARK                         _______ _______ _______ _____ _____    ______ ____
ROOT
ATOM      1  C   UNL     1       1.676   9.278  18.405  0.00  0.00    +0.000 A 
ATOM      2  C   UNL     1       2.651   8.911  17.454  0.00  0.00    +0.000 A 
ATOM      3  C   UNL     1       3.280   7.674  17.456  0.00  0.00    +0.000 A 
ATOM      4  C   UNL     1       3.042   6.769  18.476  0.00  0.00    +0.000 A 
ATOM      5  C   UNL     1       2.211   7.174  19.530  0.00  0.00    +0.000 A 
ATOM      6  C   UNL     1       1.522   8.403  19.520  0.00  0.00    +0.000 A 
ATOM      7  C   UNL     1       0.765   8.438  20.731  0.00  0.00    +0.000 A 
ATOM      8  C   UNL     1       1.031   7.289  21.445  0.00  0.00    +0.000 A 
ATOM      9  N   UNL     1       1.896   6.521  20.708  0.00  0.00    +0.000 N 
ENDROOT
BRANCH   1  13
ATOM     10  N   UNL     1      -1.185  11.581  17.958  0.00  0.00    +0.000 N 
ATOM     11  C   UNL     1      -0.511  10.368  17.995  0.00  0.00    +0.000 C 
ATOM     12  O   UNL     1      -1.100   9.303  17.850  0.00  0.00    +0.000 OA
ATOM     13  N   UNL     1       0.859  10.452  18.229  0.00  0.00    +0.000 N 
ATOM     14  H   UNL     1      -0.692  12.398  17.621  0.00  0.00    +0.000 HD
ATOM     15  H   UNL     1       1.219  11.311  18.618  0.00  0.00    +0.000 HD
BRANCH  10  22
ATOM     16  C   UNL     1      -3.317  11.362  16.716  0.00  0.00    +0.000 A 
ATOM     17  C   UNL     1      -4.726  11.378  16.717  0.00  0.00    +0.000 A 
ATOM     18  C   UNL     1      -5.448  11.686  17.871  0.00  0.00    +0.000 A 
ATOM     19  C   UNL     1      -4.765  12.004  19.030  0.00  0.00    +0.000 A 
ATOM     20 BR   UNL     1      -5.722  12.401  20.612  0.00  0.00    +0.000 Br
ATOM     21  C   UNL     1      -3.373  12.016  19.041  0.00  0.00    +0.000 A 
ATOM     22  C   UNL     1      -2.621  11.653  17.907  0.00  0.00    +0.000 A 
BRANCH  16  24
ATOM     23  C   UNL     1      -3.209  10.206  14.646  0.00  0.00    +0.000 C 
ATOM     24  O   UNL     1      -2.567  11.050  15.605  0.00  0.00    +0.000 OA
ENDBRANCH  16  24
ENDBRANCH  10  22
ENDBRANCH   1  13
BRANCH   9  25
ATOM     25  C   UNL     1       2.479   5.256  21.160  0.00  0.00    +0.000 C 
BRANCH  25  26
ATOM     26  C   UNL     1       2.161   4.124  20.219  0.00  0.00    +0.000 A 
ATOM     27  C   UNL     1       0.845   3.780  19.908  0.00  0.00    +0.000 A 
ATOM     28  C   UNL     1       0.624   2.684  19.089  0.00  0.00    +0.000 A 
ATOM     29  N   UNL     1       1.610   1.922  18.568  0.00  0.00    +0.000 NA
ATOM     30  C   UNL     1       2.873   2.265  18.866  0.00  0.00    +0.000 A 
ATOM     31  N   UNL     1       3.883   1.484  18.310  0.00  0.00    +0.000 N 
ATOM     32  C   UNL     1       3.190   3.359  19.659  0.00  0.00    +0.000 A 
ATOM     33  H   UNL     1       3.421   0.704  17.848  0.00  0.00    +0.000 HD
ATOM     34  H   UNL     1       4.538   1.169  19.015  0.00  0.00    +0.000 HD
ENDBRANCH  25  26
ENDBRANCH   9  25
TORSDOF 5
ENDMDL
MODEL 4
REMARK VINA RESULT:      -8.5      3.174      4.422
REMARK  Name = 
REMARK  6 active torsions:
REMARK  status: ('A' for Active; 'I' for Inactive)
REMARK    1  A    between atoms: C_1  and  O_2
REMARK    2  A    between atoms: O_2  and  C_3
REMARK    3  A    between atoms: C_9  and  N_10
REMARK    4  A    between atoms: N_13  and  C_14
REMARK    5  A    between atoms: N_22  and  C_23
REMARK    6  A    between atoms: C_23  and  C_24
REMARK                            x       y       z     vdW  Elec       q    Type
REMARK                         _______ _______ _______ _____ _____    ______ ____
ROOT
ATOM      1  C   UNL     1      -0.393  10.461  18.170  0.00  0.00    +0.000 A 
ATOM      2  C   UNL     1      -0.073  11.215  19.320  0.00  0.00    +0.000 A 
ATOM      3  C   UNL     1      -1.017  11.945  20.030  0.00  0.00    +0.000 A 
ATOM      4  C   UNL     1      -2.317  12.045  19.568  0.00  0.00    +0.000 A 
ATOM      5  C   UNL     1      -2.623  11.452  18.335  0.00  0.00    +0.000 A 
ATOM      6  C   UNL     1      -1.695  10.662  17.626  0.00  0.00    +0.000 A 
ATOM      7  C   UNL     1      -2.377  10.214  16.454  0.00  0.00    +0.000 A 
ATOM      8  C   UNL     1      -3.646  10.753  16.455  0.00  0.00    +0.000 A 
ATOM      9  N   UNL     1      -3.794  11.491  17.602  0.00  0.00    +0.000 N 
ENDROOT
BRANCH   1  13
ATOM     10  N   UNL     1       2.034   7.704  17.724  0.00  0.00    +0.000 N 
ATOM     11  C   UNL     1       1.261   8.633  18.409  0.00  0.00    +0.000 C 
ATOM     12  O   UNL     1       1.216   8.648  19.634  0.00  0.00    +0.000 OA
ATOM     13  N   UNL     1       0.538   9.515  17.611  0.00  0.00    +0.000 N 
ATOM     14  H   UNL     1       2.424   7.967  16.828  0.00  0.00    +0.000 HD
ATOM     15  H   UNL     1       0.398   9.267  16.642  0.00  0.00    +0.000 HD
BRANCH  10  22
ATOM     16  C   UNL     1       4.082   6.419  18.261  0.00  0.00    +0.000 A 
ATOM     17  C   UNL     1       4.708   5.385  18.986  0.00  0.00    +0.000 A 
ATOM     18  C   UNL     1       3.978   4.545  19.829  0.00  0.00    +0.000 A 
ATOM     19  C   UNL     1       2.611   4.718  19.936  0.00  0.00    +0.000 A 
ATOM     20 BR   UNL     1       1.605   3.608  21.090  0.00  0.00    +0.000 Br
ATOM     21  C   UNL     1       1.973   5.720  19.210  0.00  0.00    +0.000 A 
ATOM     22  C   UNL     1       2.693   6.617  18.397  0.00  0.00    +0.000 A 
BRANCH  16  24
ATOM     23  C   UNL     1       5.887   6.714  16.748  0.00  0.00    +0.000 C 
ATOM     24  O   UNL     1       4.766   7.278  17.431  0.00  0.00    +0.000 OA
ENDBRANCH  16  24
ENDBRANCH  10  22
ENDBRANCH   1  13
BRANCH   9  25
ATOM     25  C   UNL     1      -4.978  12.285  17.933  0.00  0.00    +0.000 C 
BRANCH  25  26
ATOM     26  C   UNL     1      -5.835  11.608  18.971  0.00  0.00    +0.000 A 
ATOM     27  C   UNL     1      -6.106  12.211  20.200  0.00  0.00    +0.000 A 
ATOM     28  C   UNL     1      -6.845  11.502  21.135  0.00  0.00    +0.000 A 
ATOM     29  N   UNL     1      -7.324  10.257  20.929  0.00  0.00    +0.000 NA
ATOM     30  C   UNL     1      -7.066   9.689  19.741  0.00  0.00    +0.000 A 
ATOM     31  N   UNL     1      -7.579   8.411  19.532  0.00  0.00    +0.000 N 
ATOM     32  C   UNL     1      -6.354  10.331  18.738  0.00  0.00    +0.000 A 
ATOM     33  H   UNL     1      -7.981   8.114  20.419  0.00  0.00    +0.000 HD
ATOM     34  H   UNL     1      -6.862   7.772  19.211  0.00  0.00    +0.000 HD
ENDBRANCH  25  26
ENDBRANCH   9  25
TORSDOF 5
ENDMDL
MODEL 5
REMARK VINA RESULT:      -8.4      1.789      2.793
REMARK  Name = 
REMARK  6 active torsions:
REMARK  status: ('A' for Active; 'I' for Inactive)
REMARK    1  A    between atoms: C_1  and  O_2
REMARK    2  A    between atoms: O_2  and  C_3
REMARK    3  A    between atoms: C_9  and  N_10
REMARK    4  A    between atoms: N_13  and  C_14
REMARK    5  A    between atoms: N_22  and  C_23
REMARK    6  A    between atoms: C_23  and  C_24
REMARK                            x       y       z     vdW  Elec       q    Type
REMARK                         _______ _______ _______ _____ _____    ______ ____
ROOT
ATOM      1  C   UNL     1       0.916   9.609  20.485  0.00  0.00    +0.000 A 
ATOM      2  C   UNL     1       0.781   8.866  21.677  0.00  0.00    +0.000 A 
ATOM      3  C   UNL     1       0.012   9.295  22.751  0.00  0.00    +0.000 A 
ATOM      4  C   UNL     1      -0.583  10.544  22.731  0.00  0.00    +0.000 A 
ATOM      5  C   UNL     1      -0.323  11.377  21.634  0.00  0.00    +0.000 A 
ATOM      6  C   UNL     1       0.409  10.941  20.511  0.00  0.00    +0.000 A 
ATOM      7  C   UNL     1       0.432  12.045  19.606  0.00  0.00    +0.000 A 
ATOM      8  C   UNL     1      -0.229  13.103  20.192  0.00  0.00    +0.000 A 
ATOM      9  N   UNL     1      -0.695  12.690  21.414  0.00  0.00    +0.000 N 
ENDROOT
BRANCH   1  13
ATOM     10  N   UNL     1       2.479   7.285  18.068  0.00  0.00    +0.000 N 
ATOM     11  C   UNL     1       2.060   7.755  19.305  0.00  0.00    +0.000 C 
ATOM     12  O   UNL     1       2.167   7.075  20.318  0.00  0.00    +0.000 OA
ATOM     13  N   UNL     1       1.498   9.029  19.301  0.00  0.00    +0.000 N 
ATOM     14  H   UNL     1       2.813   7.953  17.384  0.00  0.00    +0.000 HD
ATOM     15  H   UNL     1       1.183   9.403  18.418  0.00  0.00    +0.000 HD
BRANCH  10  22
ATOM     16  C   UNL     1       4.181   5.643  17.329  0.00  0.00    +0.000 A 
ATOM     17  C   UNL     1       4.601   4.302  17.216  0.00  0.00    +0.000 A 
ATOM     18  C   UNL     1       3.783   3.248  17.625  0.00  0.00    +0.000 A 
ATOM     19  C   UNL     1       2.526   3.525  18.130  0.00  0.00    +0.000 A 
ATOM     20 BR   UNL     1       1.410   2.114  18.713  0.00  0.00    +0.000 Br
ATOM     21  C   UNL     1       2.086   4.842  18.228  0.00  0.00    +0.000 A 
ATOM     22  C   UNL     1       2.913   5.926  17.876  0.00  0.00    +0.000 A 
BRANCH  16  24
ATOM     23  C   UNL     1       6.371   6.479  16.960  0.00  0.00    +0.000 C 
ATOM     24  O   UNL     1       4.961   6.712  16.952  0.00  0.00    +0.000 OA
ENDBRANCH  16  24
ENDBRANCH  10  22
ENDBRANCH   1  13
BRANCH   9  25
ATOM     25  C   UNL     1      -1.384  13.551  22.376  0.00  0.00    +0.000 C 
BRANCH  25  26
ATOM     26  C   UNL     1      -2.839  13.189  22.512  0.00  0.00    +0.000 A 
ATOM     27  C   UNL     1      -3.723  13.301  21.437  0.00  0.00    +0.000 A 
ATOM     28  C   UNL     1      -5.063  13.017  21.652  0.00  0.00    +0.000 A 
ATOM     29  N   UNL     1      -5.571  12.633  22.843  0.00  0.00    +0.000 NA
ATOM     30  C   UNL     1      -4.712  12.520  23.867  0.00  0.00    +0.000 A 
ATOM     31  N   UNL     1      -5.243  12.107  25.087  0.00  0.00    +0.000 N 
ATOM     32  C   UNL     1      -3.352  12.763  23.742  0.00  0.00    +0.000 A 
ATOM     33  H   UNL     1      -6.253  12.075  24.965  0.00  0.00    +0.000 HD
ATOM     34  H   UNL     1      -4.974  12.732  25.838  0.00  0.00    +0.000 HD
ENDBRANCH  25  26
ENDBRANCH   9  25
TORSDOF 5
ENDMDL
MODEL 6
REMARK VINA RESULT:      -8.4      4.357      9.503
REMARK  Name = 
REMARK  6 active torsions:
REMARK  status: ('A' for Active; 'I' for Inactive)
REMARK    1  A    between atoms: C_1  and  O_2
REMARK    2  A    between atoms: O_2  and  C_3
REMARK    3  A    between atoms: C_9  and  N_10
REMARK    4  A    between atoms: N_13  and  C_14
REMARK    5  A    between atoms: N_22  and  C_23
REMARK    6  A    between atoms: C_23  and  C_24
REMARK                            x       y       z     vdW  Elec       q    Type
REMARK                         _______ _______ _______ _____ _____    ______ ____
ROOT
ATOM      1  C   UNL     1       0.834  10.084  19.394  0.00  0.00    +0.000 A 
ATOM      2  C   UNL     1      -0.065  10.201  20.475  0.00  0.00    +0.000 A 
ATOM      3  C   UNL     1      -0.132   9.273  21.506  0.00  0.00    +0.000 A 
ATOM      4  C   UNL     1       0.629   8.118  21.458  0.00  0.00    +0.000 A 
ATOM      5  C   UNL     1       1.402   7.889  20.311  0.00  0.00    +0.000 A 
ATOM      6  C   UNL     1       1.525   8.842  19.280  0.00  0.00    +0.000 A 
ATOM      7  C   UNL     1       2.408   8.266  18.317  0.00  0.00    +0.000 A 
ATOM      8  C   UNL     1       2.759   7.004  18.747  0.00  0.00    +0.000 A 
ATOM      9  N   UNL     1       2.159   6.786  19.961  0.00  0.00    +0.000 N 
ENDROOT
BRANCH   1  13
ATOM     10  N   UNL     1       1.994  13.247  17.865  0.00  0.00    +0.000 N 
ATOM     11  C   UNL     1       1.752  12.326  18.875  0.00  0.00    +0.000 C 
ATOM     12  O   UNL     1       2.140  12.516  20.022  0.00  0.00    +0.000 OA
ATOM     13  N   UNL     1       1.064  11.179  18.487  0.00  0.00    +0.000 N 
ATOM     14  H   UNL     1       1.325  13.324  17.110  0.00  0.00    +0.000 HD
ATOM     15  H   UNL     1       1.032  10.960  17.502  0.00  0.00    +0.000 HD
BRANCH  10  22
ATOM     16  C   UNL     1       2.303  15.635  18.445  0.00  0.00    +0.000 A 
ATOM     17  C   UNL     1       3.170  16.718  18.696  0.00  0.00    +0.000 A 
ATOM     18  C   UNL     1       4.554  16.586  18.566  0.00  0.00    +0.000 A 
ATOM     19  C   UNL     1       5.081  15.374  18.161  0.00  0.00    +0.000 A 
ATOM     20 BR   UNL     1       6.954  15.165  18.001  0.00  0.00    +0.000 Br
ATOM     21  C   UNL     1       4.239  14.301  17.886  0.00  0.00    +0.000 A 
ATOM     22  C   UNL     1       2.845  14.390  18.064  0.00  0.00    +0.000 A 
BRANCH  16  24
ATOM     23  C   UNL     1       0.468  16.463  19.701  0.00  0.00    +0.000 C 
ATOM     24  O   UNL     1       0.936  15.718  18.575  0.00  0.00    +0.000 OA
ENDBRANCH  16  24
ENDBRANCH  10  22
ENDBRANCH   1  13
BRANCH   9  25
ATOM     25  C   UNL     1       2.226   5.530  20.709  0.00  0.00    +0.000 C 
BRANCH  25  26
ATOM     26  C   UNL     1       2.119   4.331  19.803  0.00  0.00    +0.000 A 
ATOM     27  C   UNL     1       0.898   3.696  19.574  0.00  0.00    +0.000 A 
ATOM     28  C   UNL     1       0.884   2.557  18.783  0.00  0.00    +0.000 A 
ATOM     29  N   UNL     1       1.985   2.021  18.215  0.00  0.00    +0.000 NA
ATOM     30  C   UNL     1       3.153   2.644  18.434  0.00  0.00    +0.000 A 
ATOM     31  N   UNL     1       4.281   2.093  17.829  0.00  0.00    +0.000 N 
ATOM     32  C   UNL     1       3.260   3.801  19.193  0.00  0.00    +0.000 A 
ATOM     33  H   UNL     1       3.980   1.218  17.405  0.00  0.00    +0.000 HD
ATOM     34  H   UNL     1       5.027   1.950  18.499  0.00  0.00    +0.000 HD
ENDBRANCH  25  26
ENDBRANCH   9  25
TORSDOF 5
ENDMDL
MODEL 7
REMARK VINA RESULT:      -8.3      4.955      9.635
REMARK  Name = 
REMARK  6 active torsions:
REMARK  status: ('A' for Active; 'I' for Inactive)
REMARK    1  A    between atoms: C_1  and  O_2
REMARK    2  A    between atoms: O_2  and  C_3
REMARK    3  A    between atoms: C_9  and  N_10
REMARK    4  A    between atoms: N_13  and  C_14
REMARK    5  A    between atoms: N_22  and  C_23
REMARK    6  A    between atoms: C_23  and  C_24
REMARK                            x       y       z     vdW  Elec       q    Type
REMARK                         _______ _______ _______ _____ _____    ______ ____
ROOT
ATOM      1  C   UNL     1       0.653   9.781  19.302  0.00  0.00    +0.000 A 
ATOM      2  C   UNL     1       0.049   9.474  20.539  0.00  0.00    +0.000 A 
ATOM      3  C   UNL     1       0.513   8.470  21.377  0.00  0.00    +0.000 A 
ATOM      4  C   UNL     1       1.548   7.644  20.974  0.00  0.00    +0.000 A 
ATOM      5  C   UNL     1       2.053   7.812  19.677  0.00  0.00    +0.000 A 
ATOM      6  C   UNL     1       1.633   8.859  18.832  0.00  0.00    +0.000 A 
ATOM      7  C   UNL     1       2.388   8.717  17.628  0.00  0.00    +0.000 A 
ATOM      8  C   UNL     1       3.192   7.603  17.746  0.00  0.00    +0.000 A 
ATOM      9  N   UNL     1       2.996   7.067  18.993  0.00  0.00    +0.000 N 
ENDROOT
BRANCH   1  13
ATOM     10  N   UNL     1       0.235  13.315  18.287  0.00  0.00    +0.000 N 
ATOM     11  C   UNL     1       0.492  12.248  19.138  0.00  0.00    +0.000 C 
ATOM     12  O   UNL     1       0.863  12.425  20.293  0.00  0.00    +0.000 OA
ATOM     13  N   UNL     1       0.320  10.984  18.581  0.00  0.00    +0.000 N 
ATOM     14  H   UNL     1      -0.468  13.201  17.568  0.00  0.00    +0.000 HD
ATOM     15  H   UNL     1       0.297  10.912  17.574  0.00  0.00    +0.000 HD
BRANCH  10  22
ATOM     16  C   UNL     1       1.821  15.212  18.432  0.00  0.00    +0.000 A 
ATOM     17  C   UNL     1       2.066  16.565  18.743  0.00  0.00    +0.000 A 
ATOM     18  C   UNL     1       1.067  17.380  19.277  0.00  0.00    +0.000 A 
ATOM     19  C   UNL     1      -0.182  16.841  19.526  0.00  0.00    +0.000 A 
ATOM     20 BR   UNL     1      -1.559  17.932  20.227  0.00  0.00    +0.000 Br
ATOM     21  C   UNL     1      -0.435  15.501  19.247  0.00  0.00    +0.000 A 
ATOM     22  C   UNL     1       0.538  14.673  18.655  0.00  0.00    +0.000 A 
BRANCH  16  24
ATOM     23  C   UNL     1       4.109  14.584  18.357  0.00  0.00    +0.000 C 
ATOM     24  O   UNL     1       2.774  14.378  17.891  0.00  0.00    +0.000 OA
ENDBRANCH  16  24
ENDBRANCH  10  22
ENDBRANCH   1  13
BRANCH   9  25
ATOM     25  C   UNL     1       3.612   5.829  19.473  0.00  0.00    +0.000 C 
BRANCH  25  26
ATOM     26  C   UNL     1       2.622   4.696  19.534  0.00  0.00    +0.000 A 
ATOM     27  C   UNL     1       1.956   4.245  18.392  0.00  0.00    +0.000 A 
ATOM     28  C   UNL     1       1.007   3.245  18.533  0.00  0.00    +0.000 A 
ATOM     29  N   UNL     1       0.684   2.673  19.713  0.00  0.00    +0.000 NA
ATOM     30  C   UNL     1       1.335   3.106  20.803  0.00  0.00    +0.000 A 
ATOM     31  N   UNL     1       1.008   2.498  22.012  0.00  0.00    +0.000 N 
ATOM     32  C   UNL     1       2.316   4.087  20.756  0.00  0.00    +0.000 A 
ATOM     33  H   UNL     1       0.219   1.885  21.821  0.00  0.00    +0.000 HD
ATOM     34  H   UNL     1       0.787   3.184  22.724  0.00  0.00    +0.000 HD
ENDBRANCH  25  26
ENDBRANCH   9  25
TORSDOF 5
ENDMDL
MODEL 8
REMARK VINA RESULT:      -8.2      4.344      9.483
REMARK  Name = 
REMARK  6 active torsions:
REMARK  status: ('A' for Active; 'I' for Inactive)
REMARK    1  A    between atoms: C_1  and  O_2
REMARK    2  A    between atoms: O_2  and  C_3
REMARK    3  A    between atoms: C_9  and  N_10
REMARK    4  A    between atoms: N_13  and  C_14
REMARK    5  A    between atoms: N_22  and  C_23
REMARK    6  A    between atoms: C_23  and  C_24
REMARK                            x       y       z     vdW  Elec       q    Type
REMARK                         _______ _______ _______ _____ _____    ______ ____
ROOT
ATOM      1  C   UNL     1       0.462   9.843  19.612  0.00  0.00    +0.000 A 
ATOM      2  C   UNL     1      -0.075   9.417  20.844  0.00  0.00    +0.000 A 
ATOM      3  C   UNL     1       0.456   8.364  21.576  0.00  0.00    +0.000 A 
ATOM      4  C   UNL     1       1.496   7.609  21.062  0.00  0.00    +0.000 A 
ATOM      5  C   UNL     1       1.936   7.898  19.763  0.00  0.00    +0.000 A 
ATOM      6  C   UNL     1       1.447   8.995  19.026  0.00  0.00    +0.000 A 
ATOM      7  C   UNL     1       2.149   8.976  17.783  0.00  0.00    +0.000 A 
ATOM      8  C   UNL     1       2.991   7.885  17.774  0.00  0.00    +0.000 A 
ATOM      9  N   UNL     1       2.868   7.243  18.980  0.00  0.00    +0.000 N 
ENDROOT
BRANCH   1  13
ATOM     10  N   UNL     1       0.158  13.418  18.706  0.00  0.00    +0.000 N 
ATOM     11  C   UNL     1       0.545  12.315  19.455  0.00  0.00    +0.000 C 
ATOM     12  O   UNL     1       1.279  12.428  20.430  0.00  0.00    +0.000 OA
ATOM     13  N   UNL     1       0.060  11.088  19.008  0.00  0.00    +0.000 N 
ATOM     14  H   UNL     1      -0.744  13.399  18.248  0.00  0.00    +0.000 HD
ATOM     15  H   UNL     1      -0.287  11.036  18.061  0.00  0.00    +0.000 HD
BRANCH  10  22
ATOM     16  C   UNL     1      -0.052  15.748  19.520  0.00  0.00    +0.000 A 
ATOM     17  C   UNL     1       0.545  16.997  19.786  0.00  0.00    +0.000 A 
ATOM     18  C   UNL     1       1.882  17.244  19.468  0.00  0.00    +0.000 A 
ATOM     19  C   UNL     1       2.626  16.251  18.859  0.00  0.00    +0.000 A 
ATOM     20 BR   UNL     1       4.446  16.555  18.442  0.00  0.00    +0.000 Br
ATOM     21  C   UNL     1       2.046  15.019  18.568  0.00  0.00    +0.000 A 
ATOM     22  C   UNL     1       0.717  14.725  18.930  0.00  0.00    +0.000 A 
BRANCH  16  24
ATOM     23  C   UNL     1      -2.028  16.419  20.650  0.00  0.00    +0.000 C 
ATOM     24  O   UNL     1      -1.361  15.458  19.830  0.00  0.00    +0.000 OA
ENDBRANCH  16  24
ENDBRANCH  10  22
ENDBRANCH   1  13
BRANCH   9  25
ATOM     25  C   UNL     1       3.543   5.992  19.329  0.00  0.00    +0.000 C 
BRANCH  25  26
ATOM     26  C   UNL     1       2.577   4.840  19.418  0.00  0.00    +0.000 A 
ATOM     27  C   UNL     1       1.883   4.380  18.298  0.00  0.00    +0.000 A 
ATOM     28  C   UNL     1       0.959   3.360  18.465  0.00  0.00    +0.000 A 
ATOM     29  N   UNL     1       0.686   2.779  19.653  0.00  0.00    +0.000 NA
ATOM     30  C   UNL     1       1.364   3.221  20.723  0.00  0.00    +0.000 A 
ATOM     31  N   UNL     1       1.088   2.603  21.940  0.00  0.00    +0.000 N 
ATOM     32  C   UNL     1       2.323   4.221  20.647  0.00  0.00    +0.000 A 
ATOM     33  H   UNL     1       0.305   1.975  21.772  0.00  0.00    +0.000 HD
ATOM     34  H   UNL     1       0.878   3.282  22.661  0.00  0.00    +0.000 HD
ENDBRANCH  25  26
ENDBRANCH   9  25
TORSDOF 5
ENDMDL
MODEL 9
REMARK VINA RESULT:      -8.2      1.831      3.020
REMARK  Name = 
REMARK  6 active torsions:
REMARK  status: ('A' for Active; 'I' for Inactive)
REMARK    1  A    between atoms: C_1  and  O_2
REMARK    2  A    between atoms: O_2  and  C_3
REMARK    3  A    between atoms: C_9  and  N_10
REMARK    4  A    between atoms: N_13  and  C_14
REMARK    5  A    between atoms: N_22  and  C_23
REMARK    6  A    between atoms: C_23  and  C_24
REMARK                            x       y       z     vdW  Elec       q    Type
REMARK                         _______ _______ _______ _____ _____    ______ ____
ROOT
ATOM      1  C   UNL     1       0.711   9.654  20.711  0.00  0.00    +0.000 A 
ATOM      2  C   UNL     1       0.535   8.855  21.860  0.00  0.00    +0.000 A 
ATOM      3  C   UNL     1      -0.227   9.255  22.949  0.00  0.00    +0.000 A 
ATOM      4  C   UNL     1      -0.772  10.527  22.992  0.00  0.00    +0.000 A 
ATOM      5  C   UNL     1      -0.469  11.406  21.943  0.00  0.00    +0.000 A 
ATOM      6  C   UNL     1       0.257  11.002  20.805  0.00  0.00    +0.000 A 
ATOM      7  C   UNL     1       0.333  12.151  19.960  0.00  0.00    +0.000 A 
ATOM      8  C   UNL     1      -0.292  13.202  20.597  0.00  0.00    +0.000 A 
ATOM      9  N   UNL     1      -0.787  12.743  21.791  0.00  0.00    +0.000 N 
ENDROOT
BRANCH   1  13
ATOM     10  N   UNL     1       2.312   7.437  18.219  0.00  0.00    +0.000 N 
ATOM     11  C   UNL     1       1.911   7.874  19.474  0.00  0.00    +0.000 C 
ATOM     12  O   UNL     1       2.089   7.192  20.477  0.00  0.00    +0.000 OA
ATOM     13  N   UNL     1       1.282   9.115  19.502  0.00  0.00    +0.000 N 
ATOM     14  H   UNL     1       2.586   8.127  17.531  0.00  0.00    +0.000 HD
ATOM     15  H   UNL     1       0.917   9.479  18.634  0.00  0.00    +0.000 HD
BRANCH  10  22
ATOM     16  C   UNL     1       4.109   5.894  17.494  0.00  0.00    +0.000 A 
ATOM     17  C   UNL     1       4.590   4.576  17.353  0.00  0.00    +0.000 A 
ATOM     18  C   UNL     1       3.803   3.475  17.694  0.00  0.00    +0.000 A 
ATOM     19  C   UNL     1       2.517   3.682  18.158  0.00  0.00    +0.000 A 
ATOM     20 BR   UNL     1       1.441   2.206  18.649  0.00  0.00    +0.000 Br
ATOM     21  C   UNL     1       2.017   4.975  18.282  0.00  0.00    +0.000 A 
ATOM     22  C   UNL     1       2.810   6.105  17.999  0.00  0.00    +0.000 A 
BRANCH  16  24
ATOM     23  C   UNL     1       6.273   6.821  17.198  0.00  0.00    +0.000 C 
ATOM     24  O   UNL     1       4.857   7.007  17.184  0.00  0.00    +0.000 OA
ENDBRANCH  16  24
ENDBRANCH  10  22
ENDBRANCH   1  13
BRANCH   9  25
ATOM     25  C   UNL     1      -1.450  13.578  22.793  0.00  0.00    +0.000 C 
BRANCH  25  26
ATOM     26  C   UNL     1      -2.916  13.253  22.913  0.00  0.00    +0.000 A 
ATOM     27  C   UNL     1      -3.525  13.070  24.155  0.00  0.00    +0.000 A 
ATOM     28  C   UNL     1      -4.862  12.705  24.189  0.00  0.00    +0.000 A 
ATOM     29  N   UNL     1      -5.619  12.515  23.087  0.00  0.00    +0.000 NA
ATOM     30  C   UNL     1      -5.027  12.701  21.897  0.00  0.00    +0.000 A 
ATOM     31  N   UNL     1      -5.821  12.520  20.767  0.00  0.00    +0.000 N 
ATOM     32  C   UNL     1      -3.701  13.088  21.766  0.00  0.00    +0.000 A 
ATOM     33  H   UNL     1      -6.714  12.160  21.098  0.00  0.00    +0.000 HD
ATOM     34  H   UNL     1      -5.384  11.890  20.105  0.00  0.00    +0.000 HD
ENDBRANCH  25  26
ENDBRANCH   9  25
TORSDOF 5
ENDMDL
