MODEL 1
REMARK VINA RESULT:      -7.8      0.000      0.000
REMARK  Name = 
REMARK  3 active torsions:
REMARK  status: ('A' for Active; 'I' for Inactive)
REMARK    1  A    between atoms: C_1  and  N_2
REMARK    2  A    between atoms: C_3  and  C_4
REMARK    3  A    between atoms: N_6  and  C_7
REMARK                            x       y       z     vdW  Elec       q    Type
REMARK                         _______ _______ _______ _____ _____    ______ ____
ROOT
ATOM      1  C   UNL     1       2.580   7.054  18.895  0.00  0.00    +0.000 C 
ATOM      2  O   UNL     1       3.343   7.417  18.007  0.00  0.00    +0.000 OA
ATOM      3  N   UNL     1       2.363   5.720  19.171  0.00  0.00    +0.000 N 
ATOM      4  H   UNL     1       2.067   5.532  20.117  0.00  0.00    +0.000 HD
ENDROOT
BRANCH   1   7
ATOM      5  C   UNL     1       1.237   9.811  18.087  0.00  0.00    +0.000 C 
ATOM      6  N   UNL     1       1.205   9.165  19.384  0.00  0.00    +0.000 N 
ATOM      7  C   UNL     1       1.798   7.961  19.748  0.00  0.00    +0.000 A 
ATOM      8  C   UNL     1       1.460   7.780  21.088  0.00  0.00    +0.000 A 
ATOM      9  C   UNL     1       0.688   8.868  21.543  0.00  0.00    +0.000 A 
ATOM     10  C   UNL     1       0.108   9.189  22.785  0.00  0.00    +0.000 A 
ATOM     11  C   UNL     1      -0.631  10.368  22.914  0.00  0.00    +0.000 A 
ATOM     12  C   UNL     1      -0.798  11.209  21.819  0.00  0.00    +0.000 A 
ATOM     13 CL   UNL     1      -1.722  12.653  22.002  0.00  0.00    +0.000 Cl
ATOM     14  C   UNL     1      -0.232  10.909  20.574  0.00  0.00    +0.000 A 
ATOM     15  C   UNL     1       0.522   9.724  20.459  0.00  0.00    +0.000 A 
ENDBRANCH   1   7
BRANCH   3  16
ATOM     16  C   UNL     1       3.055   4.594  18.543  0.00  0.00    +0.000 C 
ATOM     17  C   UNL     1       4.128   3.907  19.398  0.00  0.00    +0.000 C 
ATOM     18  C   UNL     1       3.876   2.421  19.625  0.00  0.00    +0.000 C 
ATOM     19  C   UNL     1       3.509   1.742  18.317  0.00  0.00    +0.000 C 
ATOM     20  N   UNL     1       2.342   2.351  17.731  0.00  0.00    +0.000 N 
ATOM     21  C   UNL     1       2.045   3.681  17.824  0.00  0.00    +0.000 C 
ATOM     22  O   UNL     1       1.043   4.126  17.263  0.00  0.00    +0.000 OA
ATOM     23  H   UNL     1       1.696   1.798  17.181  0.00  0.00    +0.000 HD
ENDBRANCH   3  16
TORSDOF 2
ENDMDL
MODEL 2
REMARK VINA RESULT:      -7.6      3.170      4.190
REMARK  Name = 
REMARK  3 active torsions:
REMARK  status: ('A' for Active; 'I' for Inactive)
REMARK    1  A    between atoms: C_1  and  N_2
REMARK    2  A    between atoms: C_3  and  C_4
REMARK    3  A    between atoms: N_6  and  C_7
REMARK                            x       y       z     vdW  Elec       q    Type
REMARK                         _______ _______ _______ _____ _____    ______ ____
ROOT
ATOM      1  C   UNL     1       3.579   5.419  17.769  0.00  0.00    +0.000 C 
ATOM      2  O   UNL     1       3.143   4.288  17.586  0.00  0.00    +0.000 OA
ATOM      3  N   UNL     1       4.837   5.794  17.348  0.00  0.00    +0.000 N 
ATOM      4  H   UNL     1       4.945   6.783  17.180  0.00  0.00    +0.000 HD
ENDROOT
BRANCH   1   7
ATOM      5  C   UNL     1       2.374   5.377  20.704  0.00  0.00    +0.000 C 
ATOM      6  N   UNL     1       2.333   6.469  19.752  0.00  0.00    +0.000 N 
ATOM      7  C   UNL     1       2.851   6.493  18.462  0.00  0.00    +0.000 A 
ATOM      8  C   UNL     1       2.565   7.768  17.978  0.00  0.00    +0.000 A 
ATOM      9  C   UNL     1       1.864   8.508  18.951  0.00  0.00    +0.000 A 
ATOM     10  C   UNL     1       1.335   9.813  18.978  0.00  0.00    +0.000 A 
ATOM     11  C   UNL     1       0.689  10.269  20.131  0.00  0.00    +0.000 A 
ATOM     12  C   UNL     1       0.580   9.440  21.243  0.00  0.00    +0.000 A 
ATOM     13 CL   UNL     1      -0.214  10.030  22.655  0.00  0.00    +0.000 Cl
ATOM     14  C   UNL     1       1.099   8.140  21.239  0.00  0.00    +0.000 A 
ATOM     15  C   UNL     1       1.737   7.687  20.067  0.00  0.00    +0.000 A 
ENDBRANCH   1   7
BRANCH   3  16
ATOM     16  C   UNL     1       5.758   4.968  16.567  0.00  0.00    +0.000 C 
ATOM     17  C   UNL     1       5.112   4.062  15.510  0.00  0.00    +0.000 C 
ATOM     18  C   UNL     1       5.612   4.317  14.093  0.00  0.00    +0.000 C 
ATOM     19  C   UNL     1       7.127   4.410  14.076  0.00  0.00    +0.000 C 
ATOM     20  N   UNL     1       7.588   5.457  14.951  0.00  0.00    +0.000 N 
ATOM     21  C   UNL     1       6.977   5.798  16.123  0.00  0.00    +0.000 C 
ATOM     22  O   UNL     1       7.458   6.685  16.830  0.00  0.00    +0.000 OA
ATOM     23  H   UNL     1       8.432   5.972  14.735  0.00  0.00    +0.000 HD
ENDBRANCH   3  16
TORSDOF 2
ENDMDL
MODEL 3
REMARK VINA RESULT:      -7.5      2.353      2.752
REMARK  Name = 
REMARK  3 active torsions:
REMARK  status: ('A' for Active; 'I' for Inactive)
REMARK    1  A    between atoms: C_1  and  N_2
REMARK    2  A    between atoms: C_3  and  C_4
REMARK    3  A    between atoms: N_6  and  C_7
REMARK                            x       y       z     vdW  Elec       q    Type
REMARK                         _______ _______ _______ _____ _____    ______ ____
ROOT
ATOM      1  C   UNL     1       2.643   6.231  18.704  0.00  0.00    +0.000 C 
ATOM      2  O   UNL     1       2.044   5.268  18.239  0.00  0.00    +0.000 OA
ATOM      3  N   UNL     1       4.003   6.394  18.540  0.00  0.00    +0.000 N 
ATOM      4  H   UNL     1       4.318   7.351  18.591  0.00  0.00    +0.000 HD
ENDROOT
BRANCH   1   7
ATOM      5  C   UNL     1       1.923   9.176  17.769  0.00  0.00    +0.000 C 
ATOM      6  N   UNL     1       1.698   8.588  19.075  0.00  0.00    +0.000 N 
ATOM      7  C   UNL     1       2.019   7.301  19.495  0.00  0.00    +0.000 A 
ATOM      8  C   UNL     1       1.586   7.232  20.817  0.00  0.00    +0.000 A 
ATOM      9  C   UNL     1       1.027   8.466  21.209  0.00  0.00    +0.000 A 
ATOM     10  C   UNL     1       0.464   8.934  22.411  0.00  0.00    +0.000 A 
ATOM     11  C   UNL     1      -0.029  10.240  22.477  0.00  0.00    +0.000 A 
ATOM     12  C   UNL     1       0.030  11.064  21.358  0.00  0.00    +0.000 A 
ATOM     13 CL   UNL     1      -0.592  12.668  21.462  0.00  0.00    +0.000 Cl
ATOM     14  C   UNL     1       0.585  10.619  20.151  0.00  0.00    +0.000 A 
ATOM     15  C   UNL     1       1.090   9.305  20.101  0.00  0.00    +0.000 A 
ENDBRANCH   1   7
BRANCH   3  16
ATOM     16  C   UNL     1       4.876   5.536  17.739  0.00  0.00    +0.000 C 
ATOM     17  C   UNL     1       5.670   6.238  16.629  0.00  0.00    +0.000 C 
ATOM     18  C   UNL     1       7.180   6.075  16.756  0.00  0.00    +0.000 C 
ATOM     19  C   UNL     1       7.533   4.625  17.033  0.00  0.00    +0.000 C 
ATOM     20  N   UNL     1       6.890   4.159  18.235  0.00  0.00    +0.000 N 
ATOM     21  C   UNL     1       5.655   4.567  18.648  0.00  0.00    +0.000 C 
ATOM     22  O   UNL     1       5.163   4.092  19.673  0.00  0.00    +0.000 OA
ATOM     23  H   UNL     1       7.335   3.460  18.817  0.00  0.00    +0.000 HD
ENDBRANCH   3  16
TORSDOF 2
ENDMDL
MODEL 4
REMARK VINA RESULT:      -7.1      2.488      3.474
REMARK  Name = 
REMARK  3 active torsions:
REMARK  status: ('A' for Active; 'I' for Inactive)
REMARK    1  A    between atoms: C_1  and  N_2
REMARK    2  A    between atoms: C_3  and  C_4
REMARK    3  A    between atoms: N_6  and  C_7
REMARK                            x       y       z     vdW  Elec       q    Type
REMARK                         _______ _______ _______ _____ _____    ______ ____
ROOT
ATOM      1  C   UNL     1       2.745   6.281  18.185  0.00  0.00    +0.000 C 
ATOM      2  O   UNL     1       2.091   5.287  17.890  0.00  0.00    +0.000 OA
ATOM      3  N   UNL     1       4.122   6.300  18.105  0.00  0.00    +0.000 N 
ATOM      4  H   UNL     1       4.520   7.217  17.975  0.00  0.00    +0.000 HD
ENDROOT
BRANCH   1   7
ATOM      5  C   UNL     1       1.505   6.880  21.043  0.00  0.00    +0.000 C 
ATOM      6  N   UNL     1       1.637   7.801  19.931  0.00  0.00    +0.000 N 
ATOM      7  C   UNL     1       2.172   7.544  18.673  0.00  0.00    +0.000 A 
ATOM      8  C   UNL     1       2.082   8.753  17.986  0.00  0.00    +0.000 A 
ATOM      9  C   UNL     1       1.482   9.731  18.804  0.00  0.00    +0.000 A 
ATOM     10  C   UNL     1       1.149  11.085  18.607  0.00  0.00    +0.000 A 
ATOM     11  C   UNL     1       0.560  11.806  19.649  0.00  0.00    +0.000 A 
ATOM     12  C   UNL     1       0.314  11.191  20.872  0.00  0.00    +0.000 A 
ATOM     13 CL   UNL     1      -0.406  12.105  22.143  0.00  0.00    +0.000 Cl
ATOM     14  C   UNL     1       0.639   9.846  21.091  0.00  0.00    +0.000 A 
ATOM     15  C   UNL     1       1.220   9.125  20.029  0.00  0.00    +0.000 A 
ENDBRANCH   1   7
BRANCH   3  16
ATOM     16  C   UNL     1       4.961   5.222  17.582  0.00  0.00    +0.000 C 
ATOM     17  C   UNL     1       5.273   5.284  16.081  0.00  0.00    +0.000 C 
ATOM     18  C   UNL     1       6.763   5.340  15.763  0.00  0.00    +0.000 C 
ATOM     19  C   UNL     1       7.515   4.299  16.572  0.00  0.00    +0.000 C 
ATOM     20  N   UNL     1       7.310   4.497  17.984  0.00  0.00    +0.000 N 
ATOM     21  C   UNL     1       6.147   4.960  18.530  0.00  0.00    +0.000 C 
ATOM     22  O   UNL     1       6.044   5.067  19.753  0.00  0.00    +0.000 OA
ATOM     23  H   UNL     1       8.037   4.259  18.647  0.00  0.00    +0.000 HD
ENDBRANCH   3  16
TORSDOF 2
ENDMDL
MODEL 5
REMARK VINA RESULT:      -7.1      1.032      1.091
REMARK  Name = 
REMARK  3 active torsions:
REMARK  status: ('A' for Active; 'I' for Inactive)
REMARK    1  A    between atoms: C_1  and  N_2
REMARK    2  A    between atoms: C_3  and  C_4
REMARK    3  A    between atoms: N_6  and  C_7
REMARK                            x       y       z     vdW  Elec       q    Type
REMARK                         _______ _______ _______ _____ _____    ______ ____
ROOT
ATOM      1  C   UNL     1       2.229   7.927  18.476  0.00  0.00    +0.000 C 
ATOM      2  O   UNL     1       2.670   8.472  17.471  0.00  0.00    +0.000 OA
ATOM      3  N   UNL     1       2.386   6.576  18.704  0.00  0.00    +0.000 N 
ATOM      4  H   UNL     1       2.360   6.310  19.676  0.00  0.00    +0.000 HD
ENDROOT
BRANCH   1   7
ATOM      5  C   UNL     1       0.386  10.494  18.205  0.00  0.00    +0.000 C 
ATOM      6  N   UNL     1       0.662   9.734  19.407  0.00  0.00    +0.000 N 
ATOM      7  C   UNL     1       1.475   8.613  19.536  0.00  0.00    +0.000 A 
ATOM      8  C   UNL     1       1.392   8.257  20.881  0.00  0.00    +0.000 A 
ATOM      9  C   UNL     1       0.556   9.159  21.570  0.00  0.00    +0.000 A 
ATOM     10  C   UNL     1       0.149   9.266  22.913  0.00  0.00    +0.000 A 
ATOM     11  C   UNL     1      -0.721  10.293  23.287  0.00  0.00    +0.000 A 
ATOM     12  C   UNL     1      -1.187  11.194  22.335  0.00  0.00    +0.000 A 
ATOM     13 CL   UNL     1      -2.267  12.447  22.821  0.00  0.00    +0.000 Cl
ATOM     14  C   UNL     1      -0.796  11.105  20.993  0.00  0.00    +0.000 A 
ATOM     15  C   UNL     1       0.092  10.074  20.630  0.00  0.00    +0.000 A 
ENDBRANCH   1   7
BRANCH   3  16
ATOM     16  C   UNL     1       3.154   5.653  17.868  0.00  0.00    +0.000 C 
ATOM     17  C   UNL     1       4.626   5.464  18.257  0.00  0.00    +0.000 C 
ATOM     18  C   UNL     1       4.999   4.020  18.572  0.00  0.00    +0.000 C 
ATOM     19  C   UNL     1       4.452   3.089  17.506  0.00  0.00    +0.000 C 
ATOM     20  N   UNL     1       3.021   3.210  17.401  0.00  0.00    +0.000 N 
ATOM     21  C   UNL     1       2.337   4.377  17.591  0.00  0.00    +0.000 C 
ATOM     22  O   UNL     1       1.113   4.400  17.448  0.00  0.00    +0.000 OA
ATOM     23  H   UNL     1       2.455   2.412  17.140  0.00  0.00    +0.000 HD
ENDBRANCH   3  16
TORSDOF 2
ENDMDL
MODEL 6
REMARK VINA RESULT:      -7.1      4.218      5.484
REMARK  Name = 
REMARK  3 active torsions:
REMARK  status: ('A' for Active; 'I' for Inactive)
REMARK    1  A    between atoms: C_1  and  N_2
REMARK    2  A    between atoms: C_3  and  C_4
REMARK    3  A    between atoms: N_6  and  C_7
REMARK                            x       y       z     vdW  Elec       q    Type
REMARK                         _______ _______ _______ _____ _____    ______ ____
ROOT
ATOM      1  C   UNL     1       5.323   4.989  16.782  0.00  0.00    +0.000 C 
ATOM      2  O   UNL     1       6.190   4.339  17.354  0.00  0.00    +0.000 OA
ATOM      3  N   UNL     1       5.176   4.962  15.411  0.00  0.00    +0.000 N 
ATOM      4  H   UNL     1       4.246   5.181  15.086  0.00  0.00    +0.000 HD
ENDROOT
BRANCH   1   7
ATOM      5  C   UNL     1       3.840   4.521  19.546  0.00  0.00    +0.000 C 
ATOM      6  N   UNL     1       3.724   5.670  18.671  0.00  0.00    +0.000 N 
ATOM      7  C   UNL     1       4.365   5.879  17.453  0.00  0.00    +0.000 A 
ATOM      8  C   UNL     1       3.930   7.132  17.025  0.00  0.00    +0.000 A 
ATOM      9  C   UNL     1       3.021   7.674  17.956  0.00  0.00    +0.000 A 
ATOM     10  C   UNL     1       2.291   8.876  18.007  0.00  0.00    +0.000 A 
ATOM     11  C   UNL     1       1.463   9.131  19.103  0.00  0.00    +0.000 A 
ATOM     12  C   UNL     1       1.372   8.206  20.138  0.00  0.00    +0.000 A 
ATOM     13 CL   UNL     1       0.350   8.549  21.483  0.00  0.00    +0.000 Cl
ATOM     14  C   UNL     1       2.090   7.005  20.109  0.00  0.00    +0.000 A 
ATOM     15  C   UNL     1       2.911   6.752  18.993  0.00  0.00    +0.000 A 
ENDBRANCH   1   7
BRANCH   3  16
ATOM     16  C   UNL     1       5.930   4.114  14.487  0.00  0.00    +0.000 C 
ATOM     17  C   UNL     1       5.096   3.334  13.462  0.00  0.00    +0.000 C 
ATOM     18  C   UNL     1       5.462   3.637  12.013  0.00  0.00    +0.000 C 
ATOM     19  C   UNL     1       6.968   3.606  11.831  0.00  0.00    +0.000 C 
ATOM     20  N   UNL     1       7.612   4.553  12.705  0.00  0.00    +0.000 N 
ATOM     21  C   UNL     1       7.163   4.868  13.955  0.00  0.00    +0.000 C 
ATOM     22  O   UNL     1       7.794   5.665  14.651  0.00  0.00    +0.000 OA
ATOM     23  H   UNL     1       8.471   5.009  12.424  0.00  0.00    +0.000 HD
ENDBRANCH   3  16
TORSDOF 2
ENDMDL
MODEL 7
REMARK VINA RESULT:      -7.0      2.760      3.373
REMARK  Name = 
REMARK  3 active torsions:
REMARK  status: ('A' for Active; 'I' for Inactive)
REMARK    1  A    between atoms: C_1  and  N_2
REMARK    2  A    between atoms: C_3  and  C_4
REMARK    3  A    between atoms: N_6  and  C_7
REMARK                            x       y       z     vdW  Elec       q    Type
REMARK                         _______ _______ _______ _____ _____    ______ ____
ROOT
ATOM      1  C   UNL     1       3.392   5.685  18.912  0.00  0.00    +0.000 C 
ATOM      2  O   UNL     1       3.177   4.490  19.080  0.00  0.00    +0.000 OA
ATOM      3  N   UNL     1       4.470   6.138  18.182  0.00  0.00    +0.000 N 
ATOM      4  H   UNL     1       4.345   7.052  17.775  0.00  0.00    +0.000 HD
ENDROOT
BRANCH   1   7
ATOM      5  C   UNL     1       2.585   8.423  17.528  0.00  0.00    +0.000 C 
ATOM      6  N   UNL     1       2.211   7.963  18.851  0.00  0.00    +0.000 N 
ATOM      7  C   UNL     1       2.567   6.768  19.467  0.00  0.00    +0.000 A 
ATOM      8  C   UNL     1       1.942   6.802  20.712  0.00  0.00    +0.000 A 
ATOM      9  C   UNL     1       1.231   8.009  20.865  0.00  0.00    +0.000 A 
ATOM     10  C   UNL     1       0.452   8.547  21.907  0.00  0.00    +0.000 A 
ATOM     11  C   UNL     1      -0.150   9.797  21.739  0.00  0.00    +0.000 A 
ATOM     12  C   UNL     1       0.014  10.496  20.547  0.00  0.00    +0.000 A 
ATOM     13 CL   UNL     1      -0.746  12.032  20.362  0.00  0.00    +0.000 Cl
ATOM     14  C   UNL     1       0.782   9.979  19.497  0.00  0.00    +0.000 A 
ATOM     15  C   UNL     1       1.395   8.724  19.682  0.00  0.00    +0.000 A 
ENDBRANCH   1   7
BRANCH   3  16
ATOM     16  C   UNL     1       5.418   5.299  17.448  0.00  0.00    +0.000 C 
ATOM     17  C   UNL     1       4.832   4.484  16.288  0.00  0.00    +0.000 C 
ATOM     18  C   UNL     1       5.480   4.778  14.940  0.00  0.00    +0.000 C 
ATOM     19  C   UNL     1       6.992   4.784  15.071  0.00  0.00    +0.000 C 
ATOM     20  N   UNL     1       7.420   5.760  16.041  0.00  0.00    +0.000 N 
ATOM     21  C   UNL     1       6.716   6.078  17.167  0.00  0.00    +0.000 C 
ATOM     22  O   UNL     1       7.172   6.901  17.963  0.00  0.00    +0.000 OA
ATOM     23  H   UNL     1       8.308   6.235  15.934  0.00  0.00    +0.000 HD
ENDBRANCH   3  16
TORSDOF 2
ENDMDL
MODEL 8
REMARK VINA RESULT:      -7.0      1.301      1.404
REMARK  Name = 
REMARK  3 active torsions:
REMARK  status: ('A' for Active; 'I' for Inactive)
REMARK    1  A    between atoms: C_1  and  N_2
REMARK    2  A    between atoms: C_3  and  C_4
REMARK    3  A    between atoms: N_6  and  C_7
REMARK                            x       y       z     vdW  Elec       q    Type
REMARK                         _______ _______ _______ _____ _____    ______ ____
ROOT
ATOM      1  C   UNL     1       2.525   6.097  19.387  0.00  0.00    +0.000 C 
ATOM      2  O   UNL     1       3.657   5.724  19.673  0.00  0.00    +0.000 OA
ATOM      3  N   UNL     1       1.715   5.383  18.531  0.00  0.00    +0.000 N 
ATOM      4  H   UNL     1       0.727   5.530  18.669  0.00  0.00    +0.000 HD
ENDROOT
BRANCH   1   7
ATOM      5  C   UNL     1       2.147   8.846  17.850  0.00  0.00    +0.000 C 
ATOM      6  N   UNL     1       1.732   8.531  19.202  0.00  0.00    +0.000 N 
ATOM      7  C   UNL     1       1.901   7.332  19.886  0.00  0.00    +0.000 A 
ATOM      8  C   UNL     1       1.318   7.540  21.134  0.00  0.00    +0.000 A 
ATOM      9  C   UNL     1       0.818   8.855  21.222  0.00  0.00    +0.000 A 
ATOM     10  C   UNL     1       0.161   9.574  22.239  0.00  0.00    +0.000 A 
ATOM     11  C   UNL     1      -0.232  10.894  22.003  0.00  0.00    +0.000 A 
ATOM     12  C   UNL     1       0.017  11.486  20.769  0.00  0.00    +0.000 A 
ATOM     13 CL   UNL     1      -0.485  13.112  20.500  0.00  0.00    +0.000 Cl
ATOM     14  C   UNL     1       0.667  10.789  19.742  0.00  0.00    +0.000 A 
ATOM     15  C   UNL     1       1.070   9.463  19.996  0.00  0.00    +0.000 A 
ENDBRANCH   1   7
BRANCH   3  16
ATOM     16  C   UNL     1       2.032   4.082  17.941  0.00  0.00    +0.000 C 
ATOM     17  C   UNL     1       3.408   3.968  17.271  0.00  0.00    +0.000 C 
ATOM     18  C   UNL     1       4.291   2.874  17.860  0.00  0.00    +0.000 C 
ATOM     19  C   UNL     1       3.502   1.587  18.018  0.00  0.00    +0.000 C 
ATOM     20  N   UNL     1       2.351   1.789  18.860  0.00  0.00    +0.000 N 
ATOM     21  C   UNL     1       1.628   2.947  18.901  0.00  0.00    +0.000 C 
ATOM     22  O   UNL     1       0.635   3.024  19.625  0.00  0.00    +0.000 OA
ATOM     23  H   UNL     1       2.004   1.039  19.445  0.00  0.00    +0.000 HD
ENDBRANCH   3  16
TORSDOF 2
ENDMDL
MODEL 9
REMARK VINA RESULT:      -7.0      1.798      2.174
REMARK  Name = 
REMARK  3 active torsions:
REMARK  status: ('A' for Active; 'I' for Inactive)
REMARK    1  A    between atoms: C_1  and  N_2
REMARK    2  A    between atoms: C_3  and  C_4
REMARK    3  A    between atoms: N_6  and  C_7
REMARK                            x       y       z     vdW  Elec       q    Type
REMARK                         _______ _______ _______ _____ _____    ______ ____
ROOT
ATOM      1  C   UNL     1       2.328   7.766  18.619  0.00  0.00    +0.000 C 
ATOM      2  O   UNL     1       2.273   8.019  17.420  0.00  0.00    +0.000 OA
ATOM      3  N   UNL     1       3.080   6.721  19.111  0.00  0.00    +0.000 N 
ATOM      4  H   UNL     1       3.378   6.834  20.068  0.00  0.00    +0.000 HD
ENDROOT
BRANCH   1   7
ATOM      5  C   UNL     1       1.423  10.806  18.582  0.00  0.00    +0.000 C 
ATOM      6  N   UNL     1       1.202   9.836  19.636  0.00  0.00    +0.000 N 
ATOM      7  C   UNL     1       1.603   8.505  19.663  0.00  0.00    +0.000 A 
ATOM      8  C   UNL     1       1.136   8.010  20.879  0.00  0.00    +0.000 A 
ATOM      9  C   UNL     1       0.476   9.029  21.595  0.00  0.00    +0.000 A 
ATOM     10  C   UNL     1      -0.156   9.073  22.852  0.00  0.00    +0.000 A 
ATOM     11  C   UNL     1      -0.745  10.265  23.283  0.00  0.00    +0.000 A 
ATOM     12  C   UNL     1      -0.712  11.393  22.470  0.00  0.00    +0.000 A 
ATOM     13 CL   UNL     1      -1.452  12.849  23.022  0.00  0.00    +0.000 Cl
ATOM     14  C   UNL     1      -0.090  11.372  21.216  0.00  0.00    +0.000 A 
ATOM     15  C   UNL     1       0.512  10.168  20.797  0.00  0.00    +0.000 A 
ENDBRANCH   1   7
BRANCH   3  16
ATOM     16  C   UNL     1       3.965   5.861  18.324  0.00  0.00    +0.000 C 
ATOM     17  C   UNL     1       5.096   6.575  17.571  0.00  0.00    +0.000 C 
ATOM     18  C   UNL     1       6.490   6.087  17.948  0.00  0.00    +0.000 C 
ATOM     19  C   UNL     1       6.533   4.570  17.962  0.00  0.00    +0.000 C 
ATOM     20  N   UNL     1       5.564   4.036  18.884  0.00  0.00    +0.000 N 
ATOM     21  C   UNL     1       4.348   4.606  19.131  0.00  0.00    +0.000 C 
ATOM     22  O   UNL     1       3.564   4.065  19.911  0.00  0.00    +0.000 OA
ATOM     23  H   UNL     1       5.745   3.168  19.373  0.00  0.00    +0.000 HD
ENDBRANCH   3  16
TORSDOF 2
ENDMDL
