MODEL 1
REMARK VINA RESULT:      -8.5      0.000      0.000
REMARK  Name = 
REMARK  8 active torsions:
REMARK  status: ('A' for Active; 'I' for Inactive)
REMARK    1  A    between atoms: C_1  and  C_2
REMARK    2  A    between atoms: C_2  and  O_3
REMARK    3  A    between atoms: O_3  and  C_4
REMARK    4  A    between atoms: C_4  and  C_6
REMARK    5  A    between atoms: C_14  and  N_15
REMARK    6  A    between atoms: C_16  and  C_18
REMARK    7  A    between atoms: C_23  and  O_24
REMARK    8  A    between atoms: O_24  and  C_25
REMARK                            x       y       z     vdW  Elec       q    Type
REMARK                         _______ _______ _______ _____ _____    ______ ____
ROOT
ATOM      1  C   UNL     1       6.961   5.299  16.051  0.00  0.00    +0.000 A 
ATOM      2  N   UNL     1       7.705   5.486  14.912  0.00  0.00    +0.000 N 
ATOM      3  C   UNL     1       7.159   4.813  13.849  0.00  0.00    +0.000 A 
ATOM      4  C   UNL     1       7.607   4.725  12.524  0.00  0.00    +0.000 A 
ATOM      5  C   UNL     1       6.838   3.984  11.625  0.00  0.00    +0.000 A 
ATOM      6  C   UNL     1       5.679   3.342  12.043  0.00  0.00    +0.000 A 
ATOM      7  C   UNL     1       5.269   3.415  13.380  0.00  0.00    +0.000 A 
ATOM      8  C   UNL     1       6.006   4.177  14.311  0.00  0.00    +0.000 A 
ATOM      9  C   UNL     1       5.911   4.450  15.719  0.00  0.00    +0.000 A 
ATOM     10  H   UNL     1       8.534   6.063  14.866  0.00  0.00    +0.000 HD
ENDROOT
BRANCH   9  11
ATOM     11  N   UNL     1       5.012   3.996  16.679  0.00  0.00    +0.000 N 
ATOM     12  C   UNL     1       3.984   4.720  17.265  0.00  0.00    +0.000 C 
ATOM     13  O   UNL     1       3.819   5.929  17.166  0.00  0.00    +0.000 OA
ATOM     14  H   UNL     1       5.228   3.077  17.049  0.00  0.00    +0.000 HD
BRANCH  12  15
ATOM     15  C   UNL     1       3.096   3.930  18.171  0.00  0.00    +0.000 A 
ATOM     16  C   UNL     1       1.707   4.064  17.936  0.00  0.00    +0.000 A 
ATOM     17  C   UNL     1       0.763   3.394  18.713  0.00  0.00    +0.000 A 
ATOM     18  C   UNL     1       1.190   2.544  19.720  0.00  0.00    +0.000 A 
ATOM     19  C   UNL     1       2.556   2.374  19.940  0.00  0.00    +0.000 A 
ATOM     20  C   UNL     1       3.532   3.060  19.186  0.00  0.00    +0.000 A 
BRANCH  20  21
ATOM     21  O   UNL     1       4.775   2.731  19.647  0.00  0.00    +0.000 OA
ATOM     22  C   UNL     1       4.972   1.770  20.665  0.00  0.00    +0.000 C 
ENDBRANCH  20  21
ENDBRANCH  12  15
ENDBRANCH   9  11
BRANCH   1  23
ATOM     23  C   UNL     1       7.241   5.952  17.308  0.00  0.00    +0.000 C 
ATOM     24  O   UNL     1       7.068   5.453  18.413  0.00  0.00    +0.000 OA
BRANCH  23  25
ATOM     25  O   UNL     1       7.682   7.223  17.076  0.00  0.00    +0.000 OA
BRANCH  25  27
ATOM     26  C   UNL     1       8.293   9.431  17.884  0.00  0.00    +0.000 C 
ATOM     27  C   UNL     1       8.117   7.963  18.228  0.00  0.00    +0.000 C 
ENDBRANCH  25  27
ENDBRANCH  23  25
ENDBRANCH   1  23
TORSDOF 6
ENDMDL
MODEL 2
REMARK VINA RESULT:      -8.5      1.239      1.943
REMARK  Name = 
REMARK  8 active torsions:
REMARK  status: ('A' for Active; 'I' for Inactive)
REMARK    1  A    between atoms: C_1  and  C_2
REMARK    2  A    between atoms: C_2  and  O_3
REMARK    3  A    between atoms: O_3  and  C_4
REMARK    4  A    between atoms: C_4  and  C_6
REMARK    5  A    between atoms: C_14  and  N_15
REMARK    6  A    between atoms: C_16  and  C_18
REMARK    7  A    between atoms: C_23  and  O_24
REMARK    8  A    between atoms: O_24  and  C_25
REMARK                            x       y       z     vdW  Elec       q    Type
REMARK                         _______ _______ _______ _____ _____    ______ ____
ROOT
ATOM      1  C   UNL     1       6.761   5.545  16.185  0.00  0.00    +0.000 A 
ATOM      2  N   UNL     1       7.620   5.417  15.122  0.00  0.00    +0.000 N 
ATOM      3  C   UNL     1       7.022   4.753  14.081  0.00  0.00    +0.000 A 
ATOM      4  C   UNL     1       7.546   4.402  12.830  0.00  0.00    +0.000 A 
ATOM      5  C   UNL     1       6.703   3.743  11.933  0.00  0.00    +0.000 A 
ATOM      6  C   UNL     1       5.396   3.432  12.285  0.00  0.00    +0.000 A 
ATOM      7  C   UNL     1       4.904   3.762  13.555  0.00  0.00    +0.000 A 
ATOM      8  C   UNL     1       5.718   4.453  14.477  0.00  0.00    +0.000 A 
ATOM      9  C   UNL     1       5.573   4.914  15.830  0.00  0.00    +0.000 A 
ATOM     10  H   UNL     1       8.561   5.785  15.108  0.00  0.00    +0.000 HD
ENDROOT
BRANCH   9  11
ATOM     11  N   UNL     1       4.516   4.796  16.727  0.00  0.00    +0.000 N 
ATOM     12  C   UNL     1       4.109   3.646  17.387  0.00  0.00    +0.000 C 
ATOM     13  O   UNL     1       4.498   2.511  17.146  0.00  0.00    +0.000 OA
ATOM     14  H   UNL     1       3.935   5.624  16.796  0.00  0.00    +0.000 HD
BRANCH  12  15
ATOM     15  C   UNL     1       3.020   3.849  18.391  0.00  0.00    +0.000 A 
ATOM     16  C   UNL     1       2.240   2.705  18.688  0.00  0.00    +0.000 A 
ATOM     17  C   UNL     1       1.184   2.754  19.597  0.00  0.00    +0.000 A 
ATOM     18  C   UNL     1       0.910   3.938  20.260  0.00  0.00    +0.000 A 
ATOM     19  C   UNL     1       1.693   5.063  20.006  0.00  0.00    +0.000 A 
ATOM     20  C   UNL     1       2.750   5.050  19.070  0.00  0.00    +0.000 A 
BRANCH  20  21
ATOM     21  O   UNL     1       3.309   6.294  19.001  0.00  0.00    +0.000 OA
ATOM     22  C   UNL     1       2.600   7.414  18.508  0.00  0.00    +0.000 C 
ENDBRANCH  20  21
ENDBRANCH  12  15
ENDBRANCH   9  11
BRANCH   1  23
ATOM     23  C   UNL     1       7.079   6.272  17.392  0.00  0.00    +0.000 C 
ATOM     24  O   UNL     1       6.663   5.996  18.510  0.00  0.00    +0.000 OA
BRANCH  23  25
ATOM     25  O   UNL     1       7.874   7.339  17.086  0.00  0.00    +0.000 OA
BRANCH  25  27
ATOM     26  C   UNL     1       8.616   9.305  18.306  0.00  0.00    +0.000 C 
ATOM     27  C   UNL     1       7.459   8.610  17.612  0.00  0.00    +0.000 C 
ENDBRANCH  25  27
ENDBRANCH  23  25
ENDBRANCH   1  23
TORSDOF 6
ENDMDL
MODEL 3
REMARK VINA RESULT:      -8.5      1.320      1.689
REMARK  Name = 
REMARK  8 active torsions:
REMARK  status: ('A' for Active; 'I' for Inactive)
REMARK    1  A    between atoms: C_1  and  C_2
REMARK    2  A    between atoms: C_2  and  O_3
REMARK    3  A    between atoms: O_3  and  C_4
REMARK    4  A    between atoms: C_4  and  C_6
REMARK    5  A    between atoms: C_14  and  N_15
REMARK    6  A    between atoms: C_16  and  C_18
REMARK    7  A    between atoms: C_23  and  O_24
REMARK    8  A    between atoms: O_24  and  C_25
REMARK                            x       y       z     vdW  Elec       q    Type
REMARK                         _______ _______ _______ _____ _____    ______ ____
ROOT
ATOM      1  C   UNL     1       6.831   5.418  16.223  0.00  0.00    +0.000 A 
ATOM      2  N   UNL     1       7.641   5.482  15.115  0.00  0.00    +0.000 N 
ATOM      3  C   UNL     1       7.078   4.822  14.053  0.00  0.00    +0.000 A 
ATOM      4  C   UNL     1       7.574   4.635  12.756  0.00  0.00    +0.000 A 
ATOM      5  C   UNL     1       6.776   3.936  11.849  0.00  0.00    +0.000 A 
ATOM      6  C   UNL     1       5.541   3.430  12.233  0.00  0.00    +0.000 A 
ATOM      7  C   UNL     1       5.080   3.599  13.545  0.00  0.00    +0.000 A 
ATOM      8  C   UNL     1       5.847   4.323  14.481  0.00  0.00    +0.000 A 
ATOM      9  C   UNL     1       5.717   4.663  15.872  0.00  0.00    +0.000 A 
ATOM     10  H   UNL     1       8.525   5.972  15.089  0.00  0.00    +0.000 HD
ENDROOT
BRANCH   9  11
ATOM     11  N   UNL     1       4.734   4.341  16.803  0.00  0.00    +0.000 N 
ATOM     12  C   UNL     1       3.770   5.191  17.322  0.00  0.00    +0.000 C 
ATOM     13  O   UNL     1       3.743   6.407  17.184  0.00  0.00    +0.000 OA
ATOM     14  H   UNL     1       4.833   3.416  17.207  0.00  0.00    +0.000 HD
BRANCH  12  15
ATOM     15  C   UNL     1       2.763   4.532  18.210  0.00  0.00    +0.000 A 
ATOM     16  C   UNL     1       2.295   3.270  17.771  0.00  0.00    +0.000 A 
ATOM     17  C   UNL     1       1.346   2.549  18.495  0.00  0.00    +0.000 A 
ATOM     18  C   UNL     1       0.874   3.056  19.694  0.00  0.00    +0.000 A 
ATOM     19  C   UNL     1       1.354   4.280  20.157  0.00  0.00    +0.000 A 
ATOM     20  C   UNL     1       2.293   5.044  19.431  0.00  0.00    +0.000 A 
BRANCH  20  21
ATOM     21  O   UNL     1       2.545   6.207  20.102  0.00  0.00    +0.000 OA
ATOM     22  C   UNL     1       1.521   6.961  20.718  0.00  0.00    +0.000 C 
ENDBRANCH  20  21
ENDBRANCH  12  15
ENDBRANCH   9  11
BRANCH   1  23
ATOM     23  C   UNL     1       7.119   6.093  17.467  0.00  0.00    +0.000 C 
ATOM     24  O   UNL     1       7.014   5.590  18.579  0.00  0.00    +0.000 OA
BRANCH  23  25
ATOM     25  O   UNL     1       7.477   7.385  17.215  0.00  0.00    +0.000 OA
BRANCH  25  27
ATOM     26  C   UNL     1       8.330   9.534  17.961  0.00  0.00    +0.000 C 
ATOM     27  C   UNL     1       8.229   8.046  18.245  0.00  0.00    +0.000 C 
ENDBRANCH  25  27
ENDBRANCH  23  25
ENDBRANCH   1  23
TORSDOF 6
ENDMDL
MODEL 4
REMARK VINA RESULT:      -8.2      1.067      1.122
REMARK  Name = 
REMARK  8 active torsions:
REMARK  status: ('A' for Active; 'I' for Inactive)
REMARK    1  A    between atoms: C_1  and  C_2
REMARK    2  A    between atoms: C_2  and  O_3
REMARK    3  A    between atoms: O_3  and  C_4
REMARK    4  A    between atoms: C_4  and  C_6
REMARK    5  A    between atoms: C_14  and  N_15
REMARK    6  A    between atoms: C_16  and  C_18
REMARK    7  A    between atoms: C_23  and  O_24
REMARK    8  A    between atoms: O_24  and  C_25
REMARK                            x       y       z     vdW  Elec       q    Type
REMARK                         _______ _______ _______ _____ _____    ______ ____
ROOT
ATOM      1  C   UNL     1       7.007   5.723  16.526  0.00  0.00    +0.000 A 
ATOM      2  N   UNL     1       7.701   5.761  15.342  0.00  0.00    +0.000 N 
ATOM      3  C   UNL     1       7.076   5.010  14.379  0.00  0.00    +0.000 A 
ATOM      4  C   UNL     1       7.454   4.770  13.052  0.00  0.00    +0.000 A 
ATOM      5  C   UNL     1       6.612   3.977  12.269  0.00  0.00    +0.000 A 
ATOM      6  C   UNL     1       5.450   3.434  12.802  0.00  0.00    +0.000 A 
ATOM      7  C   UNL     1       5.110   3.659  14.142  0.00  0.00    +0.000 A 
ATOM      8  C   UNL     1       5.922   4.477  14.956  0.00  0.00    +0.000 A 
ATOM      9  C   UNL     1       5.909   4.893  16.331  0.00  0.00    +0.000 A 
ATOM     10  H   UNL     1       8.549   6.293  15.200  0.00  0.00    +0.000 HD
ENDROOT
BRANCH   9  11
ATOM     11  N   UNL     1       5.040   4.579  17.372  0.00  0.00    +0.000 N 
ATOM     12  C   UNL     1       4.001   5.362  17.854  0.00  0.00    +0.000 C 
ATOM     13  O   UNL     1       3.797   6.532  17.562  0.00  0.00    +0.000 OA
ATOM     14  H   UNL     1       5.291   3.740  17.883  0.00  0.00    +0.000 HD
BRANCH  12  15
ATOM     15  C   UNL     1       3.154   4.708  18.897  0.00  0.00    +0.000 A 
ATOM     16  C   UNL     1       2.124   5.513  19.441  0.00  0.00    +0.000 A 
ATOM     17  C   UNL     1       1.266   5.035  20.431  0.00  0.00    +0.000 A 
ATOM     18  C   UNL     1       1.394   3.728  20.871  0.00  0.00    +0.000 A 
ATOM     19  C   UNL     1       2.380   2.913  20.318  0.00  0.00    +0.000 A 
ATOM     20  C   UNL     1       3.279   3.378  19.335  0.00  0.00    +0.000 A 
BRANCH  20  21
ATOM     21  O   UNL     1       4.154   2.379  19.013  0.00  0.00    +0.000 OA
ATOM     22  C   UNL     1       3.737   1.185  18.382  0.00  0.00    +0.000 C 
ENDBRANCH  20  21
ENDBRANCH  12  15
ENDBRANCH   9  11
BRANCH   1  23
ATOM     23  C   UNL     1       7.375   6.486  17.696  0.00  0.00    +0.000 C 
ATOM     24  O   UNL     1       7.351   6.064  18.846  0.00  0.00    +0.000 OA
BRANCH  23  25
ATOM     25  O   UNL     1       7.706   7.758  17.328  0.00  0.00    +0.000 OA
BRANCH  25  27
ATOM     26  C   UNL     1       8.418  10.003  17.925  0.00  0.00    +0.000 C 
ATOM     27  C   UNL     1       8.425   8.533  18.301  0.00  0.00    +0.000 C 
ENDBRANCH  25  27
ENDBRANCH  23  25
ENDBRANCH   1  23
TORSDOF 6
ENDMDL
MODEL 5
REMARK VINA RESULT:      -8.1      1.661      6.091
REMARK  Name = 
REMARK  8 active torsions:
REMARK  status: ('A' for Active; 'I' for Inactive)
REMARK    1  A    between atoms: C_1  and  C_2
REMARK    2  A    between atoms: C_2  and  O_3
REMARK    3  A    between atoms: O_3  and  C_4
REMARK    4  A    between atoms: C_4  and  C_6
REMARK    5  A    between atoms: C_14  and  N_15
REMARK    6  A    between atoms: C_16  and  C_18
REMARK    7  A    between atoms: C_23  and  O_24
REMARK    8  A    between atoms: O_24  and  C_25
REMARK                            x       y       z     vdW  Elec       q    Type
REMARK                         _______ _______ _______ _____ _____    ______ ____
ROOT
ATOM      1  C   UNL     1       5.776   4.991  18.473  0.00  0.00    +0.000 A 
ATOM      2  N   UNL     1       5.076   5.228  19.630  0.00  0.00    +0.000 N 
ATOM      3  C   UNL     1       3.764   4.851  19.501  0.00  0.00    +0.000 A 
ATOM      4  C   UNL     1       2.717   4.934  20.428  0.00  0.00    +0.000 A 
ATOM      5  C   UNL     1       1.467   4.448  20.043  0.00  0.00    +0.000 A 
ATOM      6  C   UNL     1       1.271   3.918  18.774  0.00  0.00    +0.000 A 
ATOM      7  C   UNL     1       2.324   3.877  17.850  0.00  0.00    +0.000 A 
ATOM      8  C   UNL     1       3.608   4.333  18.214  0.00  0.00    +0.000 A 
ATOM      9  C   UNL     1       4.875   4.470  17.550  0.00  0.00    +0.000 A 
ATOM     10  H   UNL     1       5.488   5.610  20.471  0.00  0.00    +0.000 HD
ENDROOT
BRANCH   9  11
ATOM     11  N   UNL     1       5.254   4.195  16.239  0.00  0.00    +0.000 N 
ATOM     12  C   UNL     1       5.479   5.116  15.228  0.00  0.00    +0.000 C 
ATOM     13  O   UNL     1       5.203   6.307  15.275  0.00  0.00    +0.000 OA
ATOM     14  H   UNL     1       5.244   3.209  16.003  0.00  0.00    +0.000 HD
BRANCH  12  15
ATOM     15  C   UNL     1       6.003   4.535  13.954  0.00  0.00    +0.000 A 
ATOM     16  C   UNL     1       5.158   3.593  13.319  0.00  0.00    +0.000 A 
ATOM     17  C   UNL     1       5.525   2.963  12.130  0.00  0.00    +0.000 A 
ATOM     18  C   UNL     1       6.728   3.291  11.529  0.00  0.00    +0.000 A 
ATOM     19  C   UNL     1       7.553   4.245  12.123  0.00  0.00    +0.000 A 
ATOM     20  C   UNL     1       7.220   4.878  13.339  0.00  0.00    +0.000 A 
BRANCH  20  21
ATOM     21  O   UNL     1       8.227   5.727  13.699  0.00  0.00    +0.000 OA
ATOM     22  C   UNL     1       9.238   6.125  12.795  0.00  0.00    +0.000 C 
ENDBRANCH  20  21
ENDBRANCH  12  15
ENDBRANCH   9  11
BRANCH   1  23
ATOM     23  C   UNL     1       7.197   5.207  18.336  0.00  0.00    +0.000 C 
ATOM     24  O   UNL     1       8.014   4.343  18.044  0.00  0.00    +0.000 OA
BRANCH  23  25
ATOM     25  O   UNL     1       7.493   6.508  18.626  0.00  0.00    +0.000 OA
BRANCH  25  27
ATOM     26  C   UNL     1       8.121   8.749  17.928  0.00  0.00    +0.000 C 
ATOM     27  C   UNL     1       7.531   7.413  17.512  0.00  0.00    +0.000 C 
ENDBRANCH  25  27
ENDBRANCH  23  25
ENDBRANCH   1  23
TORSDOF 6
ENDMDL
MODEL 6
REMARK VINA RESULT:      -8.0      1.369      1.824
REMARK  Name = 
REMARK  8 active torsions:
REMARK  status: ('A' for Active; 'I' for Inactive)
REMARK    1  A    between atoms: C_1  and  C_2
REMARK    2  A    between atoms: C_2  and  O_3
REMARK    3  A    between atoms: O_3  and  C_4
REMARK    4  A    between atoms: C_4  and  C_6
REMARK    5  A    between atoms: C_14  and  N_15
REMARK    6  A    between atoms: C_16  and  C_18
REMARK    7  A    between atoms: C_23  and  O_24
REMARK    8  A    between atoms: O_24  and  C_25
REMARK                            x       y       z     vdW  Elec       q    Type
REMARK                         _______ _______ _______ _____ _____    ______ ____
ROOT
ATOM      1  C   UNL     1       6.967   5.522  15.834  0.00  0.00    +0.000 A 
ATOM      2  N   UNL     1       7.667   5.436  14.656  0.00  0.00    +0.000 N 
ATOM      3  C   UNL     1       6.977   4.704  13.724  0.00  0.00    +0.000 A 
ATOM      4  C   UNL     1       7.338   4.366  12.413  0.00  0.00    +0.000 A 
ATOM      5  C   UNL     1       6.427   3.622  11.660  0.00  0.00    +0.000 A 
ATOM      6  C   UNL     1       5.215   3.220  12.206  0.00  0.00    +0.000 A 
ATOM      7  C   UNL     1       4.891   3.540  13.530  0.00  0.00    +0.000 A 
ATOM      8  C   UNL     1       5.774   4.313  14.313  0.00  0.00    +0.000 A 
ATOM      9  C   UNL     1       5.794   4.794  15.667  0.00  0.00    +0.000 A 
ATOM     10  H   UNL     1       8.564   5.876  14.498  0.00  0.00    +0.000 HD
ENDROOT
BRANCH   9  11
ATOM     11  N   UNL     1       4.893   4.615  16.713  0.00  0.00    +0.000 N 
ATOM     12  C   UNL     1       4.011   5.556  17.221  0.00  0.00    +0.000 C 
ATOM     13  O   UNL     1       4.010   6.750  16.953  0.00  0.00    +0.000 OA
ATOM     14  H   UNL     1       4.999   3.735  17.206  0.00  0.00    +0.000 HD
BRANCH  12  15
ATOM     15  C   UNL     1       3.072   5.039  18.263  0.00  0.00    +0.000 A 
ATOM     16  C   UNL     1       2.604   5.997  19.194  0.00  0.00    +0.000 A 
ATOM     17  C   UNL     1       1.732   5.652  20.227  0.00  0.00    +0.000 A 
ATOM     18  C   UNL     1       1.279   4.347  20.327  0.00  0.00    +0.000 A 
ATOM     19  C   UNL     1       1.702   3.401  19.395  0.00  0.00    +0.000 A 
ATOM     20  C   UNL     1       2.605   3.717  18.357  0.00  0.00    +0.000 A 
BRANCH  20  21
ATOM     21  O   UNL     1       2.869   2.591  17.629  0.00  0.00    +0.000 OA
ATOM     22  C   UNL     1       3.500   1.459  18.192  0.00  0.00    +0.000 C 
ENDBRANCH  20  21
ENDBRANCH  12  15
ENDBRANCH   9  11
BRANCH   1  23
ATOM     23  C   UNL     1       7.401   6.300  16.971  0.00  0.00    +0.000 C 
ATOM     24  O   UNL     1       7.298   7.517  17.070  0.00  0.00    +0.000 OA
BRANCH  23  25
ATOM     25  O   UNL     1       7.984   5.479  17.892  0.00  0.00    +0.000 OA
BRANCH  25  27
ATOM     26  C   UNL     1       6.386   5.262  19.711  0.00  0.00    +0.000 C 
ATOM     27  C   UNL     1       7.737   5.798  19.271  0.00  0.00    +0.000 C 
ENDBRANCH  25  27
ENDBRANCH  23  25
ENDBRANCH   1  23
TORSDOF 6
ENDMDL
MODEL 7
REMARK VINA RESULT:      -8.0      1.448      2.363
REMARK  Name = 
REMARK  8 active torsions:
REMARK  status: ('A' for Active; 'I' for Inactive)
REMARK    1  A    between atoms: C_1  and  C_2
REMARK    2  A    between atoms: C_2  and  O_3
REMARK    3  A    between atoms: O_3  and  C_4
REMARK    4  A    between atoms: C_4  and  C_6
REMARK    5  A    between atoms: C_14  and  N_15
REMARK    6  A    between atoms: C_16  and  C_18
REMARK    7  A    between atoms: C_23  and  O_24
REMARK    8  A    between atoms: O_24  and  C_25
REMARK                            x       y       z     vdW  Elec       q    Type
REMARK                         _______ _______ _______ _____ _____    ______ ____
ROOT
ATOM      1  C   UNL     1       6.769   5.588  15.819  0.00  0.00    +0.000 A 
ATOM      2  N   UNL     1       7.585   5.383  14.734  0.00  0.00    +0.000 N 
ATOM      3  C   UNL     1       6.947   4.650  13.767  0.00  0.00    +0.000 A 
ATOM      4  C   UNL     1       7.421   4.210  12.524  0.00  0.00    +0.000 A 
ATOM      5  C   UNL     1       6.543   3.491  11.710  0.00  0.00    +0.000 A 
ATOM      6  C   UNL     1       5.251   3.210  12.135  0.00  0.00    +0.000 A 
ATOM      7  C   UNL     1       4.809   3.629  13.396  0.00  0.00    +0.000 A 
ATOM      8  C   UNL     1       5.659   4.381  14.234  0.00  0.00    +0.000 A 
ATOM      9  C   UNL     1       5.568   4.937  15.556  0.00  0.00    +0.000 A 
ATOM     10  H   UNL     1       8.525   5.747  14.657  0.00  0.00    +0.000 HD
ENDROOT
BRANCH   9  11
ATOM     11  N   UNL     1       4.547   4.885  16.501  0.00  0.00    +0.000 N 
ATOM     12  C   UNL     1       4.110   3.766  17.193  0.00  0.00    +0.000 C 
ATOM     13  O   UNL     1       4.429   2.610  16.951  0.00  0.00    +0.000 OA
ATOM     14  H   UNL     1       4.014   5.744  16.583  0.00  0.00    +0.000 HD
BRANCH  12  15
ATOM     15  C   UNL     1       3.080   4.038  18.242  0.00  0.00    +0.000 A 
ATOM     16  C   UNL     1       2.340   2.913  18.678  0.00  0.00    +0.000 A 
ATOM     17  C   UNL     1       1.339   3.023  19.643  0.00  0.00    +0.000 A 
ATOM     18  C   UNL     1       1.083   4.255  20.221  0.00  0.00    +0.000 A 
ATOM     19  C   UNL     1       1.829   5.365  19.828  0.00  0.00    +0.000 A 
ATOM     20  C   UNL     1       2.829   5.288  18.835  0.00  0.00    +0.000 A 
BRANCH  20  21
ATOM     21  O   UNL     1       3.360   6.529  18.629  0.00  0.00    +0.000 OA
ATOM     22  C   UNL     1       2.601   7.597  18.098  0.00  0.00    +0.000 C 
ENDBRANCH  20  21
ENDBRANCH  12  15
ENDBRANCH   9  11
BRANCH   1  23
ATOM     23  C   UNL     1       7.135   6.398  16.958  0.00  0.00    +0.000 C 
ATOM     24  O   UNL     1       6.782   7.557  17.138  0.00  0.00    +0.000 OA
BRANCH  23  25
ATOM     25  O   UNL     1       7.971   5.691  17.773  0.00  0.00    +0.000 OA
BRANCH  25  27
ATOM     26  C   UNL     1       6.425   5.254  19.596  0.00  0.00    +0.000 C 
ATOM     27  C   UNL     1       7.760   5.848  19.185  0.00  0.00    +0.000 C 
ENDBRANCH  25  27
ENDBRANCH  23  25
ENDBRANCH   1  23
TORSDOF 6
ENDMDL
MODEL 8
REMARK VINA RESULT:      -7.9      0.899      1.287
REMARK  Name = 
REMARK  8 active torsions:
REMARK  status: ('A' for Active; 'I' for Inactive)
REMARK    1  A    between atoms: C_1  and  C_2
REMARK    2  A    between atoms: C_2  and  O_3
REMARK    3  A    between atoms: O_3  and  C_4
REMARK    4  A    between atoms: C_4  and  C_6
REMARK    5  A    between atoms: C_14  and  N_15
REMARK    6  A    between atoms: C_16  and  C_18
REMARK    7  A    between atoms: C_23  and  O_24
REMARK    8  A    between atoms: O_24  and  C_25
REMARK                            x       y       z     vdW  Elec       q    Type
REMARK                         _______ _______ _______ _____ _____    ______ ____
ROOT
ATOM      1  C   UNL     1       6.996   5.290  15.924  0.00  0.00    +0.000 A 
ATOM      2  N   UNL     1       7.734   5.458  14.779  0.00  0.00    +0.000 N 
ATOM      3  C   UNL     1       7.175   4.780  13.726  0.00  0.00    +0.000 A 
ATOM      4  C   UNL     1       7.614   4.675  12.400  0.00  0.00    +0.000 A 
ATOM      5  C   UNL     1       6.832   3.932  11.513  0.00  0.00    +0.000 A 
ATOM      6  C   UNL     1       5.670   3.305  11.944  0.00  0.00    +0.000 A 
ATOM      7  C   UNL     1       5.269   3.395  13.284  0.00  0.00    +0.000 A 
ATOM      8  C   UNL     1       6.019   4.160  14.202  0.00  0.00    +0.000 A 
ATOM      9  C   UNL     1       5.937   4.447  15.608  0.00  0.00    +0.000 A 
ATOM     10  H   UNL     1       8.569   6.027  14.722  0.00  0.00    +0.000 HD
ENDROOT
BRANCH   9  11
ATOM     11  N   UNL     1       5.039   4.011  16.578  0.00  0.00    +0.000 N 
ATOM     12  C   UNL     1       4.028   4.754  17.170  0.00  0.00    +0.000 C 
ATOM     13  O   UNL     1       3.880   5.964  17.068  0.00  0.00    +0.000 OA
ATOM     14  H   UNL     1       5.245   3.091  16.950  0.00  0.00    +0.000 HD
BRANCH  12  15
ATOM     15  C   UNL     1       3.136   3.982  18.088  0.00  0.00    +0.000 A 
ATOM     16  C   UNL     1       1.753   4.045  17.794  0.00  0.00    +0.000 A 
ATOM     17  C   UNL     1       0.806   3.382  18.575  0.00  0.00    +0.000 A 
ATOM     18  C   UNL     1       1.226   2.610  19.644  0.00  0.00    +0.000 A 
ATOM     19  C   UNL     1       2.588   2.508  19.924  0.00  0.00    +0.000 A 
ATOM     20  C   UNL     1       3.566   3.189  19.167  0.00  0.00    +0.000 A 
BRANCH  20  21
ATOM     21  O   UNL     1       4.801   2.938  19.692  0.00  0.00    +0.000 OA
ATOM     22  C   UNL     1       5.043   1.856  20.569  0.00  0.00    +0.000 C 
ENDBRANCH  20  21
ENDBRANCH  12  15
ENDBRANCH   9  11
BRANCH   1  23
ATOM     23  C   UNL     1       7.290   5.953  17.173  0.00  0.00    +0.000 C 
ATOM     24  O   UNL     1       7.495   7.154  17.300  0.00  0.00    +0.000 OA
BRANCH  23  25
ATOM     25  O   UNL     1       7.352   5.031  18.178  0.00  0.00    +0.000 OA
BRANCH  25  27
ATOM     26  C   UNL     1       8.365   5.441  20.348  0.00  0.00    +0.000 C 
ATOM     27  C   UNL     1       7.105   5.522  19.505  0.00  0.00    +0.000 C 
ENDBRANCH  25  27
ENDBRANCH  23  25
ENDBRANCH   1  23
TORSDOF 6
ENDMDL
MODEL 9
REMARK VINA RESULT:      -7.9      1.615      2.128
REMARK  Name = 
REMARK  8 active torsions:
REMARK  status: ('A' for Active; 'I' for Inactive)
REMARK    1  A    between atoms: C_1  and  C_2
REMARK    2  A    between atoms: C_2  and  O_3
REMARK    3  A    between atoms: O_3  and  C_4
REMARK    4  A    between atoms: C_4  and  C_6
REMARK    5  A    between atoms: C_14  and  N_15
REMARK    6  A    between atoms: C_16  and  C_18
REMARK    7  A    between atoms: C_23  and  O_24
REMARK    8  A    between atoms: O_24  and  C_25
REMARK                            x       y       z     vdW  Elec       q    Type
REMARK                         _______ _______ _______ _____ _____    ______ ____
ROOT
ATOM      1  C   UNL     1       6.863   5.229  15.821  0.00  0.00    +0.000 A 
ATOM      2  N   UNL     1       7.616   5.235  14.673  0.00  0.00    +0.000 N 
ATOM      3  C   UNL     1       6.967   4.585  13.654  0.00  0.00    +0.000 A 
ATOM      4  C   UNL     1       7.385   4.353  12.337  0.00  0.00    +0.000 A 
ATOM      5  C   UNL     1       6.508   3.678  11.485  0.00  0.00    +0.000 A 
ATOM      6  C   UNL     1       5.272   3.239  11.942  0.00  0.00    +0.000 A 
ATOM      7  C   UNL     1       4.889   3.452  13.273  0.00  0.00    +0.000 A 
ATOM      8  C   UNL     1       5.738   4.154  14.154  0.00  0.00    +0.000 A 
ATOM      9  C   UNL     1       5.698   4.523  15.543  0.00  0.00    +0.000 A 
ATOM     10  H   UNL     1       8.520   5.681  14.591  0.00  0.00    +0.000 HD
ENDROOT
BRANCH   9  11
ATOM     11  N   UNL     1       4.751   4.265  16.529  0.00  0.00    +0.000 N 
ATOM     12  C   UNL     1       3.905   5.184  17.131  0.00  0.00    +0.000 C 
ATOM     13  O   UNL     1       3.982   6.400  17.024  0.00  0.00    +0.000 OA
ATOM     14  H   UNL     1       4.789   3.323  16.905  0.00  0.00    +0.000 HD
BRANCH  12  15
ATOM     15  C   UNL     1       2.900   4.594  18.069  0.00  0.00    +0.000 A 
ATOM     16  C   UNL     1       2.352   3.350  17.673  0.00  0.00    +0.000 A 
ATOM     17  C   UNL     1       1.396   2.691  18.445  0.00  0.00    +0.000 A 
ATOM     18  C   UNL     1       0.996   3.243  19.650  0.00  0.00    +0.000 A 
ATOM     19  C   UNL     1       1.555   4.449  20.071  0.00  0.00    +0.000 A 
ATOM     20  C   UNL     1       2.504   5.151  19.297  0.00  0.00    +0.000 A 
BRANCH  20  21
ATOM     21  O   UNL     1       2.840   6.310  19.935  0.00  0.00    +0.000 OA
ATOM     22  C   UNL     1       2.066   7.487  19.822  0.00  0.00    +0.000 C 
ENDBRANCH  20  21
ENDBRANCH  12  15
ENDBRANCH   9  11
BRANCH   1  23
ATOM     23  C   UNL     1       7.248   5.909  17.036  0.00  0.00    +0.000 C 
ATOM     24  O   UNL     1       7.562   7.091  17.109  0.00  0.00    +0.000 OA
BRANCH  23  25
ATOM     25  O   UNL     1       7.251   5.024  18.075  0.00  0.00    +0.000 OA
BRANCH  25  27
ATOM     26  C   UNL     1       8.327   5.575  20.183  0.00  0.00    +0.000 C 
ATOM     27  C   UNL     1       7.037   5.581  19.382  0.00  0.00    +0.000 C 
ENDBRANCH  25  27
ENDBRANCH  23  25
ENDBRANCH   1  23
TORSDOF 6
ENDMDL
