MODEL 1
REMARK VINA RESULT:      -7.8      0.000      0.000
REMARK  Name = 
REMARK  6 active torsions:
REMARK  status: ('A' for Active; 'I' for Inactive)
REMARK    1  A    between atoms: C_2  and  C_3
REMARK    2  A    between atoms: C_3  and  C_4
REMARK    3  A    between atoms: C_4  and  C_5
REMARK    4  A    between atoms: N_10  and  C_11
REMARK    5  A    between atoms: C_11  and  C_12
REMARK    6  A    between atoms: C_12  and  C_13
REMARK                            x       y       z     vdW  Elec       q    Type
REMARK                         _______ _______ _______ _____ _____    ______ ____
ROOT
ATOM      1  C   UNL     1       3.042   5.016  19.545  0.00  0.00    +0.000 C 
ATOM      2  C   UNL     1       2.580   4.075  20.701  0.00  0.00    +0.000 C 
ATOM      3  C   UNL     1       1.142   3.606  20.518  0.00  0.00    +0.000 C 
ATOM      4  O   UNL     1       1.034   2.862  19.309  0.00  0.00    +0.000 OA
ATOM      5  C   UNL     1       1.281   3.673  18.167  0.00  0.00    +0.000 C 
ATOM      6  C   UNL     1       2.691   4.261  18.210  0.00  0.00    +0.000 C 
ENDROOT
BRANCH   1   7
ATOM      7  C   UNL     1       2.345   6.414  19.686  0.00  0.00    +0.000 A 
ATOM      8  C   UNL     1       1.570   6.712  20.832  0.00  0.00    +0.000 A 
ATOM      9  C   UNL     1       1.033   7.982  21.077  0.00  0.00    +0.000 A 
ATOM     10  C   UNL     1       1.201   8.999  20.153  0.00  0.00    +0.000 A 
ATOM     11  C   UNL     1       1.893   8.734  18.980  0.00  0.00    +0.000 A 
ATOM     12  C   UNL     1       2.462   7.468  18.742  0.00  0.00    +0.000 A 
ATOM     13 CL   UNL     1       3.290   7.347  17.226  0.00  0.00    +0.000 Cl
ENDBRANCH   1   7
BRANCH   1  14
ATOM     14  C   UNL     1       4.600   5.205  19.556  0.00  0.00    +0.000 C 
BRANCH  14  17
ATOM     15  O   UNL     1       6.523   6.448  17.874  0.00  0.00    +0.000 OA
ATOM     16  C   UNL     1       6.233   5.274  17.687  0.00  0.00    +0.000 C 
ATOM     17  N   UNL     1       5.295   4.591  18.428  0.00  0.00    +0.000 N 
ATOM     18  H   UNL     1       5.297   3.582  18.344  0.00  0.00    +0.000 HD
BRANCH  16  19
ATOM     19  C   UNL     1       6.882   4.437  16.606  0.00  0.00    +0.000 C 
BRANCH  19  20
ATOM     20  C   UNL     1       5.865   4.059  15.535  0.00  0.00    +0.000 C 
BRANCH  20  21
ATOM     21  C   UNL     1       6.429   4.227  14.172  0.00  0.00    +0.000 A 
ATOM     22  C   UNL     1       6.228   3.570  12.976  0.00  0.00    +0.000 A 
ATOM     23  C   UNL     1       7.078   4.195  12.032  0.00  0.00    +0.000 A 
ATOM     24  C   UNL     1       7.742   5.190  12.715  0.00  0.00    +0.000 A 
ATOM     25  O   UNL     1       7.350   5.218  14.014  0.00  0.00    +0.000 OA
ENDBRANCH  20  21
ENDBRANCH  19  20
ENDBRANCH  16  19
ENDBRANCH  14  17
ENDBRANCH   1  14
TORSDOF 6
ENDMDL
MODEL 2
REMARK VINA RESULT:      -7.5      0.867      1.148
REMARK  Name = 
REMARK  6 active torsions:
REMARK  status: ('A' for Active; 'I' for Inactive)
REMARK    1  A    between atoms: C_2  and  C_3
REMARK    2  A    between atoms: C_3  and  C_4
REMARK    3  A    between atoms: C_4  and  C_5
REMARK    4  A    between atoms: N_10  and  C_11
REMARK    5  A    between atoms: C_11  and  C_12
REMARK    6  A    between atoms: C_12  and  C_13
REMARK                            x       y       z     vdW  Elec       q    Type
REMARK                         _______ _______ _______ _____ _____    ______ ____
ROOT
ATOM      1  C   UNL     1       2.851   5.190  19.640  0.00  0.00    +0.000 C 
ATOM      2  C   UNL     1       2.161   4.126  20.550  0.00  0.00    +0.000 C 
ATOM      3  C   UNL     1       0.795   3.715  20.016  0.00  0.00    +0.000 C 
ATOM      4  O   UNL     1       0.945   3.124  18.729  0.00  0.00    +0.000 OA
ATOM      5  C   UNL     1       1.422   4.062  17.772  0.00  0.00    +0.000 C 
ATOM      6  C   UNL     1       2.790   4.609  18.179  0.00  0.00    +0.000 C 
ENDROOT
BRANCH   1   7
ATOM      7  C   UNL     1       2.135   6.575  19.803  0.00  0.00    +0.000 A 
ATOM      8  C   UNL     1       1.311   6.824  20.927  0.00  0.00    +0.000 A 
ATOM      9  C   UNL     1       0.752   8.079  21.197  0.00  0.00    +0.000 A 
ATOM     10  C   UNL     1       0.948   9.131  20.319  0.00  0.00    +0.000 A 
ATOM     11  C   UNL     1       1.690   8.915  19.166  0.00  0.00    +0.000 A 
ATOM     12  C   UNL     1       2.280   7.664  18.905  0.00  0.00    +0.000 A 
ATOM     13 CL   UNL     1       3.171   7.607  17.421  0.00  0.00    +0.000 Cl
ENDBRANCH   1   7
BRANCH   1  14
ATOM     14  C   UNL     1       4.372   5.341  19.998  0.00  0.00    +0.000 C 
BRANCH  14  17
ATOM     15  O   UNL     1       7.206   5.529  20.046  0.00  0.00    +0.000 OA
ATOM     16  C   UNL     1       6.619   5.603  18.975  0.00  0.00    +0.000 C 
ATOM     17  N   UNL     1       5.249   5.551  18.849  0.00  0.00    +0.000 N 
ATOM     18  H   UNL     1       4.884   5.392  17.918  0.00  0.00    +0.000 HD
BRANCH  16  19
ATOM     19  C   UNL     1       7.346   5.763  17.657  0.00  0.00    +0.000 C 
BRANCH  19  20
ATOM     20  C   UNL     1       7.578   4.406  17.002  0.00  0.00    +0.000 C 
BRANCH  20  21
ATOM     21  C   UNL     1       7.067   4.385  15.608  0.00  0.00    +0.000 A 
ATOM     22  C   UNL     1       6.066   3.677  14.976  0.00  0.00    +0.000 A 
ATOM     23  C   UNL     1       6.076   4.097  13.624  0.00  0.00    +0.000 A 
ATOM     24  C   UNL     1       7.082   5.032  13.521  0.00  0.00    +0.000 A 
ATOM     25  O   UNL     1       7.686   5.216  14.723  0.00  0.00    +0.000 OA
ENDBRANCH  20  21
ENDBRANCH  19  20
ENDBRANCH  16  19
ENDBRANCH  14  17
ENDBRANCH   1  14
TORSDOF 6
ENDMDL
MODEL 3
REMARK VINA RESULT:      -7.5      2.905      7.773
REMARK  Name = 
REMARK  6 active torsions:
REMARK  status: ('A' for Active; 'I' for Inactive)
REMARK    1  A    between atoms: C_2  and  C_3
REMARK    2  A    between atoms: C_3  and  C_4
REMARK    3  A    between atoms: C_4  and  C_5
REMARK    4  A    between atoms: N_10  and  C_11
REMARK    5  A    between atoms: C_11  and  C_12
REMARK    6  A    between atoms: C_12  and  C_13
REMARK                            x       y       z     vdW  Elec       q    Type
REMARK                         _______ _______ _______ _____ _____    ______ ____
ROOT
ATOM      1  C   UNL     1       3.560   4.702  18.227  0.00  0.00    +0.000 C 
ATOM      2  C   UNL     1       2.415   3.843  17.604  0.00  0.00    +0.000 C 
ATOM      3  C   UNL     1       2.663   2.350  17.772  0.00  0.00    +0.000 C 
ATOM      4  O   UNL     1       2.714   2.028  19.159  0.00  0.00    +0.000 OA
ATOM      5  C   UNL     1       3.828   2.638  19.799  0.00  0.00    +0.000 C 
ATOM      6  C   UNL     1       3.754   4.161  19.692  0.00  0.00    +0.000 C 
ENDROOT
BRANCH   1   7
ATOM      7  C   UNL     1       4.847   4.600  17.337  0.00  0.00    +0.000 A 
ATOM      8  C   UNL     1       4.747   4.193  15.985  0.00  0.00    +0.000 A 
ATOM      9  C   UNL     1       5.837   4.208  15.105  0.00  0.00    +0.000 A 
ATOM     10  C   UNL     1       7.091   4.580  15.557  0.00  0.00    +0.000 A 
ATOM     11  C   UNL     1       7.251   4.919  16.893  0.00  0.00    +0.000 A 
ATOM     12  C   UNL     1       6.154   4.935  17.775  0.00  0.00    +0.000 A 
ATOM     13 CL   UNL     1       6.565   5.394  19.394  0.00  0.00    +0.000 Cl
ENDBRANCH   1   7
BRANCH   1  14
ATOM     14  C   UNL     1       3.133   6.207  18.360  0.00  0.00    +0.000 C 
BRANCH  14  17
ATOM     15  O   UNL     1       1.901   8.683  19.009  0.00  0.00    +0.000 OA
ATOM     16  C   UNL     1       1.863   7.765  19.817  0.00  0.00    +0.000 C 
ATOM     17  N   UNL     1       2.452   6.538  19.609  0.00  0.00    +0.000 N 
ATOM     18  H   UNL     1       2.170   5.788  20.228  0.00  0.00    +0.000 HD
BRANCH  16  19
ATOM     19  C   UNL     1       1.156   7.882  21.150  0.00  0.00    +0.000 C 
BRANCH  19  20
ATOM     20  C   UNL     1       1.577   9.156  21.873  0.00  0.00    +0.000 C 
BRANCH  20  21
ATOM     21  C   UNL     1       0.461  10.133  21.941  0.00  0.00    +0.000 A 
ATOM     22  C   UNL     1      -0.111  10.983  21.017  0.00  0.00    +0.000 A 
ATOM     23  C   UNL     1      -1.140  11.676  21.700  0.00  0.00    +0.000 A 
ATOM     24  C   UNL     1      -1.126  11.204  22.994  0.00  0.00    +0.000 A 
ATOM     25  O   UNL     1      -0.160  10.263  23.146  0.00  0.00    +0.000 OA
ENDBRANCH  20  21
ENDBRANCH  19  20
ENDBRANCH  16  19
ENDBRANCH  14  17
ENDBRANCH   1  14
TORSDOF 6
ENDMDL
MODEL 4
REMARK VINA RESULT:      -7.5      2.030      6.565
REMARK  Name = 
REMARK  6 active torsions:
REMARK  status: ('A' for Active; 'I' for Inactive)
REMARK    1  A    between atoms: C_2  and  C_3
REMARK    2  A    between atoms: C_3  and  C_4
REMARK    3  A    between atoms: C_4  and  C_5
REMARK    4  A    between atoms: N_10  and  C_11
REMARK    5  A    between atoms: C_11  and  C_12
REMARK    6  A    between atoms: C_12  and  C_13
REMARK                            x       y       z     vdW  Elec       q    Type
REMARK                         _______ _______ _______ _____ _____    ______ ____
ROOT
ATOM      1  C   UNL     1       5.289   5.620  16.458  0.00  0.00    +0.000 C 
ATOM      2  C   UNL     1       6.806   5.881  16.715  0.00  0.00    +0.000 C 
ATOM      3  C   UNL     1       7.682   4.772  16.144  0.00  0.00    +0.000 C 
ATOM      4  O   UNL     1       7.506   4.706  14.732  0.00  0.00    +0.000 OA
ATOM      5  C   UNL     1       6.184   4.315  14.384  0.00  0.00    +0.000 C 
ATOM      6  C   UNL     1       5.159   5.316  14.919  0.00  0.00    +0.000 C 
ENDROOT
BRANCH   1   7
ATOM      7  C   UNL     1       4.784   4.456  17.380  0.00  0.00    +0.000 A 
ATOM      8  C   UNL     1       3.861   3.504  16.885  0.00  0.00    +0.000 A 
ATOM      9  C   UNL     1       3.474   2.372  17.612  0.00  0.00    +0.000 A 
ATOM     10  C   UNL     1       3.954   2.171  18.894  0.00  0.00    +0.000 A 
ATOM     11  C   UNL     1       4.807   3.115  19.449  0.00  0.00    +0.000 A 
ATOM     12  C   UNL     1       5.223   4.240  18.712  0.00  0.00    +0.000 A 
ATOM     13 CL   UNL     1       6.292   5.288  19.582  0.00  0.00    +0.000 Cl
ENDBRANCH   1   7
BRANCH   1  14
ATOM     14  C   UNL     1       4.438   6.911  16.731  0.00  0.00    +0.000 C 
BRANCH  14  17
ATOM     15  O   UNL     1       2.259   8.609  17.394  0.00  0.00    +0.000 OA
ATOM     16  C   UNL     1       2.588   7.724  18.173  0.00  0.00    +0.000 C 
ATOM     17  N   UNL     1       3.646   6.869  17.957  0.00  0.00    +0.000 N 
ATOM     18  H   UNL     1       3.689   6.043  18.541  0.00  0.00    +0.000 HD
BRANCH  16  19
ATOM     19  C   UNL     1       1.860   7.473  19.476  0.00  0.00    +0.000 C 
BRANCH  19  20
ATOM     20  C   UNL     1       2.638   6.493  20.348  0.00  0.00    +0.000 C 
BRANCH  20  21
ATOM     21  C   UNL     1       1.974   5.166  20.392  0.00  0.00    +0.000 A 
ATOM     22  C   UNL     1       1.886   4.182  21.354  0.00  0.00    +0.000 A 
ATOM     23  C   UNL     1       1.118   3.138  20.785  0.00  0.00    +0.000 A 
ATOM     24  C   UNL     1       0.789   3.553  19.514  0.00  0.00    +0.000 A 
ATOM     25  O   UNL     1       1.301   4.786  19.269  0.00  0.00    +0.000 OA
ENDBRANCH  20  21
ENDBRANCH  19  20
ENDBRANCH  16  19
ENDBRANCH  14  17
ENDBRANCH   1  14
TORSDOF 6
ENDMDL
MODEL 5
REMARK VINA RESULT:      -7.4      3.085      7.036
REMARK  Name = 
REMARK  6 active torsions:
REMARK  status: ('A' for Active; 'I' for Inactive)
REMARK    1  A    between atoms: C_2  and  C_3
REMARK    2  A    between atoms: C_3  and  C_4
REMARK    3  A    between atoms: C_4  and  C_5
REMARK    4  A    between atoms: N_10  and  C_11
REMARK    5  A    between atoms: C_11  and  C_12
REMARK    6  A    between atoms: C_12  and  C_13
REMARK                            x       y       z     vdW  Elec       q    Type
REMARK                         _______ _______ _______ _____ _____    ______ ____
ROOT
ATOM      1  C   UNL     1       3.729   4.499  18.590  0.00  0.00    +0.000 C 
ATOM      2  C   UNL     1       2.428   4.004  17.885  0.00  0.00    +0.000 C 
ATOM      3  C   UNL     1       2.494   2.522  17.536  0.00  0.00    +0.000 C 
ATOM      4  O   UNL     1       2.633   1.758  18.730  0.00  0.00    +0.000 OA
ATOM      5  C   UNL     1       3.873   2.016  19.377  0.00  0.00    +0.000 C 
ATOM      6  C   UNL     1       3.989   3.489  19.769  0.00  0.00    +0.000 C 
ENDROOT
BRANCH   1   7
ATOM      7  C   UNL     1       4.902   4.578  17.552  0.00  0.00    +0.000 A 
ATOM      8  C   UNL     1       4.675   4.248  16.195  0.00  0.00    +0.000 A 
ATOM      9  C   UNL     1       5.643   4.423  15.198  0.00  0.00    +0.000 A 
ATOM     10  C   UNL     1       6.905   4.885  15.528  0.00  0.00    +0.000 A 
ATOM     11  C   UNL     1       7.197   5.155  16.858  0.00  0.00    +0.000 A 
ATOM     12  C   UNL     1       6.218   5.010  17.860  0.00  0.00    +0.000 A 
ATOM     13 CL   UNL     1       6.781   5.405  19.449  0.00  0.00    +0.000 Cl
ENDBRANCH   1   7
BRANCH   1  14
ATOM     14  C   UNL     1       3.517   5.908  19.249  0.00  0.00    +0.000 C 
BRANCH  14  17
ATOM     15  O   UNL     1       1.885   8.087  20.061  0.00  0.00    +0.000 OA
ATOM     16  C   UNL     1       2.138   7.938  18.872  0.00  0.00    +0.000 C 
ATOM     17  N   UNL     1       2.894   6.899  18.376  0.00  0.00    +0.000 N 
ATOM     18  H   UNL     1       3.229   6.995  17.425  0.00  0.00    +0.000 HD
BRANCH  16  19
ATOM     19  C   UNL     1       1.637   8.889  17.807  0.00  0.00    +0.000 C 
BRANCH  19  20
ATOM     20  C   UNL     1       1.219  10.218  18.425  0.00  0.00    +0.000 C 
BRANCH  20  21
ATOM     21  C   UNL     1      -0.247  10.426  18.317  0.00  0.00    +0.000 A 
ATOM     22  C   UNL     1      -1.231   9.849  17.542  0.00  0.00    +0.000 A 
ATOM     23  C   UNL     1      -2.442  10.492  17.895  0.00  0.00    +0.000 A 
ATOM     24  C   UNL     1      -2.116  11.419  18.860  0.00  0.00    +0.000 A 
ATOM     25  O   UNL     1      -0.786  11.382  19.125  0.00  0.00    +0.000 OA
ENDBRANCH  20  21
ENDBRANCH  19  20
ENDBRANCH  16  19
ENDBRANCH  14  17
ENDBRANCH   1  14
TORSDOF 6
ENDMDL
MODEL 6
REMARK VINA RESULT:      -7.4      2.916      7.768
REMARK  Name = 
REMARK  6 active torsions:
REMARK  status: ('A' for Active; 'I' for Inactive)
REMARK    1  A    between atoms: C_2  and  C_3
REMARK    2  A    between atoms: C_3  and  C_4
REMARK    3  A    between atoms: C_4  and  C_5
REMARK    4  A    between atoms: N_10  and  C_11
REMARK    5  A    between atoms: C_11  and  C_12
REMARK    6  A    between atoms: C_12  and  C_13
REMARK                            x       y       z     vdW  Elec       q    Type
REMARK                         _______ _______ _______ _____ _____    ______ ____
ROOT
ATOM      1  C   UNL     1       3.537   5.476  18.130  0.00  0.00    +0.000 C 
ATOM      2  C   UNL     1       2.252   4.732  17.651  0.00  0.00    +0.000 C 
ATOM      3  C   UNL     1       2.214   3.287  18.130  0.00  0.00    +0.000 C 
ATOM      4  O   UNL     1       2.204   3.257  19.554  0.00  0.00    +0.000 OA
ATOM      5  C   UNL     1       3.413   3.771  20.100  0.00  0.00    +0.000 C 
ATOM      6  C   UNL     1       3.627   5.226  19.681  0.00  0.00    +0.000 C 
ENDROOT
BRANCH   1   7
ATOM      7  C   UNL     1       4.782   4.957  17.331  0.00  0.00    +0.000 A 
ATOM      8  C   UNL     1       4.625   4.443  16.021  0.00  0.00    +0.000 A 
ATOM      9  C   UNL     1       5.709   4.087  15.209  0.00  0.00    +0.000 A 
ATOM     10  C   UNL     1       7.001   4.177  15.695  0.00  0.00    +0.000 A 
ATOM     11  C   UNL     1       7.201   4.609  16.999  0.00  0.00    +0.000 A 
ATOM     12  C   UNL     1       6.118   4.997  17.810  0.00  0.00    +0.000 A 
ATOM     13 CL   UNL     1       6.582   5.511  19.397  0.00  0.00    +0.000 Cl
ENDBRANCH   1   7
BRANCH   1  14
ATOM     14  C   UNL     1       3.400   7.028  17.936  0.00  0.00    +0.000 C 
BRANCH  14  17
ATOM     15  O   UNL     1       2.177   9.545  17.450  0.00  0.00    +0.000 OA
ATOM     16  C   UNL     1       1.800   8.869  18.398  0.00  0.00    +0.000 C 
ATOM     17  N   UNL     1       2.347   7.651  18.733  0.00  0.00    +0.000 N 
ATOM     18  H   UNL     1       1.820   7.079  19.382  0.00  0.00    +0.000 HD
BRANCH  16  19
ATOM     19  C   UNL     1       0.679   9.306  19.316  0.00  0.00    +0.000 C 
BRANCH  19  20
ATOM     20  C   UNL     1       1.088   9.151  20.777  0.00  0.00    +0.000 C 
BRANCH  20  21
ATOM     21  C   UNL     1       0.205   9.941  21.671  0.00  0.00    +0.000 A 
ATOM     22  C   UNL     1      -0.587   9.613  22.752  0.00  0.00    +0.000 A 
ATOM     23  C   UNL     1      -1.200  10.817  23.174  0.00  0.00    +0.000 A 
ATOM     24  C   UNL     1      -0.744  11.798  22.322  0.00  0.00    +0.000 A 
ATOM     25  O   UNL     1       0.114  11.275  21.410  0.00  0.00    +0.000 OA
ENDBRANCH  20  21
ENDBRANCH  19  20
ENDBRANCH  16  19
ENDBRANCH  14  17
ENDBRANCH   1  14
TORSDOF 6
ENDMDL
MODEL 7
REMARK VINA RESULT:      -7.3      3.111      7.321
REMARK  Name = 
REMARK  6 active torsions:
REMARK  status: ('A' for Active; 'I' for Inactive)
REMARK    1  A    between atoms: C_2  and  C_3
REMARK    2  A    between atoms: C_3  and  C_4
REMARK    3  A    between atoms: C_4  and  C_5
REMARK    4  A    between atoms: N_10  and  C_11
REMARK    5  A    between atoms: C_11  and  C_12
REMARK    6  A    between atoms: C_12  and  C_13
REMARK                            x       y       z     vdW  Elec       q    Type
REMARK                         _______ _______ _______ _____ _____    ______ ____
ROOT
ATOM      1  C   UNL     1       3.524   5.511  18.121  0.00  0.00    +0.000 C 
ATOM      2  C   UNL     1       2.239   4.785  17.614  0.00  0.00    +0.000 C 
ATOM      3  C   UNL     1       2.169   3.341  18.095  0.00  0.00    +0.000 C 
ATOM      4  O   UNL     1       2.125   3.315  19.518  0.00  0.00    +0.000 OA
ATOM      5  C   UNL     1       3.328   3.812  20.091  0.00  0.00    +0.000 C 
ATOM      6  C   UNL     1       3.573   5.263  19.675  0.00  0.00    +0.000 C 
ENDROOT
BRANCH   1   7
ATOM      7  C   UNL     1       4.779   4.972  17.352  0.00  0.00    +0.000 A 
ATOM      8  C   UNL     1       4.643   4.449  16.044  0.00  0.00    +0.000 A 
ATOM      9  C   UNL     1       5.739   4.074  15.257  0.00  0.00    +0.000 A 
ATOM     10  C   UNL     1       7.023   4.155  15.769  0.00  0.00    +0.000 A 
ATOM     11  C   UNL     1       7.200   4.595  17.074  0.00  0.00    +0.000 A 
ATOM     12  C   UNL     1       6.105   5.001  17.858  0.00  0.00    +0.000 A 
ATOM     13 CL   UNL     1       6.542   5.524  19.451  0.00  0.00    +0.000 Cl
ENDBRANCH   1   7
BRANCH   1  14
ATOM     14  C   UNL     1       3.414   7.064  17.921  0.00  0.00    +0.000 C 
BRANCH  14  17
ATOM     15  O   UNL     1       2.156   9.554  17.386  0.00  0.00    +0.000 OA
ATOM     16  C   UNL     1       1.821   8.913  18.373  0.00  0.00    +0.000 C 
ATOM     17  N   UNL     1       2.389   7.712  18.734  0.00  0.00    +0.000 N 
ATOM     18  H   UNL     1       1.891   7.163  19.424  0.00  0.00    +0.000 HD
BRANCH  16  19
ATOM     19  C   UNL     1       0.733   9.380  19.317  0.00  0.00    +0.000 C 
BRANCH  19  20
ATOM     20  C   UNL     1       0.233  10.764  18.920  0.00  0.00    +0.000 C 
BRANCH  20  21
ATOM     21  C   UNL     1      -1.134  10.699  18.344  0.00  0.00    +0.000 A 
ATOM     22  C   UNL     1      -2.318  11.342  18.640  0.00  0.00    +0.000 A 
ATOM     23  C   UNL     1      -3.281  10.837  17.733  0.00  0.00    +0.000 A 
ATOM     24  C   UNL     1      -2.621   9.919  16.946  0.00  0.00    +0.000 A 
ATOM     25  O   UNL     1      -1.316   9.833  17.308  0.00  0.00    +0.000 OA
ENDBRANCH  20  21
ENDBRANCH  19  20
ENDBRANCH  16  19
ENDBRANCH  14  17
ENDBRANCH   1  14
TORSDOF 6
ENDMDL
MODEL 8
REMARK VINA RESULT:      -7.2      2.394      6.813
REMARK  Name = 
REMARK  6 active torsions:
REMARK  status: ('A' for Active; 'I' for Inactive)
REMARK    1  A    between atoms: C_2  and  C_3
REMARK    2  A    between atoms: C_3  and  C_4
REMARK    3  A    between atoms: C_4  and  C_5
REMARK    4  A    between atoms: N_10  and  C_11
REMARK    5  A    between atoms: C_11  and  C_12
REMARK    6  A    between atoms: C_12  and  C_13
REMARK                            x       y       z     vdW  Elec       q    Type
REMARK                         _______ _______ _______ _____ _____    ______ ____
ROOT
ATOM      1  C   UNL     1       3.841   4.391  18.698  0.00  0.00    +0.000 C 
ATOM      2  C   UNL     1       2.468   4.042  18.043  0.00  0.00    +0.000 C 
ATOM      3  C   UNL     1       2.411   2.594  17.572  0.00  0.00    +0.000 C 
ATOM      4  O   UNL     1       2.570   1.724  18.688  0.00  0.00    +0.000 OA
ATOM      5  C   UNL     1       3.862   1.847  19.270  0.00  0.00    +0.000 C 
ATOM      6  C   UNL     1       4.103   3.271  19.771  0.00  0.00    +0.000 C 
ENDROOT
BRANCH   1   7
ATOM      7  C   UNL     1       4.950   4.484  17.594  0.00  0.00    +0.000 A 
ATOM      8  C   UNL     1       4.652   4.140  16.254  0.00  0.00    +0.000 A 
ATOM      9  C   UNL     1       5.558   4.326  15.202  0.00  0.00    +0.000 A 
ATOM     10  C   UNL     1       6.828   4.813  15.455  0.00  0.00    +0.000 A 
ATOM     11  C   UNL     1       7.191   5.098  16.765  0.00  0.00    +0.000 A 
ATOM     12  C   UNL     1       6.274   4.942  17.822  0.00  0.00    +0.000 A 
ATOM     13 CL   UNL     1       6.920   5.360  19.374  0.00  0.00    +0.000 Cl
ENDBRANCH   1   7
BRANCH   1  14
ATOM     14  C   UNL     1       3.767   5.750  19.481  0.00  0.00    +0.000 C 
BRANCH  14  17
ATOM     15  O   UNL     1       3.938   7.756  17.476  0.00  0.00    +0.000 OA
ATOM     16  C   UNL     1       2.872   7.569  18.048  0.00  0.00    +0.000 C 
ATOM     17  N   UNL     1       2.694   6.643  19.051  0.00  0.00    +0.000 N 
ATOM     18  H   UNL     1       1.738   6.412  19.292  0.00  0.00    +0.000 HD
BRANCH  16  19
ATOM     19  C   UNL     1       1.619   8.348  17.710  0.00  0.00    +0.000 C 
BRANCH  19  20
ATOM     20  C   UNL     1       1.743   9.796  18.174  0.00  0.00    +0.000 C 
BRANCH  20  21
ATOM     21  C   UNL     1       1.029  10.014  19.457  0.00  0.00    +0.000 A 
ATOM     22  C   UNL     1       0.491  11.131  20.063  0.00  0.00    +0.000 A 
ATOM     23  C   UNL     1      -0.051  10.690  21.295  0.00  0.00    +0.000 A 
ATOM     24  C   UNL     1       0.194   9.336  21.359  0.00  0.00    +0.000 A 
ATOM     25  O   UNL     1       0.845   8.918  20.244  0.00  0.00    +0.000 OA
ENDBRANCH  20  21
ENDBRANCH  19  20
ENDBRANCH  16  19
ENDBRANCH  14  17
ENDBRANCH   1  14
TORSDOF 6
ENDMDL
MODEL 9
REMARK VINA RESULT:      -7.2      2.708      7.452
REMARK  Name = 
REMARK  6 active torsions:
REMARK  status: ('A' for Active; 'I' for Inactive)
REMARK    1  A    between atoms: C_2  and  C_3
REMARK    2  A    between atoms: C_3  and  C_4
REMARK    3  A    between atoms: C_4  and  C_5
REMARK    4  A    between atoms: N_10  and  C_11
REMARK    5  A    between atoms: C_11  and  C_12
REMARK    6  A    between atoms: C_12  and  C_13
REMARK                            x       y       z     vdW  Elec       q    Type
REMARK                         _______ _______ _______ _____ _____    ______ ____
ROOT
ATOM      1  C   UNL     1       3.436   4.607  18.159  0.00  0.00    +0.000 C 
ATOM      2  C   UNL     1       2.358   3.674  17.524  0.00  0.00    +0.000 C 
ATOM      3  C   UNL     1       2.657   2.201  17.773  0.00  0.00    +0.000 C 
ATOM      4  O   UNL     1       2.653   1.945  19.175  0.00  0.00    +0.000 OA
ATOM      5  C   UNL     1       3.708   2.629  19.838  0.00  0.00    +0.000 C 
ATOM      6  C   UNL     1       3.580   4.141  19.656  0.00  0.00    +0.000 C 
ENDROOT
BRANCH   1   7
ATOM      7  C   UNL     1       4.769   4.519  17.337  0.00  0.00    +0.000 A 
ATOM      8  C   UNL     1       4.746   4.092  15.988  0.00  0.00    +0.000 A 
ATOM      9  C   UNL     1       5.879   4.117  15.164  0.00  0.00    +0.000 A 
ATOM     10  C   UNL     1       7.101   4.520  15.673  0.00  0.00    +0.000 A 
ATOM     11  C   UNL     1       7.186   4.881  17.011  0.00  0.00    +0.000 A 
ATOM     12  C   UNL     1       6.046   4.887  17.836  0.00  0.00    +0.000 A 
ATOM     13 CL   UNL     1       6.365   5.376  19.466  0.00  0.00    +0.000 Cl
ENDBRANCH   1   7
BRANCH   1  14
ATOM     14  C   UNL     1       2.944   6.097  18.201  0.00  0.00    +0.000 C 
BRANCH  14  17
ATOM     15  O   UNL     1       1.901   8.663  18.833  0.00  0.00    +0.000 OA
ATOM     16  C   UNL     1       1.988   7.817  19.714  0.00  0.00    +0.000 C 
ATOM     17  N   UNL     1       2.504   6.556  19.515  0.00  0.00    +0.000 N 
ATOM     18  H   UNL     1       2.322   5.871  20.238  0.00  0.00    +0.000 HD
BRANCH  16  19
ATOM     19  C   UNL     1       1.532   8.071  21.135  0.00  0.00    +0.000 C 
BRANCH  19  20
ATOM     20  C   UNL     1       0.038   8.370  21.176  0.00  0.00    +0.000 C 
BRANCH  20  21
ATOM     21  C   UNL     1      -0.229   9.814  20.961  0.00  0.00    +0.000 A 
ATOM     22  C   UNL     1       0.072  10.952  21.682  0.00  0.00    +0.000 A 
ATOM     23  C   UNL     1      -0.470  12.038  20.954  0.00  0.00    +0.000 A 
ATOM     24  C   UNL     1      -1.066  11.492  19.839  0.00  0.00    +0.000 A 
ATOM     25  O   UNL     1      -0.920  10.143  19.834  0.00  0.00    +0.000 OA
ENDBRANCH  20  21
ENDBRANCH  19  20
ENDBRANCH  16  19
ENDBRANCH  14  17
ENDBRANCH   1  14
TORSDOF 6
ENDMDL
