MODEL 1
REMARK VINA RESULT:      -8.9      0.000      0.000
REMARK  Name = 
REMARK  9 active torsions:
REMARK  status: ('A' for Active; 'I' for Inactive)
REMARK    1  A    between atoms: C_1  and  O_2
REMARK    2  A    between atoms: O_2  and  C_3
REMARK    3  A    between atoms: C_5  and  C_6
REMARK    4  A    between atoms: C_12  and  C_14
REMARK    5  A    between atoms: C_15  and  C_16
REMARK    6  A    between atoms: C_27  and  O_28
REMARK    7  A    between atoms: O_28  and  C_29
REMARK    8  A    between atoms: C_30  and  O_31
REMARK    9  A    between atoms: O_31  and  C_32
REMARK                            x       y       z     vdW  Elec       q    Type
REMARK                         _______ _______ _______ _____ _____    ______ ____
ROOT
ATOM      1  C   UNL     1       3.785   4.350  16.732  0.00  0.00    +0.000 C 
ATOM      2  C   UNL     1       3.173   3.346  17.382  0.00  0.00    +0.000 C 
ATOM      3  C   UNL     1       3.623   1.936  17.534  0.00  0.00    +0.000 C 
ATOM      4  C   UNL     1       3.649   1.575  19.007  0.00  0.00    +0.000 C 
ATOM      5  C   UNL     1       2.267   1.819  19.597  0.00  0.00    +0.000 C 
ATOM      6  N   UNL     1       1.834   3.203  19.421  0.00  0.00    +0.000 N 
ATOM      7  C   UNL     1       1.367   3.859  20.578  0.00  0.00    +0.000 C 
ATOM      8  O   UNL     1       1.320   3.313  21.674  0.00  0.00    +0.000 OA
ATOM      9  C   UNL     1       1.943   3.771  18.154  0.00  0.00    +0.000 C 
ATOM     10  O   UNL     1       1.135   4.540  17.645  0.00  0.00    +0.000 OA
ENDROOT
BRANCH   1  13
ATOM     11  C   UNL     1       6.330   4.112  13.964  0.00  0.00    +0.000 A 
ATOM     12  C   UNL     1       5.261   3.742  14.806  0.00  0.00    +0.000 A 
ATOM     13  C   UNL     1       5.073   4.376  16.031  0.00  0.00    +0.000 A 
ATOM     14  C   UNL     1       6.044   5.273  16.474  0.00  0.00    +0.000 A 
ATOM     15  C   UNL     1       7.129   5.646  15.663  0.00  0.00    +0.000 A 
ATOM     16  C   UNL     1       7.278   5.078  14.378  0.00  0.00    +0.000 A 
BRANCH  11  18
ATOM     17  C   UNL     1       5.273   3.211  12.033  0.00  0.00    +0.000 C 
ATOM     18  O   UNL     1       6.476   3.520  12.735  0.00  0.00    +0.000 OA
ENDBRANCH  11  18
BRANCH  15  19
ATOM     19  O   UNL     1       7.887   6.605  16.284  0.00  0.00    +0.000 OA
ATOM     20  C   UNL     1       7.387   7.277  17.431  0.00  0.00    +0.000 C 
ENDBRANCH  15  19
BRANCH  16  21
ATOM     21  O   UNL     1       8.361   5.500  13.652  0.00  0.00    +0.000 OA
ATOM     22  C   UNL     1       8.201   5.976  12.322  0.00  0.00    +0.000 C 
ENDBRANCH  16  21
ENDBRANCH   1  13
BRANCH   7  23
ATOM     23  C   UNL     1       0.950   5.282  20.451  0.00  0.00    +0.000 C 
ATOM     24  C   UNL     1       1.880   6.259  20.499  0.00  0.00    +0.000 C 
BRANCH  24  25
ATOM     25  C   UNL     1       1.492   7.664  20.478  0.00  0.00    +0.000 A 
ATOM     26  C   UNL     1       1.025   8.262  21.655  0.00  0.00    +0.000 A 
ATOM     27  C   UNL     1       0.639   9.600  21.644  0.00  0.00    +0.000 A 
ATOM     28  F   UNL     1       0.195  10.164  22.773  0.00  0.00    +0.000 F 
ATOM     29  C   UNL     1       0.705  10.359  20.480  0.00  0.00    +0.000 A 
ATOM     30  C   UNL     1       1.163   9.770  19.301  0.00  0.00    +0.000 A 
ATOM     31  C   UNL     1       1.552   8.431  19.306  0.00  0.00    +0.000 A 
ATOM     32  F   UNL     1       1.984   7.883  18.161  0.00  0.00    +0.000 F 
ENDBRANCH  24  25
ENDBRANCH   7  23
TORSDOF 6
ENDMDL
MODEL 2
REMARK VINA RESULT:      -8.7      3.663      8.671
REMARK  Name = 
REMARK  9 active torsions:
REMARK  status: ('A' for Active; 'I' for Inactive)
REMARK    1  A    between atoms: C_1  and  O_2
REMARK    2  A    between atoms: O_2  and  C_3
REMARK    3  A    between atoms: C_5  and  C_6
REMARK    4  A    between atoms: C_12  and  C_14
REMARK    5  A    between atoms: C_15  and  C_16
REMARK    6  A    between atoms: C_27  and  O_28
REMARK    7  A    between atoms: O_28  and  C_29
REMARK    8  A    between atoms: C_30  and  O_31
REMARK    9  A    between atoms: O_31  and  C_32
REMARK                            x       y       z     vdW  Elec       q    Type
REMARK                         _______ _______ _______ _____ _____    ______ ____
ROOT
ATOM      1  C   UNL     1       2.296   8.524  17.915  0.00  0.00    +0.000 C 
ATOM      2  C   UNL     1       2.616   7.613  18.849  0.00  0.00    +0.000 C 
ATOM      3  C   UNL     1       2.023   7.431  20.201  0.00  0.00    +0.000 C 
ATOM      4  C   UNL     1       1.560   5.995  20.355  0.00  0.00    +0.000 C 
ATOM      5  C   UNL     1       2.740   5.068  20.100  0.00  0.00    +0.000 C 
ATOM      6  N   UNL     1       3.320   5.274  18.775  0.00  0.00    +0.000 N 
ATOM      7  C   UNL     1       3.504   4.118  17.991  0.00  0.00    +0.000 C 
ATOM      8  O   UNL     1       3.199   2.998  18.382  0.00  0.00    +0.000 OA
ATOM      9  C   UNL     1       3.615   6.578  18.381  0.00  0.00    +0.000 C 
ATOM     10  O   UNL     1       4.595   6.922  17.729  0.00  0.00    +0.000 OA
ENDROOT
BRANCH   1  13
ATOM     11  C   UNL     1      -1.097  10.157  18.046  0.00  0.00    +0.000 A 
ATOM     12  C   UNL     1      -0.073   9.279  17.636  0.00  0.00    +0.000 A 
ATOM     13  C   UNL     1       1.259   9.562  17.924  0.00  0.00    +0.000 A 
ATOM     14  C   UNL     1       1.572  10.799  18.489  0.00  0.00    +0.000 A 
ATOM     15  C   UNL     1       0.573  11.700  18.890  0.00  0.00    +0.000 A 
ATOM     16  C   UNL     1      -0.789  11.381  18.688  0.00  0.00    +0.000 A 
BRANCH  11  18
ATOM     17  C   UNL     1      -2.869  10.017  16.466  0.00  0.00    +0.000 C 
ATOM     18  O   UNL     1      -2.411   9.844  17.806  0.00  0.00    +0.000 OA
ENDBRANCH  11  18
BRANCH  15  19
ATOM     19  O   UNL     1       1.129  12.796  19.499  0.00  0.00    +0.000 OA
ATOM     20  C   UNL     1       2.377  13.302  19.052  0.00  0.00    +0.000 C 
ENDBRANCH  15  19
BRANCH  16  21
ATOM     21  O   UNL     1      -1.698  12.314  19.112  0.00  0.00    +0.000 OA
ATOM     22  C   UNL     1      -2.122  12.349  20.468  0.00  0.00    +0.000 C 
ENDBRANCH  16  21
ENDBRANCH   1  13
BRANCH   7  23
ATOM     23  C   UNL     1       4.058   4.287  16.620  0.00  0.00    +0.000 C 
ATOM     24  C   UNL     1       5.296   3.827  16.336  0.00  0.00    +0.000 C 
BRANCH  24  25
ATOM     25  C   UNL     1       5.904   4.066  15.033  0.00  0.00    +0.000 A 
ATOM     26  C   UNL     1       5.439   3.353  13.921  0.00  0.00    +0.000 A 
ATOM     27  C   UNL     1       6.022   3.563  12.674  0.00  0.00    +0.000 A 
ATOM     28  F   UNL     1       5.571   2.878  11.615  0.00  0.00    +0.000 F 
ATOM     29  C   UNL     1       7.065   4.468  12.509  0.00  0.00    +0.000 A 
ATOM     30  C   UNL     1       7.539   5.177  13.613  0.00  0.00    +0.000 A 
ATOM     31  C   UNL     1       6.959   4.973  14.864  0.00  0.00    +0.000 A 
ATOM     32  F   UNL     1       7.433   5.661  15.913  0.00  0.00    +0.000 F 
ENDBRANCH  24  25
ENDBRANCH   7  23
TORSDOF 6
ENDMDL
MODEL 3
REMARK VINA RESULT:      -8.4      3.381      8.614
REMARK  Name = 
REMARK  9 active torsions:
REMARK  status: ('A' for Active; 'I' for Inactive)
REMARK    1  A    between atoms: C_1  and  O_2
REMARK    2  A    between atoms: O_2  and  C_3
REMARK    3  A    between atoms: C_5  and  C_6
REMARK    4  A    between atoms: C_12  and  C_14
REMARK    5  A    between atoms: C_15  and  C_16
REMARK    6  A    between atoms: C_27  and  O_28
REMARK    7  A    between atoms: O_28  and  C_29
REMARK    8  A    between atoms: C_30  and  O_31
REMARK    9  A    between atoms: O_31  and  C_32
REMARK                            x       y       z     vdW  Elec       q    Type
REMARK                         _______ _______ _______ _____ _____    ______ ____
ROOT
ATOM      1  C   UNL     1       2.353   8.003  18.774  0.00  0.00    +0.000 C 
ATOM      2  C   UNL     1       2.480   6.869  19.484  0.00  0.00    +0.000 C 
ATOM      3  C   UNL     1       1.722   6.449  20.694  0.00  0.00    +0.000 C 
ATOM      4  C   UNL     1       1.114   5.081  20.454  0.00  0.00    +0.000 C 
ATOM      5  C   UNL     1       2.226   4.107  20.088  0.00  0.00    +0.000 C 
ATOM      6  N   UNL     1       2.971   4.545  18.910  0.00  0.00    +0.000 N 
ATOM      7  C   UNL     1       3.136   3.589  17.889  0.00  0.00    +0.000 C 
ATOM      8  O   UNL     1       2.687   2.451  17.969  0.00  0.00    +0.000 OA
ATOM      9  C   UNL     1       3.427   5.861  18.871  0.00  0.00    +0.000 C 
ATOM     10  O   UNL     1       4.502   6.230  18.412  0.00  0.00    +0.000 OA
ENDROOT
BRANCH   1  13
ATOM     11  C   UNL     1      -0.649  10.229  18.301  0.00  0.00    +0.000 A 
ATOM     12  C   UNL     1       0.481   9.454  17.970  0.00  0.00    +0.000 A 
ATOM     13  C   UNL     1       1.422   9.123  18.941  0.00  0.00    +0.000 A 
ATOM     14  C   UNL     1       1.304   9.696  20.208  0.00  0.00    +0.000 A 
ATOM     15  C   UNL     1       0.197  10.486  20.559  0.00  0.00    +0.000 A 
ATOM     16  C   UNL     1      -0.813  10.751  19.607  0.00  0.00    +0.000 A 
BRANCH  11  18
ATOM     17  C   UNL     1      -2.801   9.741  17.415  0.00  0.00    +0.000 C 
ATOM     18  O   UNL     1      -1.598  10.505  17.350  0.00  0.00    +0.000 OA
ENDBRANCH  11  18
BRANCH  15  19
ATOM     19  O   UNL     1       0.266  10.852  21.879  0.00  0.00    +0.000 OA
ATOM     20  C   UNL     1      -0.315  10.028  22.878  0.00  0.00    +0.000 C 
ENDBRANCH  15  19
BRANCH  16  21
ATOM     21  O   UNL     1      -1.859  11.527  20.034  0.00  0.00    +0.000 OA
ATOM     22  C   UNL     1      -1.786  12.945  19.957  0.00  0.00    +0.000 C 
ENDBRANCH  16  21
ENDBRANCH   1  13
BRANCH   7  23
ATOM     23  C   UNL     1       3.857   4.004  16.655  0.00  0.00    +0.000 C 
ATOM     24  C   UNL     1       5.112   3.560  16.430  0.00  0.00    +0.000 C 
BRANCH  24  25
ATOM     25  C   UNL     1       5.879   4.029  15.282  0.00  0.00    +0.000 A 
ATOM     26  C   UNL     1       5.596   3.509  14.013  0.00  0.00    +0.000 A 
ATOM     27  C   UNL     1       6.331   3.939  12.911  0.00  0.00    +0.000 A 
ATOM     28  F   UNL     1       6.054   3.438  11.702  0.00  0.00    +0.000 F 
ATOM     29  C   UNL     1       7.350   4.876  13.047  0.00  0.00    +0.000 A 
ATOM     30  C   UNL     1       7.643   5.394  14.308  0.00  0.00    +0.000 A 
ATOM     31  C   UNL     1       6.909   4.970  15.415  0.00  0.00    +0.000 A 
ATOM     32  F   UNL     1       7.211   5.476  16.619  0.00  0.00    +0.000 F 
ENDBRANCH  24  25
ENDBRANCH   7  23
TORSDOF 6
ENDMDL
MODEL 4
REMARK VINA RESULT:      -8.2      0.690      1.514
REMARK  Name = 
REMARK  9 active torsions:
REMARK  status: ('A' for Active; 'I' for Inactive)
REMARK    1  A    between atoms: C_1  and  O_2
REMARK    2  A    between atoms: O_2  and  C_3
REMARK    3  A    between atoms: C_5  and  C_6
REMARK    4  A    between atoms: C_12  and  C_14
REMARK    5  A    between atoms: C_15  and  C_16
REMARK    6  A    between atoms: C_27  and  O_28
REMARK    7  A    between atoms: O_28  and  C_29
REMARK    8  A    between atoms: C_30  and  O_31
REMARK    9  A    between atoms: O_31  and  C_32
REMARK                            x       y       z     vdW  Elec       q    Type
REMARK                         _______ _______ _______ _____ _____    ______ ____
ROOT
ATOM      1  C   UNL     1       3.851   4.386  16.757  0.00  0.00    +0.000 C 
ATOM      2  C   UNL     1       3.285   3.421  17.502  0.00  0.00    +0.000 C 
ATOM      3  C   UNL     1       3.785   2.044  17.760  0.00  0.00    +0.000 C 
ATOM      4  C   UNL     1       3.852   1.808  19.256  0.00  0.00    +0.000 C 
ATOM      5  C   UNL     1       2.474   2.056  19.855  0.00  0.00    +0.000 C 
ATOM      6  N   UNL     1       1.993   3.408  19.576  0.00  0.00    +0.000 N 
ATOM      7  C   UNL     1       1.527   4.142  20.684  0.00  0.00    +0.000 C 
ATOM      8  O   UNL     1       1.520   3.689  21.823  0.00  0.00    +0.000 OA
ATOM      9  C   UNL     1       2.058   3.871  18.263  0.00  0.00    +0.000 C 
ATOM     10  O   UNL     1       1.215   4.570  17.711  0.00  0.00    +0.000 OA
ENDROOT
BRANCH   1  13
ATOM     11  C   UNL     1       6.332   4.092  13.938  0.00  0.00    +0.000 A 
ATOM     12  C   UNL     1       5.280   3.741  14.808  0.00  0.00    +0.000 A 
ATOM     13  C   UNL     1       5.123   4.394  16.028  0.00  0.00    +0.000 A 
ATOM     14  C   UNL     1       6.110   5.291  16.436  0.00  0.00    +0.000 A 
ATOM     15  C   UNL     1       7.178   5.645  15.596  0.00  0.00    +0.000 A 
ATOM     16  C   UNL     1       7.295   5.058  14.316  0.00  0.00    +0.000 A 
BRANCH  11  18
ATOM     17  C   UNL     1       5.229   3.200  12.029  0.00  0.00    +0.000 C 
ATOM     18  O   UNL     1       6.447   3.481  12.715  0.00  0.00    +0.000 OA
ENDBRANCH  11  18
BRANCH  15  19
ATOM     19  O   UNL     1       7.955   6.609  16.186  0.00  0.00    +0.000 OA
ATOM     20  C   UNL     1       7.514   7.253  17.371  0.00  0.00    +0.000 C 
ENDBRANCH  15  19
BRANCH  16  21
ATOM     21  O   UNL     1       8.365   5.462  13.561  0.00  0.00    +0.000 OA
ATOM     22  C   UNL     1       8.168   6.027  12.272  0.00  0.00    +0.000 C 
ENDBRANCH  16  21
ENDBRANCH   1  13
BRANCH   7  23
ATOM     23  C   UNL     1       1.061   5.536  20.450  0.00  0.00    +0.000 C 
ATOM     24  C   UNL     1       1.963   6.536  20.351  0.00  0.00    +0.000 C 
BRANCH  24  25
ATOM     25  C   UNL     1       1.533   7.923  20.222  0.00  0.00    +0.000 A 
ATOM     26  C   UNL     1       1.724   8.587  19.004  0.00  0.00    +0.000 A 
ATOM     27  C   UNL     1       1.330   9.916  18.873  0.00  0.00    +0.000 A 
ATOM     28  F   UNL     1       1.515  10.544  17.705  0.00  0.00    +0.000 F 
ATOM     29  C   UNL     1       0.751  10.604  19.934  0.00  0.00    +0.000 A 
ATOM     30  C   UNL     1       0.564   9.952  21.153  0.00  0.00    +0.000 A 
ATOM     31  C   UNL     1       0.954   8.621  21.291  0.00  0.00    +0.000 A 
ATOM     32  F   UNL     1       0.770   8.016  22.473  0.00  0.00    +0.000 F 
ENDBRANCH  24  25
ENDBRANCH   7  23
TORSDOF 6
ENDMDL
MODEL 5
REMARK VINA RESULT:      -8.2      3.313      8.668
REMARK  Name = 
REMARK  9 active torsions:
REMARK  status: ('A' for Active; 'I' for Inactive)
REMARK    1  A    between atoms: C_1  and  O_2
REMARK    2  A    between atoms: O_2  and  C_3
REMARK    3  A    between atoms: C_5  and  C_6
REMARK    4  A    between atoms: C_12  and  C_14
REMARK    5  A    between atoms: C_15  and  C_16
REMARK    6  A    between atoms: C_27  and  O_28
REMARK    7  A    between atoms: O_28  and  C_29
REMARK    8  A    between atoms: C_30  and  O_31
REMARK    9  A    between atoms: O_31  and  C_32
REMARK                            x       y       z     vdW  Elec       q    Type
REMARK                         _______ _______ _______ _____ _____    ______ ____
ROOT
ATOM      1  C   UNL     1       2.493   7.325  19.604  0.00  0.00    +0.000 C 
ATOM      2  C   UNL     1       2.475   6.042  20.002  0.00  0.00    +0.000 C 
ATOM      3  C   UNL     1       1.587   5.402  21.010  0.00  0.00    +0.000 C 
ATOM      4  C   UNL     1       0.903   4.202  20.384  0.00  0.00    +0.000 C 
ATOM      5  C   UNL     1       1.967   3.253  19.849  0.00  0.00    +0.000 C 
ATOM      6  N   UNL     1       2.840   3.905  18.875  0.00  0.00    +0.000 N 
ATOM      7  C   UNL     1       3.021   3.227  17.653  0.00  0.00    +0.000 C 
ATOM      8  O   UNL     1       2.484   2.154  17.406  0.00  0.00    +0.000 OA
ATOM      9  C   UNL     1       3.394   5.139  19.209  0.00  0.00    +0.000 C 
ATOM     10  O   UNL     1       4.528   5.510  18.931  0.00  0.00    +0.000 OA
ENDROOT
BRANCH   1  13
ATOM     11  C   UNL     1       0.772   9.902  21.747  0.00  0.00    +0.000 A 
ATOM     12  C   UNL     1       1.222   8.639  21.312  0.00  0.00    +0.000 A 
ATOM     13  C   UNL     1       1.636   8.449  19.997  0.00  0.00    +0.000 A 
ATOM     14  C   UNL     1       1.455   9.488  19.084  0.00  0.00    +0.000 A 
ATOM     15  C   UNL     1       0.991  10.751  19.487  0.00  0.00    +0.000 A 
ATOM     16  C   UNL     1       0.657  10.983  20.840  0.00  0.00    +0.000 A 
BRANCH  11  18
ATOM     17  C   UNL     1      -0.980  10.065  23.348  0.00  0.00    +0.000 C 
ATOM     18  O   UNL     1       0.417  10.093  23.059  0.00  0.00    +0.000 OA
ENDBRANCH  11  18
BRANCH  15  19
ATOM     19  O   UNL     1       0.988  11.622  18.428  0.00  0.00    +0.000 OA
ATOM     20  C   UNL     1       2.046  12.556  18.270  0.00  0.00    +0.000 C 
ENDBRANCH  15  19
BRANCH  16  21
ATOM     21  O   UNL     1       0.216  12.243  21.147  0.00  0.00    +0.000 OA
ATOM     22  C   UNL     1      -1.093  12.661  20.782  0.00  0.00    +0.000 C 
ENDBRANCH  16  21
ENDBRANCH   1  13
BRANCH   7  23
ATOM     23  C   UNL     1       3.873   3.873  16.618  0.00  0.00    +0.000 C 
ATOM     24  C   UNL     1       4.999   3.258  16.197  0.00  0.00    +0.000 C 
BRANCH  24  25
ATOM     25  C   UNL     1       5.904   3.910  15.260  0.00  0.00    +0.000 A 
ATOM     26  C   UNL     1       5.822   3.595  13.898  0.00  0.00    +0.000 A 
ATOM     27  C   UNL     1       6.691   4.201  12.995  0.00  0.00    +0.000 A 
ATOM     28  F   UNL     1       6.605   3.895  11.695  0.00  0.00    +0.000 F 
ATOM     29  C   UNL     1       7.648   5.116  13.420  0.00  0.00    +0.000 A 
ATOM     30  C   UNL     1       7.742   5.432  14.775  0.00  0.00    +0.000 A 
ATOM     31  C   UNL     1       6.874   4.830  15.685  0.00  0.00    +0.000 A 
ATOM     32  F   UNL     1       6.985   5.142  16.984  0.00  0.00    +0.000 F 
ENDBRANCH  24  25
ENDBRANCH   7  23
TORSDOF 6
ENDMDL
MODEL 6
REMARK VINA RESULT:      -8.2      3.690      8.692
REMARK  Name = 
REMARK  9 active torsions:
REMARK  status: ('A' for Active; 'I' for Inactive)
REMARK    1  A    between atoms: C_1  and  O_2
REMARK    2  A    between atoms: O_2  and  C_3
REMARK    3  A    between atoms: C_5  and  C_6
REMARK    4  A    between atoms: C_12  and  C_14
REMARK    5  A    between atoms: C_15  and  C_16
REMARK    6  A    between atoms: C_27  and  O_28
REMARK    7  A    between atoms: O_28  and  C_29
REMARK    8  A    between atoms: C_30  and  O_31
REMARK    9  A    between atoms: O_31  and  C_32
REMARK                            x       y       z     vdW  Elec       q    Type
REMARK                         _______ _______ _______ _____ _____    ______ ____
ROOT
ATOM      1  C   UNL     1       2.763   8.423  17.669  0.00  0.00    +0.000 C 
ATOM      2  C   UNL     1       3.051   7.399  18.490  0.00  0.00    +0.000 C 
ATOM      3  C   UNL     1       2.422   7.059  19.795  0.00  0.00    +0.000 C 
ATOM      4  C   UNL     1       1.941   5.622  19.760  0.00  0.00    +0.000 C 
ATOM      5  C   UNL     1       3.118   4.718  19.421  0.00  0.00    +0.000 C 
ATOM      6  N   UNL     1       3.734   5.079  18.145  0.00  0.00    +0.000 N 
ATOM      7  C   UNL     1       3.926   4.026  17.229  0.00  0.00    +0.000 C 
ATOM      8  O   UNL     1       3.600   2.870  17.472  0.00  0.00    +0.000 OA
ATOM      9  C   UNL     1       4.051   6.417  17.923  0.00  0.00    +0.000 C 
ATOM     10  O   UNL     1       5.051   6.826  17.342  0.00  0.00    +0.000 OA
ENDROOT
BRANCH   1  13
ATOM     11  C   UNL     1      -0.586  10.072  18.176  0.00  0.00    +0.000 A 
ATOM     12  C   UNL     1       0.379   9.181  17.664  0.00  0.00    +0.000 A 
ATOM     13  C   UNL     1       1.737   9.465  17.781  0.00  0.00    +0.000 A 
ATOM     14  C   UNL     1       2.118  10.712  18.276  0.00  0.00    +0.000 A 
ATOM     15  C   UNL     1       1.176  11.626  18.776  0.00  0.00    +0.000 A 
ATOM     16  C   UNL     1      -0.201  11.308  18.749  0.00  0.00    +0.000 A 
BRANCH  11  18
ATOM     17  C   UNL     1      -2.555   9.975  16.845  0.00  0.00    +0.000 C 
ATOM     18  O   UNL     1      -1.920   9.759  18.104  0.00  0.00    +0.000 OA
ENDBRANCH  11  18
BRANCH  15  19
ATOM     19  O   UNL     1       1.804  12.732  19.288  0.00  0.00    +0.000 OA
ATOM     20  C   UNL     1       2.235  13.772  18.423  0.00  0.00    +0.000 C 
ENDBRANCH  15  19
BRANCH  16  21
ATOM     21  O   UNL     1      -1.050  12.254  19.259  0.00  0.00    +0.000 OA
ATOM     22  C   UNL     1      -1.453  12.206  20.621  0.00  0.00    +0.000 C 
ENDBRANCH  16  21
ENDBRANCH   1  13
BRANCH   7  23
ATOM     23  C   UNL     1       4.517   4.355  15.903  0.00  0.00    +0.000 C 
ATOM     24  C   UNL     1       5.643   3.730  15.498  0.00  0.00    +0.000 C 
BRANCH  24  25
ATOM     25  C   UNL     1       6.299   4.103  14.250  0.00  0.00    +0.000 A 
ATOM     26  C   UNL     1       7.402   4.965  14.290  0.00  0.00    +0.000 A 
ATOM     27  C   UNL     1       8.028   5.339  13.104  0.00  0.00    +0.000 A 
ATOM     28  F   UNL     1       9.082   6.163  13.150  0.00  0.00    +0.000 F 
ATOM     29  C   UNL     1       7.577   4.874  11.873  0.00  0.00    +0.000 A 
ATOM     30  C   UNL     1       6.476   4.020  11.824  0.00  0.00    +0.000 A 
ATOM     31  C   UNL     1       5.844   3.640  13.008  0.00  0.00    +0.000 A 
ATOM     32  F   UNL     1       4.784   2.823  12.938  0.00  0.00    +0.000 F 
ENDBRANCH  24  25
ENDBRANCH   7  23
TORSDOF 6
ENDMDL
MODEL 7
REMARK VINA RESULT:      -8.1      4.457      9.350
REMARK  Name = 
REMARK  9 active torsions:
REMARK  status: ('A' for Active; 'I' for Inactive)
REMARK    1  A    between atoms: C_1  and  O_2
REMARK    2  A    between atoms: O_2  and  C_3
REMARK    3  A    between atoms: C_5  and  C_6
REMARK    4  A    between atoms: C_12  and  C_14
REMARK    5  A    between atoms: C_15  and  C_16
REMARK    6  A    between atoms: C_27  and  O_28
REMARK    7  A    between atoms: O_28  and  C_29
REMARK    8  A    between atoms: C_30  and  O_31
REMARK    9  A    between atoms: O_31  and  C_32
REMARK                            x       y       z     vdW  Elec       q    Type
REMARK                         _______ _______ _______ _____ _____    ______ ____
ROOT
ATOM      1  C   UNL     1      -0.152  10.008  18.260  0.00  0.00    +0.000 C 
ATOM      2  C   UNL     1       0.321   9.698  19.478  0.00  0.00    +0.000 C 
ATOM      3  C   UNL     1      -0.282   9.997  20.805  0.00  0.00    +0.000 C 
ATOM      4  C   UNL     1      -0.411   8.711  21.598  0.00  0.00    +0.000 C 
ATOM      5  C   UNL     1       0.961   8.062  21.708  0.00  0.00    +0.000 C 
ATOM      6  N   UNL     1       1.545   7.792  20.396  0.00  0.00    +0.000 N 
ATOM      7  C   UNL     1       2.027   6.485  20.188  0.00  0.00    +0.000 C 
ATOM      8  O   UNL     1       1.968   5.613  21.047  0.00  0.00    +0.000 OA
ATOM      9  C   UNL     1       1.553   8.820  19.456  0.00  0.00    +0.000 C 
ATOM     10  O   UNL     1       2.459   9.056  18.665  0.00  0.00    +0.000 OA
ENDROOT
BRANCH   1  13
ATOM     11  C   UNL     1      -3.448  10.676  16.561  0.00  0.00    +0.000 A 
ATOM     12  C   UNL     1      -2.085  10.345  16.708  0.00  0.00    +0.000 A 
ATOM     13  C   UNL     1      -1.398  10.678  17.872  0.00  0.00    +0.000 A 
ATOM     14  C   UNL     1      -2.038  11.474  18.821  0.00  0.00    +0.000 A 
ATOM     15  C   UNL     1      -3.390  11.834  18.691  0.00  0.00    +0.000 A 
ATOM     16  C   UNL     1      -4.125  11.421  17.557  0.00  0.00    +0.000 A 
BRANCH  11  18
ATOM     17  C   UNL     1      -3.355  10.121  14.251  0.00  0.00    +0.000 C 
ATOM     18  O   UNL     1      -4.132  10.296  15.434  0.00  0.00    +0.000 OA
ENDBRANCH  11  18
BRANCH  15  19
ATOM     19  O   UNL     1      -3.809  12.535  19.792  0.00  0.00    +0.000 OA
ATOM     20  C   UNL     1      -2.929  12.736  20.887  0.00  0.00    +0.000 C 
ENDBRANCH  15  19
BRANCH  16  21
ATOM     21  O   UNL     1      -5.437  11.812  17.511  0.00  0.00    +0.000 OA
ATOM     22  C   UNL     1      -6.441  11.057  18.177  0.00  0.00    +0.000 C 
ENDBRANCH  16  21
ENDBRANCH   1  13
BRANCH   7  23
ATOM     23  C   UNL     1       2.597   6.157  18.853  0.00  0.00    +0.000 C 
ATOM     24  C   UNL     1       3.878   5.741  18.755  0.00  0.00    +0.000 C 
BRANCH  24  25
ATOM     25  C   UNL     1       4.493   5.508  17.454  0.00  0.00    +0.000 A 
ATOM     26  C   UNL     1       4.893   4.211  17.108  0.00  0.00    +0.000 A 
ATOM     27  C   UNL     1       5.494   3.979  15.874  0.00  0.00    +0.000 A 
ATOM     28  F   UNL     1       5.871   2.737  15.551  0.00  0.00    +0.000 F 
ATOM     29  C   UNL     1       5.711   5.016  14.973  0.00  0.00    +0.000 A 
ATOM     30  C   UNL     1       5.323   6.312  15.311  0.00  0.00    +0.000 A 
ATOM     31  C   UNL     1       4.718   6.552  16.545  0.00  0.00    +0.000 A 
ATOM     32  F   UNL     1       4.358   7.805  16.852  0.00  0.00    +0.000 F 
ENDBRANCH  24  25
ENDBRANCH   7  23
TORSDOF 6
ENDMDL
MODEL 8
REMARK VINA RESULT:      -8.1      4.487      9.373
REMARK  Name = 
REMARK  9 active torsions:
REMARK  status: ('A' for Active; 'I' for Inactive)
REMARK    1  A    between atoms: C_1  and  O_2
REMARK    2  A    between atoms: O_2  and  C_3
REMARK    3  A    between atoms: C_5  and  C_6
REMARK    4  A    between atoms: C_12  and  C_14
REMARK    5  A    between atoms: C_15  and  C_16
REMARK    6  A    between atoms: C_27  and  O_28
REMARK    7  A    between atoms: O_28  and  C_29
REMARK    8  A    between atoms: C_30  and  O_31
REMARK    9  A    between atoms: O_31  and  C_32
REMARK                            x       y       z     vdW  Elec       q    Type
REMARK                         _______ _______ _______ _____ _____    ______ ____
ROOT
ATOM      1  C   UNL     1      -0.198  10.060  18.282  0.00  0.00    +0.000 C 
ATOM      2  C   UNL     1       0.282   9.785  19.507  0.00  0.00    +0.000 C 
ATOM      3  C   UNL     1      -0.315  10.121  20.828  0.00  0.00    +0.000 C 
ATOM      4  C   UNL     1      -0.439   8.858  21.657  0.00  0.00    +0.000 C 
ATOM      5  C   UNL     1       0.935   8.214  21.779  0.00  0.00    +0.000 C 
ATOM      6  N   UNL     1       1.513   7.908  20.472  0.00  0.00    +0.000 N 
ATOM      7  C   UNL     1       1.997   6.596  20.299  0.00  0.00    +0.000 C 
ATOM      8  O   UNL     1       1.943   5.749  21.183  0.00  0.00    +0.000 OA
ATOM      9  C   UNL     1       1.515   8.909  19.503  0.00  0.00    +0.000 C 
ATOM     10  O   UNL     1       2.417   9.124  18.701  0.00  0.00    +0.000 OA
ENDROOT
BRANCH   1  13
ATOM     11  C   UNL     1      -3.478  10.699  16.542  0.00  0.00    +0.000 A 
ATOM     12  C   UNL     1      -2.113  10.384  16.706  0.00  0.00    +0.000 A 
ATOM     13  C   UNL     1      -1.447  10.717  17.882  0.00  0.00    +0.000 A 
ATOM     14  C   UNL     1      -2.111  11.498  18.828  0.00  0.00    +0.000 A 
ATOM     15  C   UNL     1      -3.465  11.841  18.681  0.00  0.00    +0.000 A 
ATOM     16  C   UNL     1      -4.179  11.427  17.534  0.00  0.00    +0.000 A 
BRANCH  11  18
ATOM     17  C   UNL     1      -3.341  10.141  14.234  0.00  0.00    +0.000 C 
ATOM     18  O   UNL     1      -4.141  10.319  15.402  0.00  0.00    +0.000 OA
ENDBRANCH  11  18
BRANCH  15  19
ATOM     19  O   UNL     1      -3.910  12.527  19.782  0.00  0.00    +0.000 OA
ATOM     20  C   UNL     1      -2.980  13.126  20.672  0.00  0.00    +0.000 C 
ENDBRANCH  15  19
BRANCH  16  21
ATOM     21  O   UNL     1      -5.495  11.802  17.472  0.00  0.00    +0.000 OA
ATOM     22  C   UNL     1      -6.496  11.038  18.132  0.00  0.00    +0.000 C 
ENDBRANCH  16  21
ENDBRANCH   1  13
BRANCH   7  23
ATOM     23  C   UNL     1       2.561   6.232  18.971  0.00  0.00    +0.000 C 
ATOM     24  C   UNL     1       3.774   5.645  18.896  0.00  0.00    +0.000 C 
BRANCH  24  25
ATOM     25  C   UNL     1       4.395   5.367  17.606  0.00  0.00    +0.000 A 
ATOM     26  C   UNL     1       4.569   6.414  16.692  0.00  0.00    +0.000 A 
ATOM     27  C   UNL     1       5.148   6.158  15.452  0.00  0.00    +0.000 A 
ATOM     28  F   UNL     1       5.311   7.164  14.584  0.00  0.00    +0.000 F 
ATOM     29  C   UNL     1       5.556   4.877  15.098  0.00  0.00    +0.000 A 
ATOM     30  C   UNL     1       5.380   3.827  16.000  0.00  0.00    +0.000 A 
ATOM     31  C   UNL     1       4.803   4.076  17.244  0.00  0.00    +0.000 A 
ATOM     32  F   UNL     1       4.638   3.052  18.093  0.00  0.00    +0.000 F 
ENDBRANCH  24  25
ENDBRANCH   7  23
TORSDOF 6
ENDMDL
MODEL 9
REMARK VINA RESULT:      -7.9      3.423      8.733
REMARK  Name = 
REMARK  9 active torsions:
REMARK  status: ('A' for Active; 'I' for Inactive)
REMARK    1  A    between atoms: C_1  and  O_2
REMARK    2  A    between atoms: O_2  and  C_3
REMARK    3  A    between atoms: C_5  and  C_6
REMARK    4  A    between atoms: C_12  and  C_14
REMARK    5  A    between atoms: C_15  and  C_16
REMARK    6  A    between atoms: C_27  and  O_28
REMARK    7  A    between atoms: O_28  and  C_29
REMARK    8  A    between atoms: C_30  and  O_31
REMARK    9  A    between atoms: O_31  and  C_32
REMARK                            x       y       z     vdW  Elec       q    Type
REMARK                         _______ _______ _______ _____ _____    ______ ____
ROOT
ATOM      1  C   UNL     1       2.255   7.611  19.105  0.00  0.00    +0.000 C 
ATOM      2  C   UNL     1       2.473   6.438  19.724  0.00  0.00    +0.000 C 
ATOM      3  C   UNL     1       1.738   5.853  20.877  0.00  0.00    +0.000 C 
ATOM      4  C   UNL     1       1.261   4.461  20.513  0.00  0.00    +0.000 C 
ATOM      5  C   UNL     1       2.462   3.624  20.095  0.00  0.00    +0.000 C 
ATOM      6  N   UNL     1       3.181   4.223  18.973  0.00  0.00    +0.000 N 
ATOM      7  C   UNL     1       3.448   3.374  17.881  0.00  0.00    +0.000 C 
ATOM      8  O   UNL     1       3.103   2.198  17.858  0.00  0.00    +0.000 OA
ATOM      9  C   UNL     1       3.517   5.574  19.052  0.00  0.00    +0.000 C 
ATOM     10  O   UNL     1       4.561   6.074  18.648  0.00  0.00    +0.000 OA
ENDROOT
BRANCH   1  13
ATOM     11  C   UNL     1       0.497  10.629  20.519  0.00  0.00    +0.000 A 
ATOM     12  C   UNL     1       1.209   9.412  20.491  0.00  0.00    +0.000 A 
ATOM     13  C   UNL     1       1.224   8.627  19.342  0.00  0.00    +0.000 A 
ATOM     14  C   UNL     1       0.401   8.989  18.275  0.00  0.00    +0.000 A 
ATOM     15  C   UNL     1      -0.333  10.187  18.283  0.00  0.00    +0.000 A 
ATOM     16  C   UNL     1      -0.280  11.040  19.409  0.00  0.00    +0.000 A 
BRANCH  11  18
ATOM     17  C   UNL     1      -0.578  11.315  22.526  0.00  0.00    +0.000 C 
ATOM     18  O   UNL     1       0.532  11.423  21.637  0.00  0.00    +0.000 OA
ENDBRANCH  11  18
BRANCH  15  19
ATOM     19  O   UNL     1      -0.984  10.361  17.089  0.00  0.00    +0.000 OA
ATOM     20  C   UNL     1      -2.307   9.877  16.922  0.00  0.00    +0.000 C 
ENDBRANCH  15  19
BRANCH  16  21
ATOM     21  O   UNL     1      -1.023  12.189  19.332  0.00  0.00    +0.000 OA
ATOM     22  C   UNL     1      -0.463  13.378  18.791  0.00  0.00    +0.000 C 
ENDBRANCH  16  21
ENDBRANCH   1  13
BRANCH   7  23
ATOM     23  C   UNL     1       4.147   3.953  16.702  0.00  0.00    +0.000 C 
ATOM     24  C   UNL     1       5.294   3.394  16.261  0.00  0.00    +0.000 C 
BRANCH  24  25
ATOM     25  C   UNL     1       6.053   3.998  15.173  0.00  0.00    +0.000 A 
ATOM     26  C   UNL     1       5.822   3.570  13.859  0.00  0.00    +0.000 A 
ATOM     27  C   UNL     1       6.550   4.130  12.813  0.00  0.00    +0.000 A 
ATOM     28  F   UNL     1       6.322   3.716  11.560  0.00  0.00    +0.000 F 
ATOM     29  C   UNL     1       7.511   5.108  13.046  0.00  0.00    +0.000 A 
ATOM     30  C   UNL     1       7.753   5.535  14.352  0.00  0.00    +0.000 A 
ATOM     31  C   UNL     1       7.026   4.981  15.404  0.00  0.00    +0.000 A 
ATOM     32  F   UNL     1       7.278   5.401  16.652  0.00  0.00    +0.000 F 
ENDBRANCH  24  25
ENDBRANCH   7  23
TORSDOF 6
ENDMDL
