MODEL 1
REMARK VINA RESULT:      -9.1      0.000      0.000
REMARK  Name = 
REMARK  5 active torsions:
REMARK  status: ('A' for Active; 'I' for Inactive)
REMARK    1  A    between atoms: C_7  and  C_8
REMARK    2  A    between atoms: C_11  and  O_12
REMARK    3  A    between atoms: O_12  and  C_13
REMARK    4  A    between atoms: C_17  and  C_19
REMARK    5  A    between atoms: C_23  and  C_24
REMARK                            x       y       z     vdW  Elec       q    Type
REMARK                         _______ _______ _______ _____ _____    ______ ____
ROOT
ATOM      1  O   UNL     1      -0.165  10.315  19.380  0.00  0.00    +0.000 OA
ENDROOT
BRANCH   1   2
ATOM      2  C   UNL     1      -0.522  11.050  18.193  0.00  0.00    +0.000 C 
ATOM      3  C   UNL     1      -1.043  12.443  18.530  0.00  0.00    +0.000 C 
ATOM      4  C   UNL     1      -2.381  12.377  19.243  0.00  0.00    +0.000 C 
ATOM      5  N   UNL     1      -3.415  11.582  18.588  0.00  0.00    +0.000 N 
ATOM      6  C   UNL     1      -4.795  11.688  18.902  0.00  0.00    +0.000 C 
ATOM      7  O   UNL     1      -5.649  10.980  18.366  0.00  0.00    +0.000 OA
ATOM      8  C   UNL     1      -2.991  10.313  17.996  0.00  0.00    +0.000 C 
ATOM      9  C   UNL     1      -1.593  10.315  17.379  0.00  0.00    +0.000 C 
BRANCH   6  10
ATOM     10  C   UNL     1      -5.275  12.689  19.907  0.00  0.00    +0.000 A 
ATOM     11  C   UNL     1      -5.888  13.870  19.476  0.00  0.00    +0.000 A 
ATOM     12  C   UNL     1      -6.287  14.839  20.405  0.00  0.00    +0.000 A 
ATOM     13  C   UNL     1      -6.036  14.655  21.769  0.00  0.00    +0.000 A 
ATOM     14  C   UNL     1      -5.459  13.466  22.219  0.00  0.00    +0.000 A 
ATOM     15  C   UNL     1      -5.169  12.463  21.283  0.00  0.00    +0.000 A 
BRANCH  14  16
ATOM     16  C   UNL     1      -5.067  13.244  23.660  0.00  0.00    +0.000 C 
ATOM     17  F   UNL     1      -4.595  14.356  24.282  0.00  0.00    +0.000 F 
ATOM     18  F   UNL     1      -6.099  12.787  24.420  0.00  0.00    +0.000 F 
ATOM     19  F   UNL     1      -4.083  12.305  23.773  0.00  0.00    +0.000 F 
ENDBRANCH  14  16
ENDBRANCH   6  10
ENDBRANCH   1   2
BRANCH   1  23
ATOM     20  C   UNL     1       2.683   7.218  19.252  0.00  0.00    +0.000 A 
ATOM     21  C   UNL     1       1.930   7.486  20.399  0.00  0.00    +0.000 A 
ATOM     22  C   UNL     1       0.965   8.509  20.393  0.00  0.00    +0.000 A 
ATOM     23  C   UNL     1       0.748   9.288  19.251  0.00  0.00    +0.000 A 
ATOM     24  C   UNL     1       1.468   8.977  18.095  0.00  0.00    +0.000 A 
ATOM     25  C   UNL     1       2.428   7.954  18.096  0.00  0.00    +0.000 A 
BRANCH  20  32
ATOM     26  O   UNL     1       3.821   0.889  18.527  0.00  0.00    +0.000 OA
ATOM     27  C   UNL     1       3.790   2.102  18.693  0.00  0.00    +0.000 C 
ATOM     28  N   UNL     1       4.923   2.820  18.929  0.00  0.00    +0.000 N 
ATOM     29  C   UNL     1       5.010   4.163  19.130  0.00  0.00    +0.000 C 
ATOM     30  O   UNL     1       6.091   4.705  19.340  0.00  0.00    +0.000 OA
ATOM     31  C   UNL     1       3.720   4.910  19.065  0.00  0.00    +0.000 C 
ATOM     32  C   UNL     1       3.779   6.240  19.277  0.00  0.00    +0.000 C 
ATOM     33  C   UNL     1       2.473   4.160  18.780  0.00  0.00    +0.000 C 
ATOM     34  O   UNL     1       1.366   4.668  18.658  0.00  0.00    +0.000 OA
ATOM     35  N   UNL     1       2.627   2.804  18.639  0.00  0.00    +0.000 N 
ATOM     36  H   UNL     1       5.787   2.298  18.962  0.00  0.00    +0.000 HD
ATOM     37  H   UNL     1       1.787   2.275  18.451  0.00  0.00    +0.000 HD
ENDBRANCH  20  32
ENDBRANCH   1  23
TORSDOF 5
ENDMDL
MODEL 2
REMARK VINA RESULT:      -8.9      4.559      5.712
REMARK  Name = 
REMARK  5 active torsions:
REMARK  status: ('A' for Active; 'I' for Inactive)
REMARK    1  A    between atoms: C_7  and  C_8
REMARK    2  A    between atoms: C_11  and  O_12
REMARK    3  A    between atoms: O_12  and  C_13
REMARK    4  A    between atoms: C_17  and  C_19
REMARK    5  A    between atoms: C_23  and  C_24
REMARK                            x       y       z     vdW  Elec       q    Type
REMARK                         _______ _______ _______ _____ _____    ______ ____
ROOT
ATOM      1  O   UNL     1       1.011  10.337  20.153  0.00  0.00    +0.000 OA
ENDROOT
BRANCH   1   2
ATOM      2  C   UNL     1      -0.402  10.608  20.245  0.00  0.00    +0.000 C 
ATOM      3  C   UNL     1      -0.861  11.570  19.155  0.00  0.00    +0.000 C 
ATOM      4  C   UNL     1      -0.285  12.959  19.362  0.00  0.00    +0.000 C 
ATOM      5  N   UNL     1      -0.485  13.542  20.685  0.00  0.00    +0.000 N 
ATOM      6  C   UNL     1      -0.340  14.927  20.955  0.00  0.00    +0.000 C 
ATOM      7  O   UNL     1      -0.474  15.396  22.086  0.00  0.00    +0.000 OA
ATOM      8  C   UNL     1      -0.311  12.648  21.829  0.00  0.00    +0.000 C 
ATOM      9  C   UNL     1      -0.769  11.207  21.608  0.00  0.00    +0.000 C 
BRANCH   6  10
ATOM     10  C   UNL     1      -0.024  15.892  19.853  0.00  0.00    +0.000 A 
ATOM     11  C   UNL     1      -1.029  16.724  19.347  0.00  0.00    +0.000 A 
ATOM     12  C   UNL     1      -0.759  17.587  18.276  0.00  0.00    +0.000 A 
ATOM     13  C   UNL     1       0.504  17.593  17.676  0.00  0.00    +0.000 A 
ATOM     14  C   UNL     1       1.528  16.796  18.193  0.00  0.00    +0.000 A 
ATOM     15  C   UNL     1       1.268  16.022  19.333  0.00  0.00    +0.000 A 
BRANCH  14  16
ATOM     16  C   UNL     1       2.880  16.676  17.534  0.00  0.00    +0.000 C 
ATOM     17  F   UNL     1       3.916  17.081  18.317  0.00  0.00    +0.000 F 
ATOM     18  F   UNL     1       3.166  15.402  17.148  0.00  0.00    +0.000 F 
ATOM     19  F   UNL     1       2.953  17.429  16.398  0.00  0.00    +0.000 F 
ENDBRANCH  14  16
ENDBRANCH   6  10
ENDBRANCH   1   2
BRANCH   1  23
ATOM     20  C   UNL     1       2.356   6.675  18.570  0.00  0.00    +0.000 A 
ATOM     21  C   UNL     1       2.157   6.863  19.941  0.00  0.00    +0.000 A 
ATOM     22  C   UNL     1       1.676   8.091  20.429  0.00  0.00    +0.000 A 
ATOM     23  C   UNL     1       1.402   9.153  19.561  0.00  0.00    +0.000 A 
ATOM     24  C   UNL     1       1.553   8.938  18.188  0.00  0.00    +0.000 A 
ATOM     25  C   UNL     1       2.028   7.713  17.697  0.00  0.00    +0.000 A 
BRANCH  20  32
ATOM     26  O   UNL     1       7.879   4.489  16.003  0.00  0.00    +0.000 OA
ATOM     27  C   UNL     1       6.772   4.726  16.471  0.00  0.00    +0.000 C 
ATOM     28  N   UNL     1       5.838   3.748  16.629  0.00  0.00    +0.000 N 
ATOM     29  C   UNL     1       4.582   3.894  17.132  0.00  0.00    +0.000 C 
ATOM     30  O   UNL     1       3.819   2.937  17.222  0.00  0.00    +0.000 OA
ATOM     31  C   UNL     1       4.217   5.274  17.567  0.00  0.00    +0.000 C 
ATOM     32  C   UNL     1       2.973   5.446  18.054  0.00  0.00    +0.000 C 
ATOM     33  C   UNL     1       5.225   6.354  17.436  0.00  0.00    +0.000 C 
ATOM     34  O   UNL     1       5.057   7.511  17.799  0.00  0.00    +0.000 OA
ATOM     35  N   UNL     1       6.417   5.976  16.874  0.00  0.00    +0.000 N 
ATOM     36  H   UNL     1       6.106   2.820  16.335  0.00  0.00    +0.000 HD
ATOM     37  H   UNL     1       7.113   6.700  16.771  0.00  0.00    +0.000 HD
ENDBRANCH  20  32
ENDBRANCH   1  23
TORSDOF 5
ENDMDL
MODEL 3
REMARK VINA RESULT:      -8.5      0.916      1.277
REMARK  Name = 
REMARK  5 active torsions:
REMARK  status: ('A' for Active; 'I' for Inactive)
REMARK    1  A    between atoms: C_7  and  C_8
REMARK    2  A    between atoms: C_11  and  O_12
REMARK    3  A    between atoms: O_12  and  C_13
REMARK    4  A    between atoms: C_17  and  C_19
REMARK    5  A    between atoms: C_23  and  C_24
REMARK                            x       y       z     vdW  Elec       q    Type
REMARK                         _______ _______ _______ _____ _____    ______ ____
ROOT
ATOM      1  O   UNL     1      -0.569  10.111  19.345  0.00  0.00    +0.000 OA
ENDROOT
BRANCH   1   2
ATOM      2  C   UNL     1      -0.699  11.262  18.488  0.00  0.00    +0.000 C 
ATOM      3  C   UNL     1      -0.941  12.535  19.291  0.00  0.00    +0.000 C 
ATOM      4  C   UNL     1      -2.303  12.518  19.961  0.00  0.00    +0.000 C 
ATOM      5  N   UNL     1      -3.439  12.230  19.091  0.00  0.00    +0.000 N 
ATOM      6  C   UNL     1      -4.783  12.514  19.446  0.00  0.00    +0.000 C 
ATOM      7  O   UNL     1      -5.732  12.228  18.715  0.00  0.00    +0.000 OA
ATOM      8  C   UNL     1      -3.251  11.177  18.093  0.00  0.00    +0.000 C 
ATOM      9  C   UNL     1      -1.850  11.090  17.490  0.00  0.00    +0.000 C 
BRANCH   6  10
ATOM     10  C   UNL     1      -5.104  13.193  20.742  0.00  0.00    +0.000 A 
ATOM     11  C   UNL     1      -5.798  14.408  20.737  0.00  0.00    +0.000 A 
ATOM     12  C   UNL     1      -6.051  15.081  21.939  0.00  0.00    +0.000 A 
ATOM     13  C   UNL     1      -5.574  14.568  23.150  0.00  0.00    +0.000 A 
ATOM     14  C   UNL     1      -4.912  13.338  23.175  0.00  0.00    +0.000 A 
ATOM     15  C   UNL     1      -4.767  12.628  21.975  0.00  0.00    +0.000 A 
BRANCH  14  16
ATOM     16  C   UNL     1      -4.283  12.777  24.427  0.00  0.00    +0.000 C 
ATOM     17  F   UNL     1      -3.709  13.715  25.226  0.00  0.00    +0.000 F 
ATOM     18  F   UNL     1      -5.173  12.102  25.205  0.00  0.00    +0.000 F 
ATOM     19  F   UNL     1      -3.297  11.881  24.134  0.00  0.00    +0.000 F 
ENDBRANCH  14  16
ENDBRANCH   6  10
ENDBRANCH   1   2
BRANCH   1  23
ATOM     20  C   UNL     1       2.733   7.611  18.587  0.00  0.00    +0.000 A 
ATOM     21  C   UNL     1       2.151   8.396  17.586  0.00  0.00    +0.000 A 
ATOM     22  C   UNL     1       1.068   9.243  17.886  0.00  0.00    +0.000 A 
ATOM     23  C   UNL     1       0.542   9.308  19.180  0.00  0.00    +0.000 A 
ATOM     24  C   UNL     1       1.164   8.560  20.183  0.00  0.00    +0.000 A 
ATOM     25  C   UNL     1       2.247   7.719  19.890  0.00  0.00    +0.000 A 
BRANCH  20  32
ATOM     26  O   UNL     1       3.646   1.243  17.887  0.00  0.00    +0.000 OA
ATOM     27  C   UNL     1       3.655   2.465  17.978  0.00  0.00    +0.000 C 
ATOM     28  N   UNL     1       4.782   3.191  17.737  0.00  0.00    +0.000 N 
ATOM     29  C   UNL     1       4.911   4.543  17.810  0.00  0.00    +0.000 C 
ATOM     30  O   UNL     1       5.983   5.092  17.576  0.00  0.00    +0.000 OA
ATOM     31  C   UNL     1       3.672   5.291  18.175  0.00  0.00    +0.000 C 
ATOM     32  C   UNL     1       3.780   6.631  18.269  0.00  0.00    +0.000 C 
ATOM     33  C   UNL     1       2.422   4.530  18.413  0.00  0.00    +0.000 C 
ATOM     34  O   UNL     1       1.338   5.035  18.674  0.00  0.00    +0.000 OA
ATOM     35  N   UNL     1       2.539   3.168  18.309  0.00  0.00    +0.000 N 
ATOM     36  H   UNL     1       5.608   2.667  17.485  0.00  0.00    +0.000 HD
ATOM     37  H   UNL     1       1.699   2.632  18.475  0.00  0.00    +0.000 HD
ENDBRANCH  20  32
ENDBRANCH   1  23
TORSDOF 5
ENDMDL
MODEL 4
REMARK VINA RESULT:      -8.5      5.081     11.691
REMARK  Name = 
REMARK  5 active torsions:
REMARK  status: ('A' for Active; 'I' for Inactive)
REMARK    1  A    between atoms: C_7  and  C_8
REMARK    2  A    between atoms: C_11  and  O_12
REMARK    3  A    between atoms: O_12  and  C_13
REMARK    4  A    between atoms: C_17  and  C_19
REMARK    5  A    between atoms: C_23  and  C_24
REMARK                            x       y       z     vdW  Elec       q    Type
REMARK                         _______ _______ _______ _____ _____    ______ ____
ROOT
ATOM      1  O   UNL     1      -0.339   9.663  17.769  0.00  0.00    +0.000 OA
ENDROOT
BRANCH   1   2
ATOM      2  C   UNL     1       0.767  10.150  18.554  0.00  0.00    +0.000 C 
ATOM      3  C   UNL     1       2.107   9.795  17.917  0.00  0.00    +0.000 C 
ATOM      4  C   UNL     1       2.361   8.300  17.955  0.00  0.00    +0.000 C 
ATOM      5  N   UNL     1       2.223   7.662  19.260  0.00  0.00    +0.000 N 
ATOM      6  C   UNL     1       2.752   6.380  19.560  0.00  0.00    +0.000 C 
ATOM      7  O   UNL     1       2.592   5.841  20.656  0.00  0.00    +0.000 OA
ATOM      8  C   UNL     1       1.098   8.097  20.088  0.00  0.00    +0.000 C 
ATOM      9  C   UNL     1       0.739   9.578  19.976  0.00  0.00    +0.000 C 
BRANCH   6  10
ATOM     10  C   UNL     1       3.549   5.625  18.541  0.00  0.00    +0.000 A 
ATOM     11  C   UNL     1       2.939   4.616  17.789  0.00  0.00    +0.000 A 
ATOM     12  C   UNL     1       3.689   3.863  16.876  0.00  0.00    +0.000 A 
ATOM     13  C   UNL     1       5.063   4.084  16.740  0.00  0.00    +0.000 A 
ATOM     14  C   UNL     1       5.680   5.113  17.456  0.00  0.00    +0.000 A 
ATOM     15  C   UNL     1       4.890   5.925  18.281  0.00  0.00    +0.000 A 
BRANCH  14  16
ATOM     16  C   UNL     1       7.172   5.339  17.435  0.00  0.00    +0.000 C 
ATOM     17  F   UNL     1       7.901   4.208  17.242  0.00  0.00    +0.000 F 
ATOM     18  F   UNL     1       7.558   6.214  16.467  0.00  0.00    +0.000 F 
ATOM     19  F   UNL     1       7.614   5.873  18.611  0.00  0.00    +0.000 F 
ENDBRANCH  14  16
ENDBRANCH   6  10
ENDBRANCH   1   2
BRANCH   1  23
ATOM     20  C   UNL     1      -3.958  11.702  18.454  0.00  0.00    +0.000 A 
ATOM     21  C   UNL     1      -2.715  12.320  18.621  0.00  0.00    +0.000 A 
ATOM     22  C   UNL     1      -1.528  11.615  18.351  0.00  0.00    +0.000 A 
ATOM     23  C   UNL     1      -1.562  10.282  17.928  0.00  0.00    +0.000 A 
ATOM     24  C   UNL     1      -2.810   9.691  17.713  0.00  0.00    +0.000 A 
ATOM     25  C   UNL     1      -3.996  10.392  17.976  0.00  0.00    +0.000 A 
BRANCH  20  32
ATOM     26  O   UNL     1      -6.916  14.222  23.629  0.00  0.00    +0.000 OA
ATOM     27  C   UNL     1      -6.508  13.798  22.554  0.00  0.00    +0.000 C 
ATOM     28  N   UNL     1      -7.233  13.937  21.409  0.00  0.00    +0.000 N 
ATOM     29  C   UNL     1      -6.885  13.506  20.167  0.00  0.00    +0.000 C 
ATOM     30  O   UNL     1      -7.624  13.683  19.203  0.00  0.00    +0.000 OA
ATOM     31  C   UNL     1      -5.559  12.829  20.066  0.00  0.00    +0.000 C 
ATOM     32  C   UNL     1      -5.200  12.380  18.848  0.00  0.00    +0.000 C 
ATOM     33  C   UNL     1      -4.733  12.690  21.290  0.00  0.00    +0.000 C 
ATOM     34  O   UNL     1      -3.614  12.195  21.322  0.00  0.00    +0.000 OA
ATOM     35  N   UNL     1      -5.304  13.178  22.438  0.00  0.00    +0.000 N 
ATOM     36  H   UNL     1      -8.124  14.404  21.497  0.00  0.00    +0.000 HD
ATOM     37  H   UNL     1      -4.758  13.085  23.283  0.00  0.00    +0.000 HD
ENDBRANCH  20  32
ENDBRANCH   1  23
TORSDOF 5
ENDMDL
MODEL 5
REMARK VINA RESULT:      -8.3      2.939      3.766
REMARK  Name = 
REMARK  5 active torsions:
REMARK  status: ('A' for Active; 'I' for Inactive)
REMARK    1  A    between atoms: C_7  and  C_8
REMARK    2  A    between atoms: C_11  and  O_12
REMARK    3  A    between atoms: O_12  and  C_13
REMARK    4  A    between atoms: C_17  and  C_19
REMARK    5  A    between atoms: C_23  and  C_24
REMARK                            x       y       z     vdW  Elec       q    Type
REMARK                         _______ _______ _______ _____ _____    ______ ____
ROOT
ATOM      1  O   UNL     1       0.973  10.804  19.392  0.00  0.00    +0.000 OA
ENDROOT
BRANCH   1   2
ATOM      2  C   UNL     1       0.924  11.130  20.795  0.00  0.00    +0.000 C 
ATOM      3  C   UNL     1      -0.371  10.645  21.440  0.00  0.00    +0.000 C 
ATOM      4  C   UNL     1      -1.571  11.416  20.921  0.00  0.00    +0.000 C 
ATOM      5  N   UNL     1      -1.472  12.871  20.988  0.00  0.00    +0.000 N 
ATOM      6  C   UNL     1      -2.595  13.733  20.889  0.00  0.00    +0.000 C 
ATOM      7  O   UNL     1      -2.488  14.960  20.908  0.00  0.00    +0.000 OA
ATOM      8  C   UNL     1      -0.183  13.459  20.624  0.00  0.00    +0.000 C 
ATOM      9  C   UNL     1       1.044  12.641  21.024  0.00  0.00    +0.000 C 
BRANCH   6  10
ATOM     10  C   UNL     1      -3.979  13.173  20.766  0.00  0.00    +0.000 A 
ATOM     11  C   UNL     1      -4.859  13.249  21.851  0.00  0.00    +0.000 A 
ATOM     12  C   UNL     1      -6.135  12.676  21.767  0.00  0.00    +0.000 A 
ATOM     13  C   UNL     1      -6.524  11.986  20.615  0.00  0.00    +0.000 A 
ATOM     14  C   UNL     1      -5.672  11.933  19.510  0.00  0.00    +0.000 A 
ATOM     15  C   UNL     1      -4.444  12.607  19.575  0.00  0.00    +0.000 A 
BRANCH  14  16
ATOM     16  C   UNL     1      -5.984  11.121  18.277  0.00  0.00    +0.000 C 
ATOM     17  F   UNL     1      -5.059  10.166  17.994  0.00  0.00    +0.000 F 
ATOM     18  F   UNL     1      -7.183  10.481  18.359  0.00  0.00    +0.000 F 
ATOM     19  F   UNL     1      -6.063  11.908  17.165  0.00  0.00    +0.000 F 
ENDBRANCH  14  16
ENDBRANCH   6  10
ENDBRANCH   1   2
BRANCH   1  23
ATOM     20  C   UNL     1       2.370   6.925  18.542  0.00  0.00    +0.000 A 
ATOM     21  C   UNL     1       2.207   7.385  19.852  0.00  0.00    +0.000 A 
ATOM     22  C   UNL     1       1.707   8.677  20.096  0.00  0.00    +0.000 A 
ATOM     23  C   UNL     1       1.378   9.533  19.040  0.00  0.00    +0.000 A 
ATOM     24  C   UNL     1       1.495   9.046  17.736  0.00  0.00    +0.000 A 
ATOM     25  C   UNL     1       1.988   7.757  17.488  0.00  0.00    +0.000 A 
BRANCH  20  32
ATOM     26  O   UNL     1       7.928   4.373  16.426  0.00  0.00    +0.000 OA
ATOM     27  C   UNL     1       6.817   4.679  16.843  0.00  0.00    +0.000 C 
ATOM     28  N   UNL     1       5.896   3.735  17.182  0.00  0.00    +0.000 N 
ATOM     29  C   UNL     1       4.638   3.955  17.650  0.00  0.00    +0.000 C 
ATOM     30  O   UNL     1       3.888   3.022  17.920  0.00  0.00    +0.000 OA
ATOM     31  C   UNL     1       4.253   5.387  17.818  0.00  0.00    +0.000 C 
ATOM     32  C   UNL     1       3.005   5.630  18.266  0.00  0.00    +0.000 C 
ATOM     33  C   UNL     1       5.245   6.438  17.486  0.00  0.00    +0.000 C 
ATOM     34  O   UNL     1       5.061   7.639  17.624  0.00  0.00    +0.000 OA
ATOM     35  N   UNL     1       6.444   5.977  17.004  0.00  0.00    +0.000 N 
ATOM     36  H   UNL     1       6.177   2.772  17.068  0.00  0.00    +0.000 HD
ATOM     37  H   UNL     1       7.130   6.679  16.765  0.00  0.00    +0.000 HD
ENDBRANCH  20  32
ENDBRANCH   1  23
TORSDOF 5
ENDMDL
MODEL 6
REMARK VINA RESULT:      -8.3      0.994      1.247
REMARK  Name = 
REMARK  5 active torsions:
REMARK  status: ('A' for Active; 'I' for Inactive)
REMARK    1  A    between atoms: C_7  and  C_8
REMARK    2  A    between atoms: C_11  and  O_12
REMARK    3  A    between atoms: O_12  and  C_13
REMARK    4  A    between atoms: C_17  and  C_19
REMARK    5  A    between atoms: C_23  and  C_24
REMARK                            x       y       z     vdW  Elec       q    Type
REMARK                         _______ _______ _______ _____ _____    ______ ____
ROOT
ATOM      1  O   UNL     1      -0.540  10.250  19.471  0.00  0.00    +0.000 OA
ENDROOT
BRANCH   1   2
ATOM      2  C   UNL     1      -0.673  11.407  18.623  0.00  0.00    +0.000 C 
ATOM      3  C   UNL     1      -0.965  12.666  19.432  0.00  0.00    +0.000 C 
ATOM      4  C   UNL     1      -2.343  12.611  20.066  0.00  0.00    +0.000 C 
ATOM      5  N   UNL     1      -3.449  12.308  19.163  0.00  0.00    +0.000 N 
ATOM      6  C   UNL     1      -4.808  12.558  19.485  0.00  0.00    +0.000 C 
ATOM      7  O   UNL     1      -5.732  12.259  18.726  0.00  0.00    +0.000 OA
ATOM      8  C   UNL     1      -3.212  11.270  18.160  0.00  0.00    +0.000 C 
ATOM      9  C   UNL     1      -1.794  11.221  17.594  0.00  0.00    +0.000 C 
BRANCH   6  10
ATOM     10  C   UNL     1      -5.178  13.216  20.779  0.00  0.00    +0.000 A 
ATOM     11  C   UNL     1      -5.949  14.383  20.771  0.00  0.00    +0.000 A 
ATOM     12  C   UNL     1      -6.251  15.039  21.971  0.00  0.00    +0.000 A 
ATOM     13  C   UNL     1      -5.747  14.559  23.184  0.00  0.00    +0.000 A 
ATOM     14  C   UNL     1      -5.007  13.375  23.213  0.00  0.00    +0.000 A 
ATOM     15  C   UNL     1      -4.811  12.675  22.015  0.00  0.00    +0.000 A 
BRANCH  14  16
ATOM     16  C   UNL     1      -4.348  12.856  24.468  0.00  0.00    +0.000 C 
ATOM     17  F   UNL     1      -5.205  12.253  25.334  0.00  0.00    +0.000 F 
ATOM     18  F   UNL     1      -3.363  11.953  24.210  0.00  0.00    +0.000 F 
ATOM     19  F   UNL     1      -3.750  13.861  25.172  0.00  0.00    +0.000 F 
ENDBRANCH  14  16
ENDBRANCH   6  10
ENDBRANCH   1   2
BRANCH   1  23
ATOM     20  C   UNL     1       2.630   7.553  18.838  0.00  0.00    +0.000 A 
ATOM     21  C   UNL     1       2.046   7.730  20.095  0.00  0.00    +0.000 A 
ATOM     22  C   UNL     1       0.967   8.617  20.261  0.00  0.00    +0.000 A 
ATOM     23  C   UNL     1       0.466   9.351  19.181  0.00  0.00    +0.000 A 
ATOM     24  C   UNL     1       1.022   9.128  17.918  0.00  0.00    +0.000 A 
ATOM     25  C   UNL     1       2.094   8.241  17.748  0.00  0.00    +0.000 A 
BRANCH  20  32
ATOM     26  O   UNL     1       4.861   1.585  19.967  0.00  0.00    +0.000 OA
ATOM     27  C   UNL     1       4.607   2.748  19.681  0.00  0.00    +0.000 C 
ATOM     28  N   UNL     1       5.518   3.544  19.054  0.00  0.00    +0.000 N 
ATOM     29  C   UNL     1       5.350   4.845  18.691  0.00  0.00    +0.000 C 
ATOM     30  O   UNL     1       6.248   5.469  18.134  0.00  0.00    +0.000 OA
ATOM     31  C   UNL     1       4.017   5.436  19.005  0.00  0.00    +0.000 C 
ATOM     32  C   UNL     1       3.833   6.728  18.669  0.00  0.00    +0.000 C 
ATOM     33  C   UNL     1       2.994   4.585  19.659  0.00  0.00    +0.000 C 
ATOM     34  O   UNL     1       1.854   4.944  19.924  0.00  0.00    +0.000 OA
ATOM     35  N   UNL     1       3.400   3.309  19.957  0.00  0.00    +0.000 N 
ATOM     36  H   UNL     1       6.412   3.124  18.844  0.00  0.00    +0.000 HD
ATOM     37  H   UNL     1       2.718   2.717  20.409  0.00  0.00    +0.000 HD
ENDBRANCH  20  32
ENDBRANCH   1  23
TORSDOF 5
ENDMDL
MODEL 7
REMARK VINA RESULT:      -8.2      2.673      3.476
REMARK  Name = 
REMARK  5 active torsions:
REMARK  status: ('A' for Active; 'I' for Inactive)
REMARK    1  A    between atoms: C_7  and  C_8
REMARK    2  A    between atoms: C_11  and  O_12
REMARK    3  A    between atoms: O_12  and  C_13
REMARK    4  A    between atoms: C_17  and  C_19
REMARK    5  A    between atoms: C_23  and  C_24
REMARK                            x       y       z     vdW  Elec       q    Type
REMARK                         _______ _______ _______ _____ _____    ______ ____
ROOT
ATOM      1  O   UNL     1       0.650  10.827  18.995  0.00  0.00    +0.000 OA
ENDROOT
BRANCH   1   2
ATOM      2  C   UNL     1       1.548  11.934  19.211  0.00  0.00    +0.000 C 
ATOM      3  C   UNL     1       1.594  12.342  20.679  0.00  0.00    +0.000 C 
ATOM      4  C   UNL     1       0.276  12.945  21.129  0.00  0.00    +0.000 C 
ATOM      5  N   UNL     1      -0.241  14.034  20.305  0.00  0.00    +0.000 N 
ATOM      6  C   UNL     1      -1.242  14.937  20.747  0.00  0.00    +0.000 C 
ATOM      7  O   UNL     1      -1.695  15.826  20.023  0.00  0.00    +0.000 OA
ATOM      8  C   UNL     1      -0.122  13.874  18.856  0.00  0.00    +0.000 C 
ATOM      9  C   UNL     1       1.140  13.156  18.379  0.00  0.00    +0.000 C 
BRANCH   6  10
ATOM     10  C   UNL     1      -1.788  14.850  22.139  0.00  0.00    +0.000 A 
ATOM     11  C   UNL     1      -1.063  15.391  23.206  0.00  0.00    +0.000 A 
ATOM     12  C   UNL     1      -1.537  15.263  24.519  0.00  0.00    +0.000 A 
ATOM     13  C   UNL     1      -2.715  14.556  24.778  0.00  0.00    +0.000 A 
ATOM     14  C   UNL     1      -3.469  14.042  23.721  0.00  0.00    +0.000 A 
ATOM     15  C   UNL     1      -3.035  14.277  22.409  0.00  0.00    +0.000 A 
BRANCH  14  16
ATOM     16  C   UNL     1      -4.691  13.183  23.934  0.00  0.00    +0.000 C 
ATOM     17  F   UNL     1      -5.814  13.884  24.245  0.00  0.00    +0.000 F 
ATOM     18  F   UNL     1      -5.000  12.428  22.844  0.00  0.00    +0.000 F 
ATOM     19  F   UNL     1      -4.509  12.296  24.955  0.00  0.00    +0.000 F 
ENDBRANCH  14  16
ENDBRANCH   6  10
ENDBRANCH   1   2
BRANCH   1  23
ATOM     20  C   UNL     1       2.423   7.009  19.012  0.00  0.00    +0.000 A 
ATOM     21  C   UNL     1       1.962   7.619  20.183  0.00  0.00    +0.000 A 
ATOM     22  C   UNL     1       1.346   8.882  20.132  0.00  0.00    +0.000 A 
ATOM     23  C   UNL     1       1.195   9.562  18.919  0.00  0.00    +0.000 A 
ATOM     24  C   UNL     1       1.611   8.921  17.749  0.00  0.00    +0.000 A 
ATOM     25  C   UNL     1       2.221   7.659  17.795  0.00  0.00    +0.000 A 
BRANCH  20  32
ATOM     26  O   UNL     1       8.001   4.385  17.043  0.00  0.00    +0.000 OA
ATOM     27  C   UNL     1       6.910   4.714  17.493  0.00  0.00    +0.000 C 
ATOM     28  N   UNL     1       6.148   3.853  18.224  0.00  0.00    +0.000 N 
ATOM     29  C   UNL     1       4.927   4.106  18.768  0.00  0.00    +0.000 C 
ATOM     30  O   UNL     1       4.327   3.247  19.407  0.00  0.00    +0.000 OA
ATOM     31  C   UNL     1       4.392   5.481  18.544  0.00  0.00    +0.000 C 
ATOM     32  C   UNL     1       3.177   5.749  19.060  0.00  0.00    +0.000 C 
ATOM     33  C   UNL     1       5.212   6.450  17.777  0.00  0.00    +0.000 C 
ATOM     34  O   UNL     1       4.900   7.615  17.568  0.00  0.00    +0.000 OA
ATOM     35  N   UNL     1       6.402   5.961  17.301  0.00  0.00    +0.000 N 
ATOM     36  H   UNL     1       6.530   2.930  18.371  0.00  0.00    +0.000 HD
ATOM     37  H   UNL     1       6.970   6.606  16.771  0.00  0.00    +0.000 HD
ENDBRANCH  20  32
ENDBRANCH   1  23
TORSDOF 5
ENDMDL
MODEL 8
REMARK VINA RESULT:      -8.1      4.360      5.691
REMARK  Name = 
REMARK  5 active torsions:
REMARK  status: ('A' for Active; 'I' for Inactive)
REMARK    1  A    between atoms: C_7  and  C_8
REMARK    2  A    between atoms: C_11  and  O_12
REMARK    3  A    between atoms: O_12  and  C_13
REMARK    4  A    between atoms: C_17  and  C_19
REMARK    5  A    between atoms: C_23  and  C_24
REMARK                            x       y       z     vdW  Elec       q    Type
REMARK                         _______ _______ _______ _____ _____    ______ ____
ROOT
ATOM      1  O   UNL     1       0.571  10.395  20.053  0.00  0.00    +0.000 OA
ENDROOT
BRANCH   1   2
ATOM      2  C   UNL     1      -0.692  10.700  19.429  0.00  0.00    +0.000 C 
ATOM      3  C   UNL     1      -0.528  11.693  18.284  0.00  0.00    +0.000 C 
ATOM      4  C   UNL     1      -0.117  13.063  18.792  0.00  0.00    +0.000 C 
ATOM      5  N   UNL     1      -0.949  13.627  19.850  0.00  0.00    +0.000 N 
ATOM      6  C   UNL     1      -0.943  15.003  20.196  0.00  0.00    +0.000 C 
ATOM      7  O   UNL     1      -1.623  15.454  21.119  0.00  0.00    +0.000 OA
ATOM      8  C   UNL     1      -1.387  12.708  20.901  0.00  0.00    +0.000 C 
ATOM      9  C   UNL     1      -1.688  11.283  20.438  0.00  0.00    +0.000 C 
BRANCH   6  10
ATOM     10  C   UNL     1      -0.103  15.979  19.431  0.00  0.00    +0.000 A 
ATOM     11  C   UNL     1      -0.702  16.827  18.493  0.00  0.00    +0.000 A 
ATOM     12  C   UNL     1       0.082  17.702  17.730  0.00  0.00    +0.000 A 
ATOM     13  C   UNL     1       1.474  17.704  17.867  0.00  0.00    +0.000 A 
ATOM     14  C   UNL     1       2.083  16.891  18.824  0.00  0.00    +0.000 A 
ATOM     15  C   UNL     1       1.272  16.105  19.654  0.00  0.00    +0.000 A 
BRANCH  14  16
ATOM     16  C   UNL     1       3.582  16.767  18.955  0.00  0.00    +0.000 C 
ATOM     17  F   UNL     1       4.000  15.555  19.406  0.00  0.00    +0.000 F 
ATOM     18  F   UNL     1       4.231  16.984  17.778  0.00  0.00    +0.000 F 
ATOM     19  F   UNL     1       4.087  17.686  19.828  0.00  0.00    +0.000 F 
ENDBRANCH  14  16
ENDBRANCH   6  10
ENDBRANCH   1   2
BRANCH   1  23
ATOM     20  C   UNL     1       2.456   6.936  18.570  0.00  0.00    +0.000 A 
ATOM     21  C   UNL     1       2.140   8.020  17.746  0.00  0.00    +0.000 A 
ATOM     22  C   UNL     1       1.539   9.172  18.284  0.00  0.00    +0.000 A 
ATOM     23  C   UNL     1       1.230   9.253  19.647  0.00  0.00    +0.000 A 
ATOM     24  C   UNL     1       1.598   8.187  20.470  0.00  0.00    +0.000 A 
ATOM     25  C   UNL     1       2.203   7.038  19.938  0.00  0.00    +0.000 A 
BRANCH  20  32
ATOM     26  O   UNL     1       7.785   4.388  15.926  0.00  0.00    +0.000 OA
ATOM     27  C   UNL     1       6.700   4.701  16.402  0.00  0.00    +0.000 C 
ATOM     28  N   UNL     1       5.685   3.800  16.521  0.00  0.00    +0.000 N 
ATOM     29  C   UNL     1       4.444   4.033  17.028  0.00  0.00    +0.000 C 
ATOM     30  O   UNL     1       3.603   3.142  17.080  0.00  0.00    +0.000 OA
ATOM     31  C   UNL     1       4.196   5.421  17.516  0.00  0.00    +0.000 C 
ATOM     32  C   UNL     1       2.969   5.679  18.008  0.00  0.00    +0.000 C 
ATOM     33  C   UNL     1       5.292   6.416  17.428  0.00  0.00    +0.000 C 
ATOM     34  O   UNL     1       5.222   7.568  17.835  0.00  0.00    +0.000 OA
ATOM     35  N   UNL     1       6.451   5.959  16.853  0.00  0.00    +0.000 N 
ATOM     36  H   UNL     1       5.875   2.865  16.191  0.00  0.00    +0.000 HD
ATOM     37  H   UNL     1       7.206   6.626  16.779  0.00  0.00    +0.000 HD
ENDBRANCH  20  32
ENDBRANCH   1  23
TORSDOF 5
ENDMDL
MODEL 9
REMARK VINA RESULT:      -8.1      4.899      6.462
REMARK  Name = 
REMARK  5 active torsions:
REMARK  status: ('A' for Active; 'I' for Inactive)
REMARK    1  A    between atoms: C_7  and  C_8
REMARK    2  A    between atoms: C_11  and  O_12
REMARK    3  A    between atoms: O_12  and  C_13
REMARK    4  A    between atoms: C_17  and  C_19
REMARK    5  A    between atoms: C_23  and  C_24
REMARK                            x       y       z     vdW  Elec       q    Type
REMARK                         _______ _______ _______ _____ _____    ______ ____
ROOT
ATOM      1  O   UNL     1       1.040   9.874  20.526  0.00  0.00    +0.000 OA
ENDROOT
BRANCH   1   2
ATOM      2  C   UNL     1      -0.186  10.502  20.104  0.00  0.00    +0.000 C 
ATOM      3  C   UNL     1       0.027  11.384  18.879  0.00  0.00    +0.000 C 
ATOM      4  C   UNL     1       0.875  12.598  19.210  0.00  0.00    +0.000 C 
ATOM      5  N   UNL     1       0.432  13.394  20.350  0.00  0.00    +0.000 N 
ATOM      6  C   UNL     1       0.869  14.723  20.589  0.00  0.00    +0.000 C 
ATOM      7  O   UNL     1       0.514  15.366  21.578  0.00  0.00    +0.000 OA
ATOM      8  C   UNL     1      -0.038  12.657  21.523  0.00  0.00    +0.000 C 
ATOM      9  C   UNL     1      -0.789  11.361  21.221  0.00  0.00    +0.000 C 
BRANCH   6  10
ATOM     10  C   UNL     1       1.786  15.410  19.625  0.00  0.00    +0.000 A 
ATOM     11  C   UNL     1       1.272  16.349  18.724  0.00  0.00    +0.000 A 
ATOM     12  C   UNL     1       2.111  16.954  17.779  0.00  0.00    +0.000 A 
ATOM     13  C   UNL     1       3.459  16.593  17.698  0.00  0.00    +0.000 A 
ATOM     14  C   UNL     1       3.996  15.685  18.614  0.00  0.00    +0.000 A 
ATOM     15  C   UNL     1       3.165  15.175  19.621  0.00  0.00    +0.000 A 
BRANCH  14  16
ATOM     16  C   UNL     1       5.413  15.174  18.520  0.00  0.00    +0.000 C 
ATOM     17  F   UNL     1       6.308  16.102  18.088  0.00  0.00    +0.000 F 
ATOM     18  F   UNL     1       5.884  14.710  19.709  0.00  0.00    +0.000 F 
ATOM     19  F   UNL     1       5.511  14.126  17.651  0.00  0.00    +0.000 F 
ENDBRANCH  14  16
ENDBRANCH   6  10
ENDBRANCH   1   2
BRANCH   1  23
ATOM     20  C   UNL     1       2.474   6.393  18.642  0.00  0.00    +0.000 A 
ATOM     21  C   UNL     1       2.227   6.445  20.018  0.00  0.00    +0.000 A 
ATOM     22  C   UNL     1       1.718   7.616  20.606  0.00  0.00    +0.000 A 
ATOM     23  C   UNL     1       1.463   8.756  19.836  0.00  0.00    +0.000 A 
ATOM     24  C   UNL     1       1.663   8.677  18.455  0.00  0.00    +0.000 A 
ATOM     25  C   UNL     1       2.165   7.509  17.864  0.00  0.00    +0.000 A 
BRANCH  20  32
ATOM     26  O   UNL     1       7.818   4.686  15.417  0.00  0.00    +0.000 OA
ATOM     27  C   UNL     1       6.757   4.829  16.013  0.00  0.00    +0.000 C 
ATOM     28  N   UNL     1       5.925   3.778  16.252  0.00  0.00    +0.000 N 
ATOM     29  C   UNL     1       4.727   3.817  16.897  0.00  0.00    +0.000 C 
ATOM     30  O   UNL     1       4.056   2.802  17.051  0.00  0.00    +0.000 OA
ATOM     31  C   UNL     1       4.310   5.157  17.403  0.00  0.00    +0.000 C 
ATOM     32  C   UNL     1       3.120   5.224  18.032  0.00  0.00    +0.000 C 
ATOM     33  C   UNL     1       5.210   6.316  17.185  0.00  0.00    +0.000 C 
ATOM     34  O   UNL     1       4.997   7.450  17.591  0.00  0.00    +0.000 OA
ATOM     35  N   UNL     1       6.356   6.040  16.482  0.00  0.00    +0.000 N 
ATOM     36  H   UNL     1       6.227   2.878  15.908  0.00  0.00    +0.000 HD
ATOM     37  H   UNL     1       6.978   6.819  16.318  0.00  0.00    +0.000 HD
ENDBRANCH  20  32
ENDBRANCH   1  23
TORSDOF 5
ENDMDL
