MODEL 1
REMARK VINA RESULT:      -8.0      0.000      0.000
REMARK  Name = 
REMARK  7 active torsions:
REMARK  status: ('A' for Active; 'I' for Inactive)
REMARK    1  A    between atoms: C_1  and  O_2
REMARK    2  A    between atoms: O_2  and  C_3
REMARK    3  A    between atoms: C_3  and  C_4
REMARK    4  A    between atoms: C_7  and  O_8
REMARK    5  A    between atoms: O_8  and  C_9
REMARK    6  A    between atoms: C_15  and  C_16
REMARK    7  A    between atoms: C_21  and  N_22
REMARK                            x       y       z     vdW  Elec       q    Type
REMARK                         _______ _______ _______ _____ _____    ______ ____
ROOT
ATOM      1  C   UNL     1      -0.038  10.005  18.989  0.00  0.00    +0.000 C 
ATOM      2  C   UNL     1      -1.282  10.404  18.207  0.00  0.00    +0.000 A 
ATOM      3  C   UNL     1      -1.633   9.735  17.019  0.00  0.00    +0.000 A 
ATOM      4  C   UNL     1      -2.768  10.106  16.285  0.00  0.00    +0.000 A 
ATOM      5  C   UNL     1      -3.562  11.157  16.739  0.00  0.00    +0.000 A 
ATOM      6  C   UNL     1      -3.222  11.834  17.914  0.00  0.00    +0.000 A 
ATOM      7  C   UNL     1      -2.091  11.463  18.644  0.00  0.00    +0.000 A 
ATOM      8  S   UNL     1      -1.717  12.366  20.128  0.00  0.00    +0.000 S 
ATOM      9  C   UNL     1      -0.954  11.080  21.127  0.00  0.00    +0.000 A 
ATOM     10  C   UNL     1      -1.042  11.128  22.538  0.00  0.00    +0.000 A 
ATOM     11  C   UNL     1      -0.453  10.109  23.305  0.00  0.00    +0.000 A 
ATOM     12  C   UNL     1       0.205   9.050  22.684  0.00  0.00    +0.000 A 
ATOM     13  C   UNL     1       0.299   9.006  21.295  0.00  0.00    +0.000 A 
ATOM     14  C   UNL     1      -0.265  10.021  20.502  0.00  0.00    +0.000 A 
ENDROOT
BRANCH  10  15
ATOM     15  C   UNL     1      -1.783  12.193  23.223  0.00  0.00    +0.000 A 
ATOM     16  C   UNL     1      -3.081  12.036  23.500  0.00  0.00    +0.000 A 
ATOM     17  C   UNL     1      -3.808  13.183  24.050  0.00  0.00    +0.000 A 
ATOM     18  O   UNL     1      -5.013  13.135  24.265  0.00  0.00    +0.000 OA
ATOM     19  C   UNL     1      -3.027  14.394  24.333  0.00  0.00    +0.000 A 
ATOM     20  C   UNL     1      -1.719  14.446  24.044  0.00  0.00    +0.000 A 
ATOM     21  O   UNL     1      -1.075  13.360  23.445  0.00  0.00    +0.000 OA
BRANCH  20  22
ATOM     22  N   UNL     1      -0.920  15.551  24.321  0.00  0.00    +0.000 N 
ATOM     23  C   UNL     1      -0.864  16.209  25.640  0.00  0.00    +0.000 C 
ATOM     24  C   UNL     1      -1.075  17.724  25.491  0.00  0.00    +0.000 C 
ATOM     25  O   UNL     1      -0.154  18.304  24.550  0.00  0.00    +0.000 OA
ATOM     26  C   UNL     1      -0.301  17.680  23.265  0.00  0.00    +0.000 C 
ATOM     27  C   UNL     1      -0.013  16.175  23.341  0.00  0.00    +0.000 C 
ENDBRANCH  20  22
ENDBRANCH  10  15
BRANCH   4  28
ATOM     28  O   UNL     1      -2.995   9.376  15.150  0.00  0.00    +0.000 OA
ATOM     29  C   UNL     1      -3.524  10.083  14.032  0.00  0.00    +0.000 C 
ENDBRANCH   4  28
BRANCH   1  30
ATOM     30  C   UNL     1       1.171  10.900  18.619  0.00  0.00    +0.000 C 
BRANCH  30  32
ATOM     31  C   UNL     1       2.181   8.856  17.970  0.00  0.00    +0.000 C 
ATOM     32  O   UNL     1       2.006  10.232  17.664  0.00  0.00    +0.000 OA
ENDBRANCH  30  32
ENDBRANCH   1  30
TORSDOF 5
ENDMDL
MODEL 2
REMARK VINA RESULT:      -7.6      1.837      3.396
REMARK  Name = 
REMARK  7 active torsions:
REMARK  status: ('A' for Active; 'I' for Inactive)
REMARK    1  A    between atoms: C_1  and  O_2
REMARK    2  A    between atoms: O_2  and  C_3
REMARK    3  A    between atoms: C_3  and  C_4
REMARK    4  A    between atoms: C_7  and  O_8
REMARK    5  A    between atoms: O_8  and  C_9
REMARK    6  A    between atoms: C_15  and  C_16
REMARK    7  A    between atoms: C_21  and  N_22
REMARK                            x       y       z     vdW  Elec       q    Type
REMARK                         _______ _______ _______ _____ _____    ______ ____
ROOT
ATOM      1  C   UNL     1      -0.192   9.915  18.990  0.00  0.00    +0.000 C 
ATOM      2  C   UNL     1      -1.340  10.383  18.104  0.00  0.00    +0.000 A 
ATOM      3  C   UNL     1      -1.693   9.668  16.944  0.00  0.00    +0.000 A 
ATOM      4  C   UNL     1      -2.737  10.101  16.115  0.00  0.00    +0.000 A 
ATOM      5  C   UNL     1      -3.436  11.260  16.446  0.00  0.00    +0.000 A 
ATOM      6  C   UNL     1      -3.092  11.983  17.591  0.00  0.00    +0.000 A 
ATOM      7  C   UNL     1      -2.052  11.551  18.416  0.00  0.00    +0.000 A 
ATOM      8  S   UNL     1      -1.666  12.516  19.857  0.00  0.00    +0.000 S 
ATOM      9  C   UNL     1      -1.106  11.235  20.987  0.00  0.00    +0.000 A 
ATOM     10  C   UNL     1      -1.268  11.396  22.383  0.00  0.00    +0.000 A 
ATOM     11  C   UNL     1      -0.838  10.381  23.253  0.00  0.00    +0.000 A 
ATOM     12  C   UNL     1      -0.265   9.215  22.749  0.00  0.00    +0.000 A 
ATOM     13  C   UNL     1      -0.098   9.059  21.375  0.00  0.00    +0.000 A 
ATOM     14  C   UNL     1      -0.502  10.067  20.480  0.00  0.00    +0.000 A 
ENDROOT
BRANCH  10  15
ATOM     15  C   UNL     1      -1.926  12.580  22.946  0.00  0.00    +0.000 A 
ATOM     16  C   UNL     1      -1.208  13.504  23.590  0.00  0.00    +0.000 A 
ATOM     17  C   UNL     1      -1.930  14.590  24.260  0.00  0.00    +0.000 A 
ATOM     18  O   UNL     1      -1.344  15.434  24.926  0.00  0.00    +0.000 OA
ATOM     19  C   UNL     1      -3.388  14.621  24.095  0.00  0.00    +0.000 A 
ATOM     20  C   UNL     1      -4.018  13.661  23.405  0.00  0.00    +0.000 A 
ATOM     21  O   UNL     1      -3.306  12.596  22.847  0.00  0.00    +0.000 OA
BRANCH  20  22
ATOM     22  N   UNL     1      -5.392  13.655  23.185  0.00  0.00    +0.000 N 
ATOM     23  C   UNL     1      -6.062  12.760  22.222  0.00  0.00    +0.000 C 
ATOM     24  C   UNL     1      -6.982  13.567  21.293  0.00  0.00    +0.000 C 
ATOM     25  O   UNL     1      -7.916  14.375  22.032  0.00  0.00    +0.000 OA
ATOM     26  C   UNL     1      -7.213  15.278  22.897  0.00  0.00    +0.000 C 
ATOM     27  C   UNL     1      -6.344  14.518  23.908  0.00  0.00    +0.000 C 
ENDBRANCH  20  22
ENDBRANCH  10  15
BRANCH   4  28
ATOM     28  O   UNL     1      -2.977   9.317  15.020  0.00  0.00    +0.000 OA
ATOM     29  C   UNL     1      -3.624   9.944  13.916  0.00  0.00    +0.000 C 
ENDBRANCH   4  28
BRANCH   1  30
ATOM     30  C   UNL     1       1.126  10.649  18.639  0.00  0.00    +0.000 C 
BRANCH  30  32
ATOM     31  C   UNL     1       2.259   8.697  17.913  0.00  0.00    +0.000 C 
ATOM     32  O   UNL     1       1.785   9.986  17.551  0.00  0.00    +0.000 OA
ENDBRANCH  30  32
ENDBRANCH   1  30
TORSDOF 5
ENDMDL
MODEL 3
REMARK VINA RESULT:      -7.3      0.888      1.398
REMARK  Name = 
REMARK  7 active torsions:
REMARK  status: ('A' for Active; 'I' for Inactive)
REMARK    1  A    between atoms: C_1  and  O_2
REMARK    2  A    between atoms: O_2  and  C_3
REMARK    3  A    between atoms: C_3  and  C_4
REMARK    4  A    between atoms: C_7  and  O_8
REMARK    5  A    between atoms: O_8  and  C_9
REMARK    6  A    between atoms: C_15  and  C_16
REMARK    7  A    between atoms: C_21  and  N_22
REMARK                            x       y       z     vdW  Elec       q    Type
REMARK                         _______ _______ _______ _____ _____    ______ ____
ROOT
ATOM      1  C   UNL     1      -0.123  10.295  19.040  0.00  0.00    +0.000 C 
ATOM      2  C   UNL     1      -1.404  10.583  18.267  0.00  0.00    +0.000 A 
ATOM      3  C   UNL     1      -1.694   9.900  17.071  0.00  0.00    +0.000 A 
ATOM      4  C   UNL     1      -2.863  10.171  16.347  0.00  0.00    +0.000 A 
ATOM      5  C   UNL     1      -3.752  11.134  16.819  0.00  0.00    +0.000 A 
ATOM      6  C   UNL     1      -3.474  11.823  18.002  0.00  0.00    +0.000 A 
ATOM      7  C   UNL     1      -2.309  11.553  18.723  0.00  0.00    +0.000 A 
ATOM      8  S   UNL     1      -2.017  12.467  20.219  0.00  0.00    +0.000 S 
ATOM      9  C   UNL     1      -1.129  11.246  21.197  0.00  0.00    +0.000 A 
ATOM     10  C   UNL     1      -1.215  11.265  22.608  0.00  0.00    +0.000 A 
ATOM     11  C   UNL     1      -0.527  10.297  23.358  0.00  0.00    +0.000 A 
ATOM     12  C   UNL     1       0.228   9.316  22.720  0.00  0.00    +0.000 A 
ATOM     13  C   UNL     1       0.320   9.300  21.329  0.00  0.00    +0.000 A 
ATOM     14  C   UNL     1      -0.344  10.268  20.554  0.00  0.00    +0.000 A 
ENDROOT
BRANCH  10  15
ATOM     15  C   UNL     1      -2.052  12.243  23.311  0.00  0.00    +0.000 A 
ATOM     16  C   UNL     1      -3.310  11.937  23.641  0.00  0.00    +0.000 A 
ATOM     17  C   UNL     1      -4.148  12.996  24.207  0.00  0.00    +0.000 A 
ATOM     18  O   UNL     1      -5.329  12.808  24.470  0.00  0.00    +0.000 OA
ATOM     19  C   UNL     1      -3.509  14.296  24.447  0.00  0.00    +0.000 A 
ATOM     20  C   UNL     1      -2.228  14.500  24.106  0.00  0.00    +0.000 A 
ATOM     21  O   UNL     1      -1.481  13.490  23.494  0.00  0.00    +0.000 OA
BRANCH  20  22
ATOM     22  N   UNL     1      -1.558  15.696  24.340  0.00  0.00    +0.000 N 
ATOM     23  C   UNL     1      -0.796  16.422  23.305  0.00  0.00    +0.000 C 
ATOM     24  C   UNL     1       0.615  16.755  23.814  0.00  0.00    +0.000 C 
ATOM     25  O   UNL     1       0.581  17.462  25.067  0.00  0.00    +0.000 OA
ATOM     26  C   UNL     1      -0.104  16.682  26.057  0.00  0.00    +0.000 C 
ATOM     27  C   UNL     1      -1.553  16.396  25.638  0.00  0.00    +0.000 C 
ENDBRANCH  20  22
ENDBRANCH  10  15
BRANCH   4  28
ATOM     28  O   UNL     1      -3.023   9.439  15.202  0.00  0.00    +0.000 OA
ATOM     29  C   UNL     1      -3.542  10.131  14.070  0.00  0.00    +0.000 C 
ENDBRANCH   4  28
BRANCH   1  30
ATOM     30  C   UNL     1       0.992  11.308  18.679  0.00  0.00    +0.000 C 
BRANCH  30  32
ATOM     31  C   UNL     1       2.074  13.197  19.619  0.00  0.00    +0.000 C 
ATOM     32  O   UNL     1       1.507  11.920  19.871  0.00  0.00    +0.000 OA
ENDBRANCH  30  32
ENDBRANCH   1  30
TORSDOF 5
ENDMDL
MODEL 4
REMARK VINA RESULT:      -7.3      1.752      3.465
REMARK  Name = 
REMARK  7 active torsions:
REMARK  status: ('A' for Active; 'I' for Inactive)
REMARK    1  A    between atoms: C_1  and  O_2
REMARK    2  A    between atoms: O_2  and  C_3
REMARK    3  A    between atoms: C_3  and  C_4
REMARK    4  A    between atoms: C_7  and  O_8
REMARK    5  A    between atoms: O_8  and  C_9
REMARK    6  A    between atoms: C_15  and  C_16
REMARK    7  A    between atoms: C_21  and  N_22
REMARK                            x       y       z     vdW  Elec       q    Type
REMARK                         _______ _______ _______ _____ _____    ______ ____
ROOT
ATOM      1  C   UNL     1      -0.159   9.846  18.892  0.00  0.00    +0.000 C 
ATOM      2  C   UNL     1      -1.316  10.312  18.016  0.00  0.00    +0.000 A 
ATOM      3  C   UNL     1      -1.694   9.583  16.873  0.00  0.00    +0.000 A 
ATOM      4  C   UNL     1      -2.747  10.014  16.054  0.00  0.00    +0.000 A 
ATOM      5  C   UNL     1      -3.430  11.184  16.378  0.00  0.00    +0.000 A 
ATOM      6  C   UNL     1      -3.061  11.921  17.507  0.00  0.00    +0.000 A 
ATOM      7  C   UNL     1      -2.012  11.491  18.322  0.00  0.00    +0.000 A 
ATOM      8  S   UNL     1      -1.595  12.475  19.742  0.00  0.00    +0.000 S 
ATOM      9  C   UNL     1      -1.030  11.205  20.883  0.00  0.00    +0.000 A 
ATOM     10  C   UNL     1      -1.169  11.389  22.278  0.00  0.00    +0.000 A 
ATOM     11  C   UNL     1      -0.735  10.382  23.157  0.00  0.00    +0.000 A 
ATOM     12  C   UNL     1      -0.180   9.204  22.661  0.00  0.00    +0.000 A 
ATOM     13  C   UNL     1      -0.036   9.026  21.287  0.00  0.00    +0.000 A 
ATOM     14  C   UNL     1      -0.445  10.024  20.384  0.00  0.00    +0.000 A 
ENDROOT
BRANCH  10  15
ATOM     15  C   UNL     1      -1.807  12.587  22.833  0.00  0.00    +0.000 A 
ATOM     16  C   UNL     1      -1.079  13.489  23.497  0.00  0.00    +0.000 A 
ATOM     17  C   UNL     1      -1.785  14.590  24.157  0.00  0.00    +0.000 A 
ATOM     18  O   UNL     1      -1.191  15.416  24.839  0.00  0.00    +0.000 OA
ATOM     19  C   UNL     1      -3.238  14.661  23.962  0.00  0.00    +0.000 A 
ATOM     20  C   UNL     1      -3.879  13.720  23.254  0.00  0.00    +0.000 A 
ATOM     21  O   UNL     1      -3.184  12.639  22.706  0.00  0.00    +0.000 OA
BRANCH  20  22
ATOM     22  N   UNL     1      -5.248  13.752  23.006  0.00  0.00    +0.000 N 
ATOM     23  C   UNL     1      -6.267  13.891  24.063  0.00  0.00    +0.000 C 
ATOM     24  C   UNL     1      -7.337  12.797  23.923  0.00  0.00    +0.000 C 
ATOM     25  O   UNL     1      -7.913  12.775  22.605  0.00  0.00    +0.000 OA
ATOM     26  C   UNL     1      -6.891  12.562  21.621  0.00  0.00    +0.000 C 
ATOM     27  C   UNL     1      -5.840  13.680  21.658  0.00  0.00    +0.000 C 
ENDBRANCH  20  22
ENDBRANCH  10  15
BRANCH   4  28
ATOM     28  O   UNL     1      -3.011   9.215  14.975  0.00  0.00    +0.000 OA
ATOM     29  C   UNL     1      -3.473   9.869  13.796  0.00  0.00    +0.000 C 
ENDBRANCH   4  28
BRANCH   1  30
ATOM     30  C   UNL     1       1.160  10.563  18.510  0.00  0.00    +0.000 C 
BRANCH  30  32
ATOM     31  C   UNL     1       2.174   8.589  17.674  0.00  0.00    +0.000 C 
ATOM     32  O   UNL     1       2.263   9.651  18.612  0.00  0.00    +0.000 OA
ENDBRANCH  30  32
ENDBRANCH   1  30
TORSDOF 5
ENDMDL
MODEL 5
REMARK VINA RESULT:      -7.1      1.000      1.283
REMARK  Name = 
REMARK  7 active torsions:
REMARK  status: ('A' for Active; 'I' for Inactive)
REMARK    1  A    between atoms: C_1  and  O_2
REMARK    2  A    between atoms: O_2  and  C_3
REMARK    3  A    between atoms: C_3  and  C_4
REMARK    4  A    between atoms: C_7  and  O_8
REMARK    5  A    between atoms: O_8  and  C_9
REMARK    6  A    between atoms: C_15  and  C_16
REMARK    7  A    between atoms: C_21  and  N_22
REMARK                            x       y       z     vdW  Elec       q    Type
REMARK                         _______ _______ _______ _____ _____    ______ ____
ROOT
ATOM      1  C   UNL     1      -0.169  10.284  18.974  0.00  0.00    +0.000 C 
ATOM      2  C   UNL     1      -1.443  10.565  18.188  0.00  0.00    +0.000 A 
ATOM      3  C   UNL     1      -1.729   9.863  17.001  0.00  0.00    +0.000 A 
ATOM      4  C   UNL     1      -2.892  10.128  16.265  0.00  0.00    +0.000 A 
ATOM      5  C   UNL     1      -3.779  11.104  16.715  0.00  0.00    +0.000 A 
ATOM      6  C   UNL     1      -3.504  11.812  17.888  0.00  0.00    +0.000 A 
ATOM      7  C   UNL     1      -2.346  11.548  18.621  0.00  0.00    +0.000 A 
ATOM      8  S   UNL     1      -2.058  12.485  20.103  0.00  0.00    +0.000 S 
ATOM      9  C   UNL     1      -1.183  11.277  21.107  0.00  0.00    +0.000 A 
ATOM     10  C   UNL     1      -1.278  11.321  22.518  0.00  0.00    +0.000 A 
ATOM     11  C   UNL     1      -0.600  10.362  23.288  0.00  0.00    +0.000 A 
ATOM     12  C   UNL     1       0.153   9.366  22.672  0.00  0.00    +0.000 A 
ATOM     13  C   UNL     1       0.253   9.326  21.283  0.00  0.00    +0.000 A 
ATOM     14  C   UNL     1      -0.400  10.284  20.486  0.00  0.00    +0.000 A 
ENDROOT
BRANCH  10  15
ATOM     15  C   UNL     1      -2.114  12.316  23.198  0.00  0.00    +0.000 A 
ATOM     16  C   UNL     1      -3.315  11.972  23.672  0.00  0.00    +0.000 A 
ATOM     17  C   UNL     1      -4.170  13.033  24.209  0.00  0.00    +0.000 A 
ATOM     18  O   UNL     1      -5.308  12.805  24.598  0.00  0.00    +0.000 OA
ATOM     19  C   UNL     1      -3.600  14.385  24.262  0.00  0.00    +0.000 A 
ATOM     20  C   UNL     1      -2.371  14.627  23.785  0.00  0.00    +0.000 A 
ATOM     21  O   UNL     1      -1.614  13.606  23.206  0.00  0.00    +0.000 OA
BRANCH  20  22
ATOM     22  N   UNL     1      -1.764  15.878  23.839  0.00  0.00    +0.000 N 
ATOM     23  C   UNL     1      -2.513  17.149  23.865  0.00  0.00    +0.000 C 
ATOM     24  C   UNL     1      -1.978  18.107  22.788  0.00  0.00    +0.000 C 
ATOM     25  O   UNL     1      -0.557  18.305  22.904  0.00  0.00    +0.000 OA
ATOM     26  C   UNL     1       0.128  17.048  22.797  0.00  0.00    +0.000 C 
ATOM     27  C   UNL     1      -0.305  16.081  23.908  0.00  0.00    +0.000 C 
ENDBRANCH  20  22
ENDBRANCH  10  15
BRANCH   4  28
ATOM     28  O   UNL     1      -3.049   9.377  15.132  0.00  0.00    +0.000 OA
ATOM     29  C   UNL     1      -3.392  10.082  13.943  0.00  0.00    +0.000 C 
ENDBRANCH   4  28
BRANCH   1  30
ATOM     30  C   UNL     1       0.954  11.284  18.603  0.00  0.00    +0.000 C 
BRANCH  30  32
ATOM     31  C   UNL     1       1.863  13.219  19.629  0.00  0.00    +0.000 C 
ATOM     32  O   UNL     1       1.524  11.850  19.792  0.00  0.00    +0.000 OA
ENDBRANCH  30  32
ENDBRANCH   1  30
TORSDOF 5
ENDMDL
MODEL 6
REMARK VINA RESULT:      -6.8      4.897      8.125
REMARK  Name = 
REMARK  7 active torsions:
REMARK  status: ('A' for Active; 'I' for Inactive)
REMARK    1  A    between atoms: C_1  and  O_2
REMARK    2  A    between atoms: O_2  and  C_3
REMARK    3  A    between atoms: C_3  and  C_4
REMARK    4  A    between atoms: C_7  and  O_8
REMARK    5  A    between atoms: O_8  and  C_9
REMARK    6  A    between atoms: C_15  and  C_16
REMARK    7  A    between atoms: C_21  and  N_22
REMARK                            x       y       z     vdW  Elec       q    Type
REMARK                         _______ _______ _______ _____ _____    ______ ____
ROOT
ATOM      1  C   UNL     1       4.881   4.029  18.303  0.00  0.00    +0.000 C 
ATOM      2  C   UNL     1       5.176   4.532  16.896  0.00  0.00    +0.000 A 
ATOM      3  C   UNL     1       5.649   3.656  15.900  0.00  0.00    +0.000 A 
ATOM      4  C   UNL     1       5.936   4.115  14.608  0.00  0.00    +0.000 A 
ATOM      5  C   UNL     1       5.752   5.462  14.304  0.00  0.00    +0.000 A 
ATOM      6  C   UNL     1       5.289   6.344  15.284  0.00  0.00    +0.000 A 
ATOM      7  C   UNL     1       5.002   5.886  16.571  0.00  0.00    +0.000 A 
ATOM      8  S   UNL     1       4.417   7.060  17.770  0.00  0.00    +0.000 S 
ATOM      9  C   UNL     1       3.340   6.022  18.767  0.00  0.00    +0.000 A 
ATOM     10  C   UNL     1       2.221   6.584  19.427  0.00  0.00    +0.000 A 
ATOM     11  C   UNL     1       1.381   5.758  20.192  0.00  0.00    +0.000 A 
ATOM     12  C   UNL     1       1.637   4.392  20.295  0.00  0.00    +0.000 A 
ATOM     13  C   UNL     1       2.743   3.840  19.651  0.00  0.00    +0.000 A 
ATOM     14  C   UNL     1       3.612   4.645  18.893  0.00  0.00    +0.000 A 
ENDROOT
BRANCH  10  15
ATOM     15  C   UNL     1       1.885   8.004  19.289  0.00  0.00    +0.000 A 
ATOM     16  C   UNL     1       2.162   8.653  18.154  0.00  0.00    +0.000 A 
ATOM     17  C   UNL     1       1.943  10.101  18.120  0.00  0.00    +0.000 A 
ATOM     18  O   UNL     1       2.237  10.771  17.138  0.00  0.00    +0.000 OA
ATOM     19  C   UNL     1       1.350  10.713  19.315  0.00  0.00    +0.000 A 
ATOM     20  C   UNL     1       1.081   9.973  20.400  0.00  0.00    +0.000 A 
ATOM     21  O   UNL     1       1.378   8.608  20.426  0.00  0.00    +0.000 OA
BRANCH  20  22
ATOM     22  N   UNL     1       0.488  10.488  21.548  0.00  0.00    +0.000 N 
ATOM     23  C   UNL     1       0.366   9.737  22.812  0.00  0.00    +0.000 C 
ATOM     24  C   UNL     1      -1.084   9.779  23.320  0.00  0.00    +0.000 C 
ATOM     25  O   UNL     1      -1.575  11.126  23.434  0.00  0.00    +0.000 OA
ATOM     26  C   UNL     1      -1.503  11.788  22.162  0.00  0.00    +0.000 C 
ATOM     27  C   UNL     1      -0.059  11.854  21.649  0.00  0.00    +0.000 C 
ENDBRANCH  20  22
ENDBRANCH  10  15
BRANCH   4  28
ATOM     28  O   UNL     1       6.390   3.161  13.737  0.00  0.00    +0.000 OA
ATOM     29  C   UNL     1       5.912   3.243  12.397  0.00  0.00    +0.000 C 
ENDBRANCH   4  28
BRANCH   1  30
ATOM     30  C   UNL     1       6.084   4.268  19.250  0.00  0.00    +0.000 C 
BRANCH  30  32
ATOM     31  C   UNL     1       7.889   5.801  19.138  0.00  0.00    +0.000 C 
ATOM     32  O   UNL     1       7.219   4.723  18.500  0.00  0.00    +0.000 OA
ENDBRANCH  30  32
ENDBRANCH   1  30
TORSDOF 5
ENDMDL
MODEL 7
REMARK VINA RESULT:      -6.8      2.360      5.043
REMARK  Name = 
REMARK  7 active torsions:
REMARK  status: ('A' for Active; 'I' for Inactive)
REMARK    1  A    between atoms: C_1  and  O_2
REMARK    2  A    between atoms: O_2  and  C_3
REMARK    3  A    between atoms: C_3  and  C_4
REMARK    4  A    between atoms: C_7  and  O_8
REMARK    5  A    between atoms: O_8  and  C_9
REMARK    6  A    between atoms: C_15  and  C_16
REMARK    7  A    between atoms: C_21  and  N_22
REMARK                            x       y       z     vdW  Elec       q    Type
REMARK                         _______ _______ _______ _____ _____    ______ ____
ROOT
ATOM      1  C   UNL     1      -0.379  11.337  18.712  0.00  0.00    +0.000 C 
ATOM      2  C   UNL     1       0.146  10.336  19.734  0.00  0.00    +0.000 A 
ATOM      3  C   UNL     1       1.052   9.327  19.356  0.00  0.00    +0.000 A 
ATOM      4  C   UNL     1       1.527   8.394  20.287  0.00  0.00    +0.000 A 
ATOM      5  C   UNL     1       1.093   8.465  21.609  0.00  0.00    +0.000 A 
ATOM      6  C   UNL     1       0.189   9.458  21.997  0.00  0.00    +0.000 A 
ATOM      7  C   UNL     1      -0.284  10.388  21.069  0.00  0.00    +0.000 A 
ATOM      8  S   UNL     1      -1.431  11.624  21.628  0.00  0.00    +0.000 S 
ATOM      9  C   UNL     1      -0.996  13.003  20.559  0.00  0.00    +0.000 A 
ATOM     10  C   UNL     1      -1.181  14.333  21.003  0.00  0.00    +0.000 A 
ATOM     11  C   UNL     1      -0.824  15.400  20.162  0.00  0.00    +0.000 A 
ATOM     12  C   UNL     1      -0.281  15.155  18.903  0.00  0.00    +0.000 A 
ATOM     13  C   UNL     1      -0.105  13.845  18.462  0.00  0.00    +0.000 A 
ATOM     14  C   UNL     1      -0.471  12.757  19.275  0.00  0.00    +0.000 A 
ENDROOT
BRANCH  10  15
ATOM     15  C   UNL     1      -1.689  14.629  22.347  0.00  0.00    +0.000 A 
ATOM     16  C   UNL     1      -0.846  14.993  23.318  0.00  0.00    +0.000 A 
ATOM     17  C   UNL     1      -1.382  15.132  24.674  0.00  0.00    +0.000 A 
ATOM     18  O   UNL     1      -0.658  15.397  25.625  0.00  0.00    +0.000 OA
ATOM     19  C   UNL     1      -2.828  14.942  24.842  0.00  0.00    +0.000 A 
ATOM     20  C   UNL     1      -3.598  14.603  23.799  0.00  0.00    +0.000 A 
ATOM     21  O   UNL     1      -3.040  14.400  22.534  0.00  0.00    +0.000 OA
BRANCH  20  22
ATOM     22  N   UNL     1      -4.978  14.443  23.888  0.00  0.00    +0.000 N 
ATOM     23  C   UNL     1      -5.638  13.137  24.075  0.00  0.00    +0.000 C 
ATOM     24  C   UNL     1      -6.745  12.943  23.026  0.00  0.00    +0.000 C 
ATOM     25  O   UNL     1      -7.681  14.036  23.025  0.00  0.00    +0.000 OA
ATOM     26  C   UNL     1      -6.998  15.272  22.764  0.00  0.00    +0.000 C 
ATOM     27  C   UNL     1      -5.939  15.560  23.837  0.00  0.00    +0.000 C 
ENDBRANCH  20  22
ENDBRANCH  10  15
BRANCH   4  28
ATOM     28  O   UNL     1       2.401   7.466  19.789  0.00  0.00    +0.000 OA
ATOM     29  C   UNL     1       2.466   7.348  18.371  0.00  0.00    +0.000 C 
ENDBRANCH   4  28
BRANCH   1  30
ATOM     30  C   UNL     1      -1.752  10.896  18.145  0.00  0.00    +0.000 C 
BRANCH  30  32
ATOM     31  C   UNL     1      -2.708   9.904  16.216  0.00  0.00    +0.000 C 
ATOM     32  O   UNL     1      -1.564   9.984  17.053  0.00  0.00    +0.000 OA
ENDBRANCH  30  32
ENDBRANCH   1  30
TORSDOF 5
ENDMDL
MODEL 8
REMARK VINA RESULT:      -6.7      7.161      9.933
REMARK  Name = 
REMARK  7 active torsions:
REMARK  status: ('A' for Active; 'I' for Inactive)
REMARK    1  A    between atoms: C_1  and  O_2
REMARK    2  A    between atoms: O_2  and  C_3
REMARK    3  A    between atoms: C_3  and  C_4
REMARK    4  A    between atoms: C_7  and  O_8
REMARK    5  A    between atoms: O_8  and  C_9
REMARK    6  A    between atoms: C_15  and  C_16
REMARK    7  A    between atoms: C_21  and  N_22
REMARK                            x       y       z     vdW  Elec       q    Type
REMARK                         _______ _______ _______ _____ _____    ______ ____
ROOT
ATOM      1  C   UNL     1       1.815  14.804  19.607  0.00  0.00    +0.000 C 
ATOM      2  C   UNL     1       1.548  15.976  18.672  0.00  0.00    +0.000 A 
ATOM      3  C   UNL     1       0.274  16.575  18.611  0.00  0.00    +0.000 A 
ATOM      4  C   UNL     1       0.017  17.644  17.742  0.00  0.00    +0.000 A 
ATOM      5  C   UNL     1       1.038  18.121  16.924  0.00  0.00    +0.000 A 
ATOM      6  C   UNL     1       2.305  17.533  16.970  0.00  0.00    +0.000 A 
ATOM      7  C   UNL     1       2.561  16.468  17.836  0.00  0.00    +0.000 A 
ATOM      8  S   UNL     1       4.194  15.767  17.845  0.00  0.00    +0.000 S 
ATOM      9  C   UNL     1       4.337  15.256  19.563  0.00  0.00    +0.000 A 
ATOM     10  C   UNL     1       5.605  15.213  20.190  0.00  0.00    +0.000 A 
ATOM     11  C   UNL     1       5.699  14.825  21.536  0.00  0.00    +0.000 A 
ATOM     12  C   UNL     1       4.554  14.493  22.257  0.00  0.00    +0.000 A 
ATOM     13  C   UNL     1       3.306  14.528  21.638  0.00  0.00    +0.000 A 
ATOM     14  C   UNL     1       3.183  14.895  20.286  0.00  0.00    +0.000 A 
ENDROOT
BRANCH  10  15
ATOM     15  C   UNL     1       6.823  15.617  19.481  0.00  0.00    +0.000 A 
ATOM     16  C   UNL     1       7.103  16.913  19.313  0.00  0.00    +0.000 A 
ATOM     17  C   UNL     1       8.251  17.263  18.472  0.00  0.00    +0.000 A 
ATOM     18  O   UNL     1       8.528  18.428  18.218  0.00  0.00    +0.000 OA
ATOM     19  C   UNL     1       9.057  16.153  17.948  0.00  0.00    +0.000 A 
ATOM     20  C   UNL     1       8.710  14.882  18.195  0.00  0.00    +0.000 A 
ATOM     21  O   UNL     1       7.562  14.583  18.934  0.00  0.00    +0.000 OA
BRANCH  20  22
ATOM     22  N   UNL     1       9.452  13.789  17.756  0.00  0.00    +0.000 N 
ATOM     23  C   UNL     1       8.941  12.405  17.748  0.00  0.00    +0.000 C 
ATOM     24  C   UNL     1       9.938  11.463  18.442  0.00  0.00    +0.000 C 
ATOM     25  O   UNL     1      11.256  11.565  17.874  0.00  0.00    +0.000 OA
ATOM     26  C   UNL     1      11.736  12.914  17.974  0.00  0.00    +0.000 C 
ATOM     27  C   UNL     1      10.821  13.888  17.219  0.00  0.00    +0.000 C 
ENDBRANCH  20  22
ENDBRANCH  10  15
BRANCH   4  28
ATOM     28  O   UNL     1      -1.261  18.132  17.780  0.00  0.00    +0.000 OA
ATOM     29  C   UNL     1      -1.958  18.000  19.016  0.00  0.00    +0.000 C 
ENDBRANCH   4  28
BRANCH   1  30
ATOM     30  C   UNL     1       1.673  13.450  18.867  0.00  0.00    +0.000 C 
BRANCH  30  32
ATOM     31  C   UNL     1       1.008  11.687  20.307  0.00  0.00    +0.000 C 
ATOM     32  O   UNL     1       0.577  12.703  19.412  0.00  0.00    +0.000 OA
ENDBRANCH  30  32
ENDBRANCH   1  30
TORSDOF 5
ENDMDL
MODEL 9
REMARK VINA RESULT:      -6.5      3.998      8.829
REMARK  Name = 
REMARK  7 active torsions:
REMARK  status: ('A' for Active; 'I' for Inactive)
REMARK    1  A    between atoms: C_1  and  O_2
REMARK    2  A    between atoms: O_2  and  C_3
REMARK    3  A    between atoms: C_3  and  C_4
REMARK    4  A    between atoms: C_7  and  O_8
REMARK    5  A    between atoms: O_8  and  C_9
REMARK    6  A    between atoms: C_15  and  C_16
REMARK    7  A    between atoms: C_21  and  N_22
REMARK                            x       y       z     vdW  Elec       q    Type
REMARK                         _______ _______ _______ _____ _____    ______ ____
ROOT
ATOM      1  C   UNL     1      -1.145  12.822  21.169  0.00  0.00    +0.000 C 
ATOM      2  C   UNL     1      -0.196  13.683  20.345  0.00  0.00    +0.000 A 
ATOM      3  C   UNL     1      -0.111  15.072  20.561  0.00  0.00    +0.000 A 
ATOM      4  C   UNL     1       0.749  15.872  19.797  0.00  0.00    +0.000 A 
ATOM      5  C   UNL     1       1.531  15.284  18.806  0.00  0.00    +0.000 A 
ATOM      6  C   UNL     1       1.452  13.907  18.577  0.00  0.00    +0.000 A 
ATOM      7  C   UNL     1       0.595  13.110  19.339  0.00  0.00    +0.000 A 
ATOM      8  S   UNL     1       0.543  11.367  18.996  0.00  0.00    +0.000 S 
ATOM      9  C   UNL     1       0.198  10.707  20.632  0.00  0.00    +0.000 A 
ATOM     10  C   UNL     1       0.652   9.416  20.989  0.00  0.00    +0.000 A 
ATOM     11  C   UNL     1       0.386   8.918  22.276  0.00  0.00    +0.000 A 
ATOM     12  C   UNL     1      -0.310   9.693  23.202  0.00  0.00    +0.000 A 
ATOM     13  C   UNL     1      -0.763  10.962  22.849  0.00  0.00    +0.000 A 
ATOM     14  C   UNL     1      -0.528  11.478  21.562  0.00  0.00    +0.000 A 
ENDROOT
BRANCH  10  15
ATOM     15  C   UNL     1       1.443   8.599  20.063  0.00  0.00    +0.000 A 
ATOM     16  C   UNL     1       1.867   9.116  18.906  0.00  0.00    +0.000 A 
ATOM     17  C   UNL     1       2.524   8.218  17.954  0.00  0.00    +0.000 A 
ATOM     18  O   UNL     1       2.879   8.606  16.847  0.00  0.00    +0.000 OA
ATOM     19  C   UNL     1       2.741   6.832  18.385  0.00  0.00    +0.000 A 
ATOM     20  C   UNL     1       2.302   6.412  19.579  0.00  0.00    +0.000 A 
ATOM     21  O   UNL     1       1.607   7.275  20.431  0.00  0.00    +0.000 OA
BRANCH  20  22
ATOM     22  N   UNL     1       2.508   5.121  20.058  0.00  0.00    +0.000 N 
ATOM     23  C   UNL     1       3.701   4.313  19.741  0.00  0.00    +0.000 C 
ATOM     24  C   UNL     1       3.286   2.924  19.233  0.00  0.00    +0.000 C 
ATOM     25  O   UNL     1       2.401   2.258  20.152  0.00  0.00    +0.000 OA
ATOM     26  C   UNL     1       1.224   3.051  20.367  0.00  0.00    +0.000 C 
ATOM     27  C   UNL     1       1.576   4.421  20.961  0.00  0.00    +0.000 C 
ENDBRANCH  20  22
ENDBRANCH  10  15
BRANCH   4  28
ATOM     28  O   UNL     1       0.735  17.205  20.107  0.00  0.00    +0.000 OA
ATOM     29  C   UNL     1       1.999  17.858  20.170  0.00  0.00    +0.000 C 
ENDBRANCH   4  28
BRANCH   1  30
ATOM     30  C   UNL     1      -2.489  12.599  20.430  0.00  0.00    +0.000 C 
BRANCH  30  32
ATOM     31  C   UNL     1      -4.809  12.956  20.763  0.00  0.00    +0.000 C 
ATOM     32  O   UNL     1      -3.574  12.600  21.367  0.00  0.00    +0.000 OA
ENDBRANCH  30  32
ENDBRANCH   1  30
TORSDOF 5
ENDMDL
