MODEL 1
REMARK VINA RESULT:      -7.0      0.000      0.000
REMARK  Name = 
REMARK  7 active torsions:
REMARK  status: ('A' for Active; 'I' for Inactive)
REMARK    1  A    between atoms: C_1  and  C_2
REMARK    2  A    between atoms: C_2  and  C_3
REMARK    3  A    between atoms: C_2  and  C_4
REMARK    4  A    between atoms: C_4  and  C_5
REMARK    5  A    between atoms: C_4  and  N_12
REMARK    6  A    between atoms: C_5  and  N_6
REMARK    7  A    between atoms: C_13  and  C_15
REMARK                            x       y       z     vdW  Elec       q    Type
REMARK                         _______ _______ _______ _____ _____    ______ ____
ROOT
ATOM      1  C   UNL     1       6.366   6.546  17.649  0.00  0.00    +0.000 C 
ENDROOT
BRANCH   1   2
ATOM      2  N   UNL     1       6.397   6.110  16.253  0.00  0.00    +0.000 N 
ATOM      3  C   UNL     1       7.118   5.010  15.806  0.00  0.00    +0.000 C 
ATOM      4  O   UNL     1       7.786   4.301  16.555  0.00  0.00    +0.000 OA
ATOM      5  H   UNL     1       6.078   6.760  15.536  0.00  0.00    +0.000 HD
BRANCH   3   6
ATOM      6  C   UNL     1       7.017   4.724  14.324  0.00  0.00    +0.000 A 
ATOM      7  N   UNL     1       6.174   3.734  13.943  0.00  0.00    +0.000 NA
ATOM      8  C   UNL     1       6.161   3.466  12.625  0.00  0.00    +0.000 A 
ATOM      9  C   UNL     1       6.944   4.123  11.699  0.00  0.00    +0.000 A 
ATOM     10  C   UNL     1       7.760   5.110  12.198  0.00  0.00    +0.000 A 
ATOM     11  N   UNL     1       7.818   5.434  13.501  0.00  0.00    +0.000 NA
ENDBRANCH   3   6
ENDBRANCH   1   2
BRANCH   1  13
ATOM     12  C   UNL     1       7.917   5.942  19.631  0.00  0.00    +0.000 C 
ATOM     13  C   UNL     1       7.792   6.651  18.279  0.00  0.00    +0.000 C 
ATOM     14  C   UNL     1       8.254   8.108  18.406  0.00  0.00    +0.000 C 
ENDBRANCH   1  13
BRANCH   1  15
ATOM     15  C   UNL     1       5.446   5.611  18.490  0.00  0.00    +0.000 C 
BRANCH  15  16
ATOM     16  N   UNL     1       4.110   5.295  17.936  0.00  0.00    +0.000 NA
ATOM     17  C   UNL     1       2.996   5.726  18.813  0.00  0.00    +0.000 C 
ATOM     18  C   UNL     1       2.913   4.945  20.136  0.00  0.00    +0.000 C 
ATOM     19  O   UNL     1       2.781   3.538  19.901  0.00  0.00    +0.000 OA
ATOM     20  C   UNL     1       3.855   3.042  19.092  0.00  0.00    +0.000 C 
ATOM     21  C   UNL     1       3.977   3.821  17.765  0.00  0.00    +0.000 C 
ENDBRANCH  15  16
ENDBRANCH   1  15
TORSDOF 5
ENDMDL
MODEL 2
REMARK VINA RESULT:      -6.9      3.282      7.388
REMARK  Name = 
REMARK  7 active torsions:
REMARK  status: ('A' for Active; 'I' for Inactive)
REMARK    1  A    between atoms: C_1  and  C_2
REMARK    2  A    between atoms: C_2  and  C_3
REMARK    3  A    between atoms: C_2  and  C_4
REMARK    4  A    between atoms: C_4  and  C_5
REMARK    5  A    between atoms: C_4  and  N_12
REMARK    6  A    between atoms: C_5  and  N_6
REMARK    7  A    between atoms: C_13  and  C_15
REMARK                            x       y       z     vdW  Elec       q    Type
REMARK                         _______ _______ _______ _____ _____    ______ ____
ROOT
ATOM      1  C   UNL     1       3.140   5.693  17.786  0.00  0.00    +0.000 C 
ENDROOT
BRANCH   1   2
ATOM      2  N   UNL     1       2.519   6.620  18.733  0.00  0.00    +0.000 N 
ATOM      3  C   UNL     1       2.245   7.949  18.440  0.00  0.00    +0.000 C 
ATOM      4  O   UNL     1       2.494   8.458  17.349  0.00  0.00    +0.000 OA
ATOM      5  H   UNL     1       2.498   6.362  19.718  0.00  0.00    +0.000 HD
BRANCH   3   6
ATOM      6  C   UNL     1       1.597   8.741  19.555  0.00  0.00    +0.000 A 
ATOM      7  N   UNL     1       1.552   8.160  20.778  0.00  0.00    +0.000 NA
ATOM      8  C   UNL     1       0.911   8.868  21.726  0.00  0.00    +0.000 A 
ATOM      9  C   UNL     1       0.320  10.094  21.503  0.00  0.00    +0.000 A 
ATOM     10  C   UNL     1       0.430  10.587  20.225  0.00  0.00    +0.000 A 
ATOM     11  N   UNL     1       1.061   9.938  19.232  0.00  0.00    +0.000 NA
ENDBRANCH   3   6
ENDBRANCH   1   2
BRANCH   1  13
ATOM     12  C   UNL     1       1.523   4.020  18.918  0.00  0.00    +0.000 C 
ATOM     13  C   UNL     1       2.375   4.334  17.684  0.00  0.00    +0.000 C 
ATOM     14  C   UNL     1       3.324   3.166  17.390  0.00  0.00    +0.000 C 
ENDBRANCH   1  13
BRANCH   1  15
ATOM     15  C   UNL     1       4.639   5.470  18.147  0.00  0.00    +0.000 C 
BRANCH  15  16
ATOM     16  N   UNL     1       5.641   6.278  17.414  0.00  0.00    +0.000 NA
ATOM     17  C   UNL     1       5.831   5.841  16.010  0.00  0.00    +0.000 C 
ATOM     18  C   UNL     1       6.477   4.451  15.876  0.00  0.00    +0.000 C 
ATOM     19  O   UNL     1       7.749   4.405  16.536  0.00  0.00    +0.000 OA
ATOM     20  C   UNL     1       7.633   4.774  17.916  0.00  0.00    +0.000 C 
ATOM     21  C   UNL     1       6.966   6.156  18.084  0.00  0.00    +0.000 C 
ENDBRANCH  15  16
ENDBRANCH   1  15
TORSDOF 5
ENDMDL
MODEL 3
REMARK VINA RESULT:      -6.9      1.413      2.176
REMARK  Name = 
REMARK  7 active torsions:
REMARK  status: ('A' for Active; 'I' for Inactive)
REMARK    1  A    between atoms: C_1  and  C_2
REMARK    2  A    between atoms: C_2  and  C_3
REMARK    3  A    between atoms: C_2  and  C_4
REMARK    4  A    between atoms: C_4  and  C_5
REMARK    5  A    between atoms: C_4  and  N_12
REMARK    6  A    between atoms: C_5  and  N_6
REMARK    7  A    between atoms: C_13  and  C_15
REMARK                            x       y       z     vdW  Elec       q    Type
REMARK                         _______ _______ _______ _____ _____    ______ ____
ROOT
ATOM      1  C   UNL     1       5.884   5.447  18.008  0.00  0.00    +0.000 C 
ENDROOT
BRANCH   1   2
ATOM      2  N   UNL     1       6.247   4.966  16.675  0.00  0.00    +0.000 N 
ATOM      3  C   UNL     1       5.825   5.569  15.498  0.00  0.00    +0.000 C 
ATOM      4  O   UNL     1       5.114   6.571  15.479  0.00  0.00    +0.000 OA
ATOM      5  H   UNL     1       6.625   4.024  16.588  0.00  0.00    +0.000 HD
BRANCH   3   6
ATOM      6  C   UNL     1       6.313   4.919  14.222  0.00  0.00    +0.000 A 
ATOM      7  N   UNL     1       7.421   5.445  13.645  0.00  0.00    +0.000 NA
ATOM      8  C   UNL     1       7.784   4.882  12.479  0.00  0.00    +0.000 A 
ATOM      9  C   UNL     1       7.097   3.848  11.877  0.00  0.00    +0.000 A 
ATOM     10  C   UNL     1       5.990   3.393  12.552  0.00  0.00    +0.000 A 
ATOM     11  N   UNL     1       5.574   3.905  13.723  0.00  0.00    +0.000 NA
ENDBRANCH   3   6
ENDBRANCH   1   2
BRANCH   1  13
ATOM     12  C   UNL     1       7.676   7.300  17.782  0.00  0.00    +0.000 C 
ATOM     13  C   UNL     1       7.037   6.248  18.694  0.00  0.00    +0.000 C 
ATOM     14  C   UNL     1       8.118   5.320  19.261  0.00  0.00    +0.000 C 
ENDBRANCH   1  13
BRANCH   1  15
ATOM     15  C   UNL     1       5.409   4.264  18.903  0.00  0.00    +0.000 C 
BRANCH  15  16
ATOM     16  N   UNL     1       4.006   4.288  19.374  0.00  0.00    +0.000 NA
ATOM     17  C   UNL     1       3.546   2.985  19.910  0.00  0.00    +0.000 C 
ATOM     18  C   UNL     1       3.437   1.881  18.844  0.00  0.00    +0.000 C 
ATOM     19  O   UNL     1       2.553   2.267  17.785  0.00  0.00    +0.000 OA
ATOM     20  C   UNL     1       2.965   3.504  17.187  0.00  0.00    +0.000 C 
ATOM     21  C   UNL     1       3.104   4.627  18.237  0.00  0.00    +0.000 C 
ENDBRANCH  15  16
ENDBRANCH   1  15
TORSDOF 5
ENDMDL
MODEL 4
REMARK VINA RESULT:      -6.9      3.293      7.423
REMARK  Name = 
REMARK  7 active torsions:
REMARK  status: ('A' for Active; 'I' for Inactive)
REMARK    1  A    between atoms: C_1  and  C_2
REMARK    2  A    between atoms: C_2  and  C_3
REMARK    3  A    between atoms: C_2  and  C_4
REMARK    4  A    between atoms: C_4  and  C_5
REMARK    5  A    between atoms: C_4  and  N_12
REMARK    6  A    between atoms: C_5  and  N_6
REMARK    7  A    between atoms: C_13  and  C_15
REMARK                            x       y       z     vdW  Elec       q    Type
REMARK                         _______ _______ _______ _____ _____    ______ ____
ROOT
ATOM      1  C   UNL     1       3.103   5.642  17.811  0.00  0.00    +0.000 C 
ENDROOT
BRANCH   1   2
ATOM      2  N   UNL     1       2.455   6.570  18.740  0.00  0.00    +0.000 N 
ATOM      3  C   UNL     1       2.250   7.915  18.465  0.00  0.00    +0.000 C 
ATOM      4  O   UNL     1       2.589   8.440  17.407  0.00  0.00    +0.000 OA
ATOM      5  H   UNL     1       2.360   6.289  19.715  0.00  0.00    +0.000 HD
BRANCH   3   6
ATOM      6  C   UNL     1       1.560   8.704  19.556  0.00  0.00    +0.000 A 
ATOM      7  N   UNL     1       1.086   9.930  19.225  0.00  0.00    +0.000 NA
ATOM      8  C   UNL     1       0.539  10.627  20.238  0.00  0.00    +0.000 A 
ATOM      9  C   UNL     1       0.456  10.163  21.534  0.00  0.00    +0.000 A 
ATOM     10  C   UNL     1       0.967   8.907  21.753  0.00  0.00    +0.000 A 
ATOM     11  N   UNL     1       1.522   8.153  20.788  0.00  0.00    +0.000 NA
ENDBRANCH   3   6
ENDBRANCH   1   2
BRANCH   1  13
ATOM     12  C   UNL     1       1.465   3.964  18.905  0.00  0.00    +0.000 C 
ATOM     13  C   UNL     1       2.343   4.282  17.691  0.00  0.00    +0.000 C 
ATOM     14  C   UNL     1       3.300   3.116  17.416  0.00  0.00    +0.000 C 
ENDBRANCH   1  13
BRANCH   1  15
ATOM     15  C   UNL     1       4.592   5.423  18.212  0.00  0.00    +0.000 C 
BRANCH  15  16
ATOM     16  N   UNL     1       5.601   6.312  17.592  0.00  0.00    +0.000 NA
ATOM     17  C   UNL     1       5.739   6.109  16.130  0.00  0.00    +0.000 C 
ATOM     18  C   UNL     1       6.335   4.743  15.748  0.00  0.00    +0.000 C 
ATOM     19  O   UNL     1       7.621   4.551  16.351  0.00  0.00    +0.000 OA
ATOM     20  C   UNL     1       7.553   4.689  17.776  0.00  0.00    +0.000 C 
ATOM     21  C   UNL     1       6.938   6.043  18.191  0.00  0.00    +0.000 C 
ENDBRANCH  15  16
ENDBRANCH   1  15
TORSDOF 5
ENDMDL
MODEL 5
REMARK VINA RESULT:      -6.8      2.429      6.803
REMARK  Name = 
REMARK  7 active torsions:
REMARK  status: ('A' for Active; 'I' for Inactive)
REMARK    1  A    between atoms: C_1  and  C_2
REMARK    2  A    between atoms: C_2  and  C_3
REMARK    3  A    between atoms: C_2  and  C_4
REMARK    4  A    between atoms: C_4  and  C_5
REMARK    5  A    between atoms: C_4  and  N_12
REMARK    6  A    between atoms: C_5  and  N_6
REMARK    7  A    between atoms: C_13  and  C_15
REMARK                            x       y       z     vdW  Elec       q    Type
REMARK                         _______ _______ _______ _____ _____    ______ ____
ROOT
ATOM      1  C   UNL     1       2.917   3.986  17.535  0.00  0.00    +0.000 C 
ENDROOT
BRANCH   1   2
ATOM      2  N   UNL     1       2.455   5.334  17.869  0.00  0.00    +0.000 N 
ATOM      3  C   UNL     1       2.788   5.992  19.045  0.00  0.00    +0.000 C 
ATOM      4  O   UNL     1       3.513   5.497  19.905  0.00  0.00    +0.000 OA
ATOM      5  H   UNL     1       1.674   5.721  17.342  0.00  0.00    +0.000 HD
BRANCH   3   6
ATOM      6  C   UNL     1       2.211   7.382  19.200  0.00  0.00    +0.000 A 
ATOM      7  N   UNL     1       1.704   7.708  20.414  0.00  0.00    +0.000 NA
ATOM      8  C   UNL     1       1.141   8.927  20.492  0.00  0.00    +0.000 A 
ATOM      9  C   UNL     1       1.058   9.806  19.433  0.00  0.00    +0.000 A 
ATOM     10  C   UNL     1       1.607   9.370  18.251  0.00  0.00    +0.000 A 
ATOM     11  N   UNL     1       2.190   8.168  18.102  0.00  0.00    +0.000 NA
ENDBRANCH   3   6
ENDBRANCH   1   2
BRANCH   1  13
ATOM     12  C   UNL     1       3.331   1.625  18.510  0.00  0.00    +0.000 C 
ATOM     13  C   UNL     1       2.544   2.934  18.628  0.00  0.00    +0.000 C 
ATOM     14  C   UNL     1       1.039   2.641  18.649  0.00  0.00    +0.000 C 
ENDBRANCH   1  13
BRANCH   1  15
ATOM     15  C   UNL     1       4.450   3.991  17.256  0.00  0.00    +0.000 C 
BRANCH  15  16
ATOM     16  N   UNL     1       5.048   5.254  16.768  0.00  0.00    +0.000 NA
ATOM     17  C   UNL     1       5.502   5.181  15.359  0.00  0.00    +0.000 C 
ATOM     18  C   UNL     1       6.695   4.234  15.141  0.00  0.00    +0.000 C 
ATOM     19  O   UNL     1       7.813   4.613  15.954  0.00  0.00    +0.000 OA
ATOM     20  C   UNL     1       7.456   4.662  17.341  0.00  0.00    +0.000 C 
ATOM     21  C   UNL     1       6.246   5.588  17.588  0.00  0.00    +0.000 C 
ENDBRANCH  15  16
ENDBRANCH   1  15
TORSDOF 5
ENDMDL
MODEL 6
REMARK VINA RESULT:      -6.7      1.039      1.735
REMARK  Name = 
REMARK  7 active torsions:
REMARK  status: ('A' for Active; 'I' for Inactive)
REMARK    1  A    between atoms: C_1  and  C_2
REMARK    2  A    between atoms: C_2  and  C_3
REMARK    3  A    between atoms: C_2  and  C_4
REMARK    4  A    between atoms: C_4  and  C_5
REMARK    5  A    between atoms: C_4  and  N_12
REMARK    6  A    between atoms: C_5  and  N_6
REMARK    7  A    between atoms: C_13  and  C_15
REMARK                            x       y       z     vdW  Elec       q    Type
REMARK                         _______ _______ _______ _____ _____    ______ ____
ROOT
ATOM      1  C   UNL     1       5.672   5.653  17.890  0.00  0.00    +0.000 C 
ENDROOT
BRANCH   1   2
ATOM      2  N   UNL     1       5.890   5.462  16.456  0.00  0.00    +0.000 N 
ATOM      3  C   UNL     1       6.928   4.704  15.930  0.00  0.00    +0.000 C 
ATOM      4  O   UNL     1       7.749   4.118  16.632  0.00  0.00    +0.000 OA
ATOM      5  H   UNL     1       5.417   6.089  15.807  0.00  0.00    +0.000 HD
BRANCH   3   6
ATOM      6  C   UNL     1       6.979   4.628  14.420  0.00  0.00    +0.000 A 
ATOM      7  N   UNL     1       6.222   3.674  13.824  0.00  0.00    +0.000 NA
ATOM      8  C   UNL     1       6.345   3.596  12.487  0.00  0.00    +0.000 A 
ATOM      9  C   UNL     1       7.178   4.405  11.743  0.00  0.00    +0.000 A 
ATOM     10  C   UNL     1       7.896   5.337  12.452  0.00  0.00    +0.000 A 
ATOM     11  N   UNL     1       7.818   5.475  13.786  0.00  0.00    +0.000 NA
ENDBRANCH   3   6
ENDBRANCH   1   2
BRANCH   1  13
ATOM     12  C   UNL     1       7.549   7.405  17.567  0.00  0.00    +0.000 C 
ATOM     13  C   UNL     1       6.786   6.520  18.558  0.00  0.00    +0.000 C 
ATOM     14  C   UNL     1       7.772   5.663  19.362  0.00  0.00    +0.000 C 
ENDBRANCH   1  13
BRANCH   1  15
ATOM     15  C   UNL     1       5.523   4.277  18.605  0.00  0.00    +0.000 C 
BRANCH  15  16
ATOM     16  N   UNL     1       4.302   4.060  19.414  0.00  0.00    +0.000 NA
ATOM     17  C   UNL     1       4.063   2.635  19.743  0.00  0.00    +0.000 C 
ATOM     18  C   UNL     1       3.715   1.768  18.520  0.00  0.00    +0.000 C 
ATOM     19  O   UNL     1       2.559   2.271  17.839  0.00  0.00    +0.000 OA
ATOM     20  C   UNL     1       2.738   3.639  17.451  0.00  0.00    +0.000 C 
ATOM     21  C   UNL     1       3.110   4.531  18.654  0.00  0.00    +0.000 C 
ENDBRANCH  15  16
ENDBRANCH   1  15
TORSDOF 5
ENDMDL
MODEL 7
REMARK VINA RESULT:      -6.7      1.371      1.652
REMARK  Name = 
REMARK  7 active torsions:
REMARK  status: ('A' for Active; 'I' for Inactive)
REMARK    1  A    between atoms: C_1  and  C_2
REMARK    2  A    between atoms: C_2  and  C_3
REMARK    3  A    between atoms: C_2  and  C_4
REMARK    4  A    between atoms: C_4  and  C_5
REMARK    5  A    between atoms: C_4  and  N_12
REMARK    6  A    between atoms: C_5  and  N_6
REMARK    7  A    between atoms: C_13  and  C_15
REMARK                            x       y       z     vdW  Elec       q    Type
REMARK                         _______ _______ _______ _____ _____    ______ ____
ROOT
ATOM      1  C   UNL     1       6.307   5.357  17.790  0.00  0.00    +0.000 C 
ENDROOT
BRANCH   1   2
ATOM      2  N   UNL     1       6.474   4.869  16.421  0.00  0.00    +0.000 N 
ATOM      3  C   UNL     1       5.949   5.509  15.306  0.00  0.00    +0.000 C 
ATOM      4  O   UNL     1       5.304   6.552  15.378  0.00  0.00    +0.000 OA
ATOM      5  H   UNL     1       6.780   3.907  16.285  0.00  0.00    +0.000 HD
BRANCH   3   6
ATOM      6  C   UNL     1       6.236   4.844  13.978  0.00  0.00    +0.000 A 
ATOM      7  N   UNL     1       5.378   3.876  13.575  0.00  0.00    +0.000 NA
ATOM      8  C   UNL     1       5.704   3.264  12.422  0.00  0.00    +0.000 A 
ATOM      9  C   UNL     1       6.827   3.566  11.682  0.00  0.00    +0.000 A 
ATOM     10  C   UNL     1       7.624   4.566  12.185  0.00  0.00    +0.000 A 
ATOM     11  N   UNL     1       7.356   5.223  13.327  0.00  0.00    +0.000 NA
ENDBRANCH   3   6
ENDBRANCH   1   2
BRANCH   1  13
ATOM     12  C   UNL     1       7.757   5.635  19.915  0.00  0.00    +0.000 C 
ATOM     13  C   UNL     1       7.642   5.884  18.409  0.00  0.00    +0.000 C 
ATOM     14  C   UNL     1       7.864   7.371  18.105  0.00  0.00    +0.000 C 
ENDBRANCH   1  13
BRANCH   1  15
ATOM     15  C   UNL     1       5.667   4.256  18.687  0.00  0.00    +0.000 C 
BRANCH  15  16
ATOM     16  N   UNL     1       4.288   4.491  19.172  0.00  0.00    +0.000 NA
ATOM     17  C   UNL     1       3.704   3.319  19.867  0.00  0.00    +0.000 C 
ATOM     18  C   UNL     1       3.446   2.117  18.942  0.00  0.00    +0.000 C 
ATOM     19  O   UNL     1       2.579   2.473  17.857  0.00  0.00    +0.000 OA
ATOM     20  C   UNL     1       3.107   3.578  17.111  0.00  0.00    +0.000 C 
ATOM     21  C   UNL     1       3.397   4.793  18.017  0.00  0.00    +0.000 C 
ENDBRANCH  15  16
ENDBRANCH   1  15
TORSDOF 5
ENDMDL
MODEL 8
REMARK VINA RESULT:      -6.7      2.416      6.801
REMARK  Name = 
REMARK  7 active torsions:
REMARK  status: ('A' for Active; 'I' for Inactive)
REMARK    1  A    between atoms: C_1  and  C_2
REMARK    2  A    between atoms: C_2  and  C_3
REMARK    3  A    between atoms: C_2  and  C_4
REMARK    4  A    between atoms: C_4  and  C_5
REMARK    5  A    between atoms: C_4  and  N_12
REMARK    6  A    between atoms: C_5  and  N_6
REMARK    7  A    between atoms: C_13  and  C_15
REMARK                            x       y       z     vdW  Elec       q    Type
REMARK                         _______ _______ _______ _____ _____    ______ ____
ROOT
ATOM      1  C   UNL     1       2.909   3.926  17.516  0.00  0.00    +0.000 C 
ENDROOT
BRANCH   1   2
ATOM      2  N   UNL     1       2.429   5.277  17.808  0.00  0.00    +0.000 N 
ATOM      3  C   UNL     1       2.727   5.964  18.977  0.00  0.00    +0.000 C 
ATOM      4  O   UNL     1       3.434   5.493  19.865  0.00  0.00    +0.000 OA
ATOM      5  H   UNL     1       1.659   5.646  17.253  0.00  0.00    +0.000 HD
BRANCH   3   6
ATOM      6  C   UNL     1       2.136   7.352  19.085  0.00  0.00    +0.000 A 
ATOM      7  N   UNL     1       2.155   8.120  17.969  0.00  0.00    +0.000 NA
ATOM      8  C   UNL     1       1.680   9.369  18.123  0.00  0.00    +0.000 A 
ATOM      9  C   UNL     1       1.209   9.871  19.318  0.00  0.00    +0.000 A 
ATOM     10  C   UNL     1       1.236   9.003  20.383  0.00  0.00    +0.000 A 
ATOM     11  N   UNL     1       1.690   7.741  20.299  0.00  0.00    +0.000 NA
ENDBRANCH   3   6
ENDBRANCH   1   2
BRANCH   1  13
ATOM     12  C   UNL     1       3.391   1.617  18.582  0.00  0.00    +0.000 C 
ATOM     13  C   UNL     1       2.568   2.908  18.651  0.00  0.00    +0.000 C 
ATOM     14  C   UNL     1       1.072   2.574  18.688  0.00  0.00    +0.000 C 
ENDBRANCH   1  13
BRANCH   1  15
ATOM     15  C   UNL     1       4.438   3.945  17.217  0.00  0.00    +0.000 C 
BRANCH  15  16
ATOM     16  N   UNL     1       5.029   5.231  16.783  0.00  0.00    +0.000 NA
ATOM     17  C   UNL     1       5.511   5.211  15.381  0.00  0.00    +0.000 C 
ATOM     18  C   UNL     1       6.720   4.286  15.156  0.00  0.00    +0.000 C 
ATOM     19  O   UNL     1       7.817   4.652  16.002  0.00  0.00    +0.000 OA
ATOM     20  C   UNL     1       7.434   4.649  17.383  0.00  0.00    +0.000 C 
ATOM     21  C   UNL     1       6.208   5.551  17.637  0.00  0.00    +0.000 C 
ENDBRANCH  15  16
ENDBRANCH   1  15
TORSDOF 5
ENDMDL
MODEL 9
REMARK VINA RESULT:      -6.7      3.202      7.442
REMARK  Name = 
REMARK  7 active torsions:
REMARK  status: ('A' for Active; 'I' for Inactive)
REMARK    1  A    between atoms: C_1  and  C_2
REMARK    2  A    between atoms: C_2  and  C_3
REMARK    3  A    between atoms: C_2  and  C_4
REMARK    4  A    between atoms: C_4  and  C_5
REMARK    5  A    between atoms: C_4  and  N_12
REMARK    6  A    between atoms: C_5  and  N_6
REMARK    7  A    between atoms: C_13  and  C_15
REMARK                            x       y       z     vdW  Elec       q    Type
REMARK                         _______ _______ _______ _____ _____    ______ ____
ROOT
ATOM      1  C   UNL     1       3.490   4.981  19.411  0.00  0.00    +0.000 C 
ENDROOT
BRANCH   1   2
ATOM      2  N   UNL     1       2.816   6.141  19.996  0.00  0.00    +0.000 N 
ATOM      3  C   UNL     1       2.270   7.173  19.244  0.00  0.00    +0.000 C 
ATOM      4  O   UNL     1       2.299   7.192  18.016  0.00  0.00    +0.000 OA
ATOM      5  H   UNL     1       2.952   6.330  20.987  0.00  0.00    +0.000 HD
BRANCH   3   6
ATOM      6  C   UNL     1       1.614   8.281  20.039  0.00  0.00    +0.000 A 
ATOM      7  N   UNL     1       1.262   9.401  19.362  0.00  0.00    +0.000 NA
ATOM      8  C   UNL     1       0.743  10.387  20.114  0.00  0.00    +0.000 A 
ATOM      9  C   UNL     1       0.574  10.305  21.480  0.00  0.00    +0.000 A 
ATOM     10  C   UNL     1       0.964   9.122  22.061  0.00  0.00    +0.000 A 
ATOM     11  N   UNL     1       1.485   8.094  21.370  0.00  0.00    +0.000 NA
ENDBRANCH   3   6
ENDBRANCH   1   2
BRANCH   1  13
ATOM     12  C   UNL     1       2.756   2.505  19.252  0.00  0.00    +0.000 C 
ATOM     13  C   UNL     1       3.174   3.655  20.173  0.00  0.00    +0.000 C 
ATOM     14  C   UNL     1       2.119   3.861  21.267  0.00  0.00    +0.000 C 
ENDBRANCH   1  13
BRANCH   1  15
ATOM     15  C   UNL     1       5.026   5.230  19.324  0.00  0.00    +0.000 C 
BRANCH  15  16
ATOM     16  N   UNL     1       5.748   4.627  18.182  0.00  0.00    +0.000 NA
ATOM     17  C   UNL     1       7.176   5.022  18.118  0.00  0.00    +0.000 C 
ATOM     18  C   UNL     1       7.392   6.511  17.797  0.00  0.00    +0.000 C 
ATOM     19  O   UNL     1       6.770   6.870  16.556  0.00  0.00    +0.000 OA
ATOM     20  C   UNL     1       5.372   6.555  16.564  0.00  0.00    +0.000 C 
ATOM     21  C   UNL     1       5.122   5.071  16.905  0.00  0.00    +0.000 C 
ENDBRANCH  15  16
ENDBRANCH   1  15
TORSDOF 5
ENDMDL
