MODEL 1
REMARK VINA RESULT:      -7.1      0.000      0.000
REMARK  Name = 
REMARK  4 active torsions:
REMARK  status: ('A' for Active; 'I' for Inactive)
REMARK    1  A    between atoms: C_1  and  O_2
REMARK    2  A    between atoms: O_2  and  C_3
REMARK    3  A    between atoms: C_6  and  N_7
REMARK    4  A    between atoms: C_18  and  C_19
REMARK                            x       y       z     vdW  Elec       q    Type
REMARK                         _______ _______ _______ _____ _____    ______ ____
ROOT
ATOM      1  N   UNL     1       1.432   7.889  18.124  0.00  0.00    +0.000 N 
ATOM      2  C   UNL     1       1.375   9.301  17.919  0.00  0.00    +0.000 C 
ATOM      3  O   UNL     1       2.406   9.930  17.652  0.00  0.00    +0.000 OA
ATOM      4  N   UNL     1       0.184  10.000  18.474  0.00  0.00    +0.000 N 
ATOM      5  C   UNL     1       0.720  11.051  19.398  0.00  0.00    +0.000 C 
ATOM      6  C   UNL     1      -0.229  12.121  19.905  0.00  0.00    +0.000 C 
ATOM      7  C   UNL     1      -0.743  12.821  18.669  0.00  0.00    +0.000 C 
ATOM      8  C   UNL     1      -1.616  11.759  18.078  0.00  0.00    +0.000 A 
ATOM      9  C   UNL     1      -3.003  11.995  18.232  0.00  0.00    +0.000 A 
ATOM     10  C   UNL     1      -3.892  10.944  18.163  0.00  0.00    +0.000 A 
ATOM     11  C   UNL     1      -3.405   9.710  17.713  0.00  0.00    +0.000 A 
ATOM     12  C   UNL     1      -2.086   9.635  17.161  0.00  0.00    +0.000 A 
ATOM     13  C   UNL     1      -2.313   9.753  15.611  0.00  0.00    +0.000 C 
ATOM     14  C   UNL     1      -1.075  10.481  17.708  0.00  0.00    +0.000 A 
ATOM     15  H   UNL     1       0.577   7.407  17.906  0.00  0.00    +0.000 HD
ENDROOT
BRANCH   1  19
ATOM     16  C   UNL     1       5.134   5.489  18.663  0.00  0.00    +0.000 A 
ATOM     17  C   UNL     1       4.956   6.327  17.574  0.00  0.00    +0.000 A 
ATOM     18  C   UNL     1       3.753   7.098  17.348  0.00  0.00    +0.000 A 
ATOM     19  C   UNL     1       2.646   7.055  18.228  0.00  0.00    +0.000 A 
ATOM     20  C   UNL     1       2.834   6.178  19.320  0.00  0.00    +0.000 A 
ATOM     21  C   UNL     1       4.048   5.393  19.542  0.00  0.00    +0.000 A 
BRANCH  16  23
ATOM     22  C   UNL     1       7.242   4.790  17.658  0.00  0.00    +0.000 C 
ATOM     23  O   UNL     1       6.322   4.809  18.747  0.00  0.00    +0.000 OA
ENDBRANCH  16  23
ENDBRANCH   1  19
TORSDOF 2
ENDMDL
MODEL 2
REMARK VINA RESULT:      -7.0      0.296      1.047
REMARK  Name = 
REMARK  4 active torsions:
REMARK  status: ('A' for Active; 'I' for Inactive)
REMARK    1  A    between atoms: C_1  and  O_2
REMARK    2  A    between atoms: O_2  and  C_3
REMARK    3  A    between atoms: C_6  and  N_7
REMARK    4  A    between atoms: C_18  and  C_19
REMARK                            x       y       z     vdW  Elec       q    Type
REMARK                         _______ _______ _______ _____ _____    ______ ____
ROOT
ATOM      1  N   UNL     1       1.379   8.065  18.222  0.00  0.00    +0.000 N 
ATOM      2  C   UNL     1       1.255   9.482  18.099  0.00  0.00    +0.000 C 
ATOM      3  O   UNL     1       2.261  10.179  17.923  0.00  0.00    +0.000 OA
ATOM      4  N   UNL     1       0.002  10.083  18.632  0.00  0.00    +0.000 N 
ATOM      5  C   UNL     1       0.434  11.101  19.643  0.00  0.00    +0.000 C 
ATOM      6  C   UNL     1      -0.595  12.088  20.164  0.00  0.00    +0.000 C 
ATOM      7  C   UNL     1      -1.087  12.835  18.946  0.00  0.00    +0.000 C 
ATOM      8  C   UNL     1      -1.871  11.768  18.249  0.00  0.00    +0.000 A 
ATOM      9  C   UNL     1      -3.275  11.922  18.345  0.00  0.00    +0.000 A 
ATOM     10  C   UNL     1      -4.100  10.833  18.168  0.00  0.00    +0.000 A 
ATOM     11  C   UNL     1      -3.526   9.656  17.672  0.00  0.00    +0.000 A 
ATOM     12  C   UNL     1      -2.179   9.683  17.184  0.00  0.00    +0.000 A 
ATOM     13  C   UNL     1      -2.338   9.885  15.635  0.00  0.00    +0.000 C 
ATOM     14  C   UNL     1      -1.244  10.545  17.833  0.00  0.00    +0.000 A 
ATOM     15  H   UNL     1       0.562   7.555  17.932  0.00  0.00    +0.000 HD
ENDROOT
BRANCH   1  19
ATOM     16  C   UNL     1       5.090   5.622  18.344  0.00  0.00    +0.000 A 
ATOM     17  C   UNL     1       4.127   5.543  19.338  0.00  0.00    +0.000 A 
ATOM     18  C   UNL     1       2.924   6.345  19.349  0.00  0.00    +0.000 A 
ATOM     19  C   UNL     1       2.630   7.290  18.338  0.00  0.00    +0.000 A 
ATOM     20  C   UNL     1       3.631   7.375  17.344  0.00  0.00    +0.000 A 
ATOM     21  C   UNL     1       4.852   6.569  17.340  0.00  0.00    +0.000 A 
BRANCH  16  23
ATOM     22  C   UNL     1       7.128   4.675  17.402  0.00  0.00    +0.000 C 
ATOM     23  O   UNL     1       6.187   4.809  18.464  0.00  0.00    +0.000 OA
ENDBRANCH  16  23
ENDBRANCH   1  19
TORSDOF 2
ENDMDL
MODEL 3
REMARK VINA RESULT:      -6.9      3.261      8.189
REMARK  Name = 
REMARK  4 active torsions:
REMARK  status: ('A' for Active; 'I' for Inactive)
REMARK    1  A    between atoms: C_1  and  O_2
REMARK    2  A    between atoms: O_2  and  C_3
REMARK    3  A    between atoms: C_6  and  N_7
REMARK    4  A    between atoms: C_18  and  C_19
REMARK                            x       y       z     vdW  Elec       q    Type
REMARK                         _______ _______ _______ _____ _____    ______ ____
ROOT
ATOM      1  N   UNL     1       0.194   7.670  20.927  0.00  0.00    +0.000 N 
ATOM      2  C   UNL     1       1.560   7.297  20.740  0.00  0.00    +0.000 C 
ATOM      3  O   UNL     1       2.465   8.030  21.157  0.00  0.00    +0.000 OA
ATOM      4  N   UNL     1       1.830   6.292  19.676  0.00  0.00    +0.000 N 
ATOM      5  C   UNL     1       2.804   6.941  18.739  0.00  0.00    +0.000 C 
ATOM      6  C   UNL     1       3.496   6.075  17.702  0.00  0.00    +0.000 C 
ATOM      7  C   UNL     1       4.249   5.028  18.490  0.00  0.00    +0.000 C 
ATOM      8  C   UNL     1       3.121   4.198  19.016  0.00  0.00    +0.000 A 
ATOM      9  C   UNL     1       2.970   2.946  18.371  0.00  0.00    +0.000 A 
ATOM     10  C   UNL     1       1.758   2.292  18.414  0.00  0.00    +0.000 A 
ATOM     11  C   UNL     1       0.784   2.785  19.291  0.00  0.00    +0.000 A 
ATOM     12  C   UNL     1       1.140   3.799  20.238  0.00  0.00    +0.000 A 
ATOM     13  C   UNL     1       1.465   2.999  21.550  0.00  0.00    +0.000 C 
ATOM     14  C   UNL     1       2.105   4.777  19.849  0.00  0.00    +0.000 A 
ATOM     15  H   UNL     1      -0.441   6.892  20.973  0.00  0.00    +0.000 HD
ENDROOT
BRANCH   1  19
ATOM     16  C   UNL     1      -1.114  11.667  22.363  0.00  0.00    +0.000 A 
ATOM     17  C   UNL     1      -0.984  10.586  23.221  0.00  0.00    +0.000 A 
ATOM     18  C   UNL     1      -0.593   9.264  22.785  0.00  0.00    +0.000 A 
ATOM     19  C   UNL     1      -0.313   8.961  21.432  0.00  0.00    +0.000 A 
ATOM     20  C   UNL     1      -0.472  10.067  20.567  0.00  0.00    +0.000 A 
ATOM     21  C   UNL     1      -0.877  11.401  21.009  0.00  0.00    +0.000 A 
BRANCH  16  23
ATOM     22  C   UNL     1      -2.799  13.028  23.482  0.00  0.00    +0.000 C 
ATOM     23  O   UNL     1      -1.503  12.862  22.911  0.00  0.00    +0.000 OA
ENDBRANCH  16  23
ENDBRANCH   1  19
TORSDOF 2
ENDMDL
MODEL 4
REMARK VINA RESULT:      -6.7      3.287      8.169
REMARK  Name = 
REMARK  4 active torsions:
REMARK  status: ('A' for Active; 'I' for Inactive)
REMARK    1  A    between atoms: C_1  and  O_2
REMARK    2  A    between atoms: O_2  and  C_3
REMARK    3  A    between atoms: C_6  and  N_7
REMARK    4  A    between atoms: C_18  and  C_19
REMARK                            x       y       z     vdW  Elec       q    Type
REMARK                         _______ _______ _______ _____ _____    ______ ____
ROOT
ATOM      1  N   UNL     1       0.276   7.725  20.891  0.00  0.00    +0.000 N 
ATOM      2  C   UNL     1       1.628   7.309  20.694  0.00  0.00    +0.000 C 
ATOM      3  O   UNL     1       2.559   8.028  21.076  0.00  0.00    +0.000 OA
ATOM      4  N   UNL     1       1.853   6.268  19.654  0.00  0.00    +0.000 N 
ATOM      5  C   UNL     1       2.829   6.863  18.685  0.00  0.00    +0.000 C 
ATOM      6  C   UNL     1       3.480   5.950  17.662  0.00  0.00    +0.000 C 
ATOM      7  C   UNL     1       4.217   4.905  18.467  0.00  0.00    +0.000 C 
ATOM      8  C   UNL     1       3.075   4.121  19.034  0.00  0.00    +0.000 A 
ATOM      9  C   UNL     1       2.880   2.857  18.427  0.00  0.00    +0.000 A 
ATOM     10  C   UNL     1       1.651   2.238  18.507  0.00  0.00    +0.000 A 
ATOM     11  C   UNL     1       0.705   2.782  19.385  0.00  0.00    +0.000 A 
ATOM     12  C   UNL     1       1.104   3.811  20.297  0.00  0.00    +0.000 A 
ATOM     13  C   UNL     1       1.429   3.039  21.626  0.00  0.00    +0.000 C 
ATOM     14  C   UNL     1       2.089   4.751  19.866  0.00  0.00    +0.000 A 
ATOM     15  H   UNL     1      -0.379   6.966  20.969  0.00  0.00    +0.000 HD
ENDROOT
BRANCH   1  19
ATOM     16  C   UNL     1      -1.332  11.578  22.416  0.00  0.00    +0.000 A 
ATOM     17  C   UNL     1      -1.023  11.390  21.077  0.00  0.00    +0.000 A 
ATOM     18  C   UNL     1      -0.468  10.163  20.551  0.00  0.00    +0.000 A 
ATOM     19  C   UNL     1      -0.187   9.043  21.368  0.00  0.00    +0.000 A 
ATOM     20  C   UNL     1      -0.486   9.258  22.733  0.00  0.00    +0.000 A 
ATOM     21  C   UNL     1      -1.039  10.503  23.265  0.00  0.00    +0.000 A 
BRANCH  16  23
ATOM     22  C   UNL     1      -3.115  12.907  23.413  0.00  0.00    +0.000 C 
ATOM     23  O   UNL     1      -1.843  12.797  22.779  0.00  0.00    +0.000 OA
ENDBRANCH  16  23
ENDBRANCH   1  19
TORSDOF 2
ENDMDL
MODEL 5
REMARK VINA RESULT:      -6.5      9.061     11.135
REMARK  Name = 
REMARK  4 active torsions:
REMARK  status: ('A' for Active; 'I' for Inactive)
REMARK    1  A    between atoms: C_1  and  O_2
REMARK    2  A    between atoms: O_2  and  C_3
REMARK    3  A    between atoms: C_6  and  N_7
REMARK    4  A    between atoms: C_18  and  C_19
REMARK                            x       y       z     vdW  Elec       q    Type
REMARK                         _______ _______ _______ _____ _____    ______ ____
ROOT
ATOM      1  N   UNL     1       8.220  12.946  22.191  0.00  0.00    +0.000 N 
ATOM      2  C   UNL     1       8.844  12.100  21.225  0.00  0.00    +0.000 C 
ATOM      3  O   UNL     1       8.816  10.871  21.368  0.00  0.00    +0.000 OA
ATOM      4  N   UNL     1       9.870  12.737  20.355  0.00  0.00    +0.000 N 
ATOM      5  C   UNL     1      11.126  11.943  20.554  0.00  0.00    +0.000 C 
ATOM      6  C   UNL     1      12.281  12.163  19.594  0.00  0.00    +0.000 C 
ATOM      7  C   UNL     1      11.737  11.821  18.226  0.00  0.00    +0.000 C 
ATOM      8  C   UNL     1      10.800  12.964  17.994  0.00  0.00    +0.000 A 
ATOM      9  C   UNL     1      11.271  13.922  17.064  0.00  0.00    +0.000 A 
ATOM     10  C   UNL     1      10.769  15.205  17.084  0.00  0.00    +0.000 A 
ATOM     11  C   UNL     1       9.642  15.450  17.878  0.00  0.00    +0.000 A 
ATOM     12  C   UNL     1       8.945  14.346  18.466  0.00  0.00    +0.000 A 
ATOM     13  C   UNL     1       7.778  14.050  17.457  0.00  0.00    +0.000 C 
ATOM     14  C   UNL     1       9.706  13.214  18.889  0.00  0.00    +0.000 A 
ATOM     15  H   UNL     1       7.907  13.828  21.822  0.00  0.00    +0.000 HD
ENDROOT
BRANCH   1  19
ATOM     16  C   UNL     1       6.732  11.593  26.154  0.00  0.00    +0.000 A 
ATOM     17  C   UNL     1       6.041  11.328  24.982  0.00  0.00    +0.000 A 
ATOM     18  C   UNL     1       6.477  11.780  23.679  0.00  0.00    +0.000 A 
ATOM     19  C   UNL     1       7.654  12.542  23.493  0.00  0.00    +0.000 A 
ATOM     20  C   UNL     1       8.335  12.824  24.699  0.00  0.00    +0.000 A 
ATOM     21  C   UNL     1       7.887  12.374  26.017  0.00  0.00    +0.000 A 
BRANCH  16  23
ATOM     22  C   UNL     1       4.889  10.552  27.361  0.00  0.00    +0.000 C 
ATOM     23  O   UNL     1       6.199  11.112  27.322  0.00  0.00    +0.000 OA
ENDBRANCH  16  23
ENDBRANCH   1  19
TORSDOF 2
ENDMDL
MODEL 6
REMARK VINA RESULT:      -6.5      2.905      8.459
REMARK  Name = 
REMARK  4 active torsions:
REMARK  status: ('A' for Active; 'I' for Inactive)
REMARK    1  A    between atoms: C_1  and  O_2
REMARK    2  A    between atoms: O_2  and  C_3
REMARK    3  A    between atoms: C_6  and  N_7
REMARK    4  A    between atoms: C_18  and  C_19
REMARK                            x       y       z     vdW  Elec       q    Type
REMARK                         _______ _______ _______ _____ _____    ______ ____
ROOT
ATOM      1  N   UNL     1       2.861   7.751  19.609  0.00  0.00    +0.000 N 
ATOM      2  C   UNL     1       2.954   7.166  18.309  0.00  0.00    +0.000 C 
ATOM      3  O   UNL     1       2.059   7.361  17.478  0.00  0.00    +0.000 OA
ATOM      4  N   UNL     1       3.875   6.005  18.173  0.00  0.00    +0.000 N 
ATOM      5  C   UNL     1       3.038   4.879  17.647  0.00  0.00    +0.000 C 
ATOM      6  C   UNL     1       3.739   3.635  17.131  0.00  0.00    +0.000 C 
ATOM      7  C   UNL     1       4.623   4.111  16.002  0.00  0.00    +0.000 C 
ATOM      8  C   UNL     1       5.666   4.876  16.755  0.00  0.00    +0.000 A 
ATOM      9  C   UNL     1       6.916   4.218  16.848  0.00  0.00    +0.000 A 
ATOM     10  C   UNL     1       7.798   4.555  17.851  0.00  0.00    +0.000 A 
ATOM     11  C   UNL     1       7.516   5.699  18.608  0.00  0.00    +0.000 A 
ATOM     12  C   UNL     1       6.461   6.573  18.192  0.00  0.00    +0.000 A 
ATOM     13  C   UNL     1       7.192   7.687  17.361  0.00  0.00    +0.000 C 
ATOM     14  C   UNL     1       5.307   5.996  17.580  0.00  0.00    +0.000 A 
ATOM     15  H   UNL     1       3.750   7.921  20.047  0.00  0.00    +0.000 HD
ENDROOT
BRANCH   1  19
ATOM     16  C   UNL     1      -0.489  10.104  21.339  0.00  0.00    +0.000 A 
ATOM     17  C   UNL     1       0.031   8.989  21.978  0.00  0.00    +0.000 A 
ATOM     18  C   UNL     1       1.097   8.180  21.431  0.00  0.00    +0.000 A 
ATOM     19  C   UNL     1       1.701   8.461  20.183  0.00  0.00    +0.000 A 
ATOM     20  C   UNL     1       1.144   9.586  19.533  0.00  0.00    +0.000 A 
ATOM     21  C   UNL     1       0.060  10.398  20.084  0.00  0.00    +0.000 A 
BRANCH  16  23
ATOM     22  C   UNL     1      -1.247  11.680  23.037  0.00  0.00    +0.000 C 
ATOM     23  O   UNL     1      -1.507  10.773  21.968  0.00  0.00    +0.000 OA
ENDBRANCH  16  23
ENDBRANCH   1  19
TORSDOF 2
ENDMDL
MODEL 7
REMARK VINA RESULT:      -6.4      9.196     11.284
REMARK  Name = 
REMARK  4 active torsions:
REMARK  status: ('A' for Active; 'I' for Inactive)
REMARK    1  A    between atoms: C_1  and  O_2
REMARK    2  A    between atoms: O_2  and  C_3
REMARK    3  A    between atoms: C_6  and  N_7
REMARK    4  A    between atoms: C_18  and  C_19
REMARK                            x       y       z     vdW  Elec       q    Type
REMARK                         _______ _______ _______ _____ _____    ______ ____
ROOT
ATOM      1  N   UNL     1       8.448  12.970  22.246  0.00  0.00    +0.000 N 
ATOM      2  C   UNL     1       8.989  12.150  21.209  0.00  0.00    +0.000 C 
ATOM      3  O   UNL     1       8.924  10.918  21.296  0.00  0.00    +0.000 OA
ATOM      4  N   UNL     1       9.988  12.794  20.313  0.00  0.00    +0.000 N 
ATOM      5  C   UNL     1      11.224  11.950  20.406  0.00  0.00    +0.000 C 
ATOM      6  C   UNL     1      12.332  12.177  19.394  0.00  0.00    +0.000 C 
ATOM      7  C   UNL     1      11.704  11.919  18.045  0.00  0.00    +0.000 C 
ATOM      8  C   UNL     1      10.798  13.103  17.917  0.00  0.00    +0.000 A 
ATOM      9  C   UNL     1      11.252  14.088  17.008  0.00  0.00    +0.000 A 
ATOM     10  C   UNL     1      10.798  15.385  17.115  0.00  0.00    +0.000 A 
ATOM     11  C   UNL     1       9.725  15.628  17.981  0.00  0.00    +0.000 A 
ATOM     12  C   UNL     1       9.021  14.521  18.555  0.00  0.00    +0.000 A 
ATOM     13  C   UNL     1       7.792  14.312  17.600  0.00  0.00    +0.000 C 
ATOM     14  C   UNL     1       9.762  13.346  18.882  0.00  0.00    +0.000 A 
ATOM     15  H   UNL     1       8.147  13.878  21.936  0.00  0.00    +0.000 HD
ENDROOT
BRANCH   1  19
ATOM     16  C   UNL     1       6.698  11.754  26.147  0.00  0.00    +0.000 A 
ATOM     17  C   UNL     1       7.892  12.454  26.064  0.00  0.00    +0.000 A 
ATOM     18  C   UNL     1       8.508  12.837  24.814  0.00  0.00    +0.000 A 
ATOM     19  C   UNL     1       7.939  12.523  23.557  0.00  0.00    +0.000 A 
ATOM     20  C   UNL     1       6.735  11.789  23.657  0.00  0.00    +0.000 A 
ATOM     21  C   UNL     1       6.118  11.395  24.923  0.00  0.00    +0.000 A 
BRANCH  16  23
ATOM     22  C   UNL     1       5.036  12.029  27.907  0.00  0.00    +0.000 C 
ATOM     23  O   UNL     1       6.233  11.447  27.399  0.00  0.00    +0.000 OA
ENDBRANCH  16  23
ENDBRANCH   1  19
TORSDOF 2
ENDMDL
MODEL 8
REMARK VINA RESULT:      -6.4      3.107      8.342
REMARK  Name = 
REMARK  4 active torsions:
REMARK  status: ('A' for Active; 'I' for Inactive)
REMARK    1  A    between atoms: C_1  and  O_2
REMARK    2  A    between atoms: O_2  and  C_3
REMARK    3  A    between atoms: C_6  and  N_7
REMARK    4  A    between atoms: C_18  and  C_19
REMARK                            x       y       z     vdW  Elec       q    Type
REMARK                         _______ _______ _______ _____ _____    ______ ____
ROOT
ATOM      1  N   UNL     1       2.486   7.879  19.903  0.00  0.00    +0.000 N 
ATOM      2  C   UNL     1       2.358   6.593  19.297  0.00  0.00    +0.000 C 
ATOM      3  O   UNL     1       1.259   6.027  19.270  0.00  0.00    +0.000 OA
ATOM      4  N   UNL     1       3.615   5.812  19.137  0.00  0.00    +0.000 N 
ATOM      5  C   UNL     1       3.385   4.515  19.853  0.00  0.00    +0.000 C 
ATOM      6  C   UNL     1       4.373   3.383  19.636  0.00  0.00    +0.000 C 
ATOM      7  C   UNL     1       4.337   3.098  18.153  0.00  0.00    +0.000 C 
ATOM      8  C   UNL     1       5.004   4.321  17.608  0.00  0.00    +0.000 A 
ATOM      9  C   UNL     1       6.328   4.109  17.153  0.00  0.00    +0.000 A 
ATOM     10  C   UNL     1       7.202   5.170  17.059  0.00  0.00    +0.000 A 
ATOM     11  C   UNL     1       6.676   6.460  17.199  0.00  0.00    +0.000 A 
ATOM     12  C   UNL     1       5.255   6.639  17.230  0.00  0.00    +0.000 A 
ATOM     13  C   UNL     1       4.881   6.989  15.745  0.00  0.00    +0.000 C 
ATOM     14  C   UNL     1       4.461   5.628  17.851  0.00  0.00    +0.000 A 
ATOM     15  H   UNL     1       3.232   8.438  19.527  0.00  0.00    +0.000 HD
ENDROOT
BRANCH   1  19
ATOM     16  C   UNL     1      -0.489  10.259  22.193  0.00  0.00    +0.000 A 
ATOM     17  C   UNL     1       0.343   9.337  22.809  0.00  0.00    +0.000 A 
ATOM     18  C   UNL     1       1.299   8.522  22.093  0.00  0.00    +0.000 A 
ATOM     19  C   UNL     1       1.462   8.596  20.690  0.00  0.00    +0.000 A 
ATOM     20  C   UNL     1       0.591   9.524  20.074  0.00  0.00    +0.000 A 
ATOM     21  C   UNL     1      -0.381  10.340  20.799  0.00  0.00    +0.000 A 
BRANCH  16  23
ATOM     22  C   UNL     1      -1.455  12.377  22.915  0.00  0.00    +0.000 C 
ATOM     23  O   UNL     1      -1.356  10.957  22.993  0.00  0.00    +0.000 OA
ENDBRANCH  16  23
ENDBRANCH   1  19
TORSDOF 2
ENDMDL
MODEL 9
REMARK VINA RESULT:      -6.2      2.271      3.179
REMARK  Name = 
REMARK  4 active torsions:
REMARK  status: ('A' for Active; 'I' for Inactive)
REMARK    1  A    between atoms: C_1  and  O_2
REMARK    2  A    between atoms: O_2  and  C_3
REMARK    3  A    between atoms: C_6  and  N_7
REMARK    4  A    between atoms: C_18  and  C_19
REMARK                            x       y       z     vdW  Elec       q    Type
REMARK                         _______ _______ _______ _____ _____    ______ ____
ROOT
ATOM      1  N   UNL     1       1.018   8.247  19.887  0.00  0.00    +0.000 N 
ATOM      2  C   UNL     1       1.059   9.320  20.828  0.00  0.00    +0.000 C 
ATOM      3  O   UNL     1       2.014   9.426  21.606  0.00  0.00    +0.000 OA
ATOM      4  N   UNL     1      -0.240   9.981  21.130  0.00  0.00    +0.000 N 
ATOM      5  C   UNL     1      -0.423   9.865  22.613  0.00  0.00    +0.000 C 
ATOM      6  C   UNL     1      -1.514  10.687  23.275  0.00  0.00    +0.000 C 
ATOM      7  C   UNL     1      -1.172  12.127  22.970  0.00  0.00    +0.000 C 
ATOM      8  C   UNL     1      -1.460  12.186  21.502  0.00  0.00    +0.000 A 
ATOM      9  C   UNL     1      -2.652  12.876  21.171  0.00  0.00    +0.000 A 
ATOM     10  C   UNL     1      -3.275  12.634  19.966  0.00  0.00    +0.000 A 
ATOM     11  C   UNL     1      -2.578  11.879  19.015  0.00  0.00    +0.000 A 
ATOM     12  C   UNL     1      -1.198  11.567  19.239  0.00  0.00    +0.000 A 
ATOM     13  C   UNL     1      -0.421  12.686  18.458  0.00  0.00    +0.000 C 
ATOM     14  C   UNL     1      -0.769  11.330  20.580  0.00  0.00    +0.000 A 
ATOM     15  H   UNL     1       0.496   8.453  19.052  0.00  0.00    +0.000 HD
ENDROOT
BRANCH   1  19
ATOM     16  C   UNL     1       3.691   4.723  19.443  0.00  0.00    +0.000 A 
ATOM     17  C   UNL     1       2.710   4.782  20.422  0.00  0.00    +0.000 A 
ATOM     18  C   UNL     1       1.845   5.924  20.617  0.00  0.00    +0.000 A 
ATOM     19  C   UNL     1       1.932   7.090  19.820  0.00  0.00    +0.000 A 
ATOM     20  C   UNL     1       2.951   7.024  18.843  0.00  0.00    +0.000 A 
ATOM     21  C   UNL     1       3.831   5.871  18.653  0.00  0.00    +0.000 A 
BRANCH  16  23
ATOM     22  C   UNL     1       4.098   2.419  20.124  0.00  0.00    +0.000 C 
ATOM     23  O   UNL     1       4.447   3.582  19.377  0.00  0.00    +0.000 OA
ENDBRANCH  16  23
ENDBRANCH   1  19
TORSDOF 2
ENDMDL
