MODEL 1
REMARK VINA RESULT:      -6.1      0.000      0.000
REMARK  Name = 
REMARK  10 active torsions:
REMARK  status: ('A' for Active; 'I' for Inactive)
REMARK    1  A    between atoms: C_1  and  O_2
REMARK    2  A    between atoms: O_2  and  C_3
REMARK    3  A    between atoms: C_3  and  C_4
REMARK    4  A    between atoms: C_4  and  O_5
REMARK    5  A    between atoms: O_5  and  C_6
REMARK    6  A    between atoms: C_6  and  C_7
REMARK    7  A    between atoms: C_7  and  O_8
REMARK    8  A    between atoms: C_7  and  C_9
REMARK    9  A    between atoms: C_9  and  N_10
REMARK   10  A    between atoms: N_13  and  C_14
REMARK                            x       y       z     vdW  Elec       q    Type
REMARK                         _______ _______ _______ _____ _____    ______ ____
ROOT
ATOM      1  N   UNL     1       6.129   5.880  17.284  0.00  0.00    +0.000 NA
ATOM      2  C   UNL     1       5.099   6.640  18.036  0.00  0.00    +0.000 C 
ATOM      3  C   UNL     1       3.663   6.067  18.010  0.00  0.00    +0.000 C 
ATOM      4  N   UNL     1       3.636   4.611  18.240  0.00  0.00    +0.000 N 
ATOM      5  C   UNL     1       4.668   3.809  17.576  0.00  0.00    +0.000 C 
ATOM      6  C   UNL     1       6.057   4.470  17.752  0.00  0.00    +0.000 C 
ENDROOT
BRANCH   4   7
ATOM      7  C   UNL     1       2.901   4.027  19.254  0.00  0.00    +0.000 A 
ATOM      8  C   UNL     1       3.509   3.120  20.146  0.00  0.00    +0.000 A 
ATOM      9  C   UNL     1       2.801   2.539  21.200  0.00  0.00    +0.000 A 
ATOM     10  C   UNL     1       1.460   2.844  21.390  0.00  0.00    +0.000 A 
ATOM     11  C   UNL     1       0.836   3.740  20.521  0.00  0.00    +0.000 A 
ATOM     12  C   UNL     1       1.548   4.314  19.471  0.00  0.00    +0.000 A 
ENDBRANCH   4   7
BRANCH   1  13
ATOM     13  C   UNL     1       5.948   5.903  15.824  0.00  0.00    +0.000 C 
BRANCH  13  14
ATOM     14  C   UNL     1       6.689   4.848  14.985  0.00  0.00    +0.000 C 
BRANCH  14  15
ATOM     15  O   UNL     1       7.776   5.524  14.321  0.00  0.00    +0.000 OA
ATOM     16  H   UNL     1       8.188   6.126  14.965  0.00  0.00    +0.000 HD
ENDBRANCH  14  15
BRANCH  14  17
ATOM     17  C   UNL     1       5.755   4.192  13.965  0.00  0.00    +0.000 C 
BRANCH  17  18
ATOM     18  O   UNL     1       6.446   3.136  13.294  0.00  0.00    +0.000 OA
BRANCH  18  19
ATOM     19  C   UNL     1       6.232   3.200  11.886  0.00  0.00    +0.000 C 
BRANCH  19  20
ATOM     20  C   UNL     1       5.552   1.919  11.428  0.00  0.00    +0.000 C 
BRANCH  20  22
ATOM     21  C   UNL     1       6.082  -0.358  11.233  0.00  0.00    +0.000 C 
ATOM     22  O   UNL     1       6.542   0.971  11.038  0.00  0.00    +0.000 OA
ENDBRANCH  20  22
ENDBRANCH  19  20
ENDBRANCH  18  19
ENDBRANCH  17  18
ENDBRANCH  14  17
ENDBRANCH  13  14
ENDBRANCH   1  13
TORSDOF 9
ENDMDL
MODEL 2
REMARK VINA RESULT:      -6.0      3.207      7.271
REMARK  Name = 
REMARK  10 active torsions:
REMARK  status: ('A' for Active; 'I' for Inactive)
REMARK    1  A    between atoms: C_1  and  O_2
REMARK    2  A    between atoms: O_2  and  C_3
REMARK    3  A    between atoms: C_3  and  C_4
REMARK    4  A    between atoms: C_4  and  O_5
REMARK    5  A    between atoms: O_5  and  C_6
REMARK    6  A    between atoms: C_6  and  C_7
REMARK    7  A    between atoms: C_7  and  O_8
REMARK    8  A    between atoms: C_7  and  C_9
REMARK    9  A    between atoms: C_9  and  N_10
REMARK   10  A    between atoms: N_13  and  C_14
REMARK                            x       y       z     vdW  Elec       q    Type
REMARK                         _______ _______ _______ _____ _____    ______ ____
ROOT
ATOM      1  N   UNL     1       5.521   6.264  18.178  0.00  0.00    +0.000 NA
ATOM      2  C   UNL     1       6.846   5.656  17.897  0.00  0.00    +0.000 C 
ATOM      3  C   UNL     1       6.862   4.450  16.929  0.00  0.00    +0.000 C 
ATOM      4  N   UNL     1       6.030   4.680  15.734  0.00  0.00    +0.000 N 
ATOM      5  C   UNL     1       4.734   5.335  15.936  0.00  0.00    +0.000 C 
ATOM      6  C   UNL     1       4.893   6.564  16.863  0.00  0.00    +0.000 C 
ENDROOT
BRANCH   4   7
ATOM      7  C   UNL     1       6.526   4.587  14.448  0.00  0.00    +0.000 A 
ATOM      8  C   UNL     1       5.983   3.657  13.537  0.00  0.00    +0.000 A 
ATOM      9  C   UNL     1       6.440   3.563  12.222  0.00  0.00    +0.000 A 
ATOM     10  C   UNL     1       7.460   4.394  11.777  0.00  0.00    +0.000 A 
ATOM     11  C   UNL     1       8.014   5.323  12.660  0.00  0.00    +0.000 A 
ATOM     12  C   UNL     1       7.554   5.410  13.971  0.00  0.00    +0.000 A 
ENDBRANCH   4   7
BRANCH   1  13
ATOM     13  C   UNL     1       4.614   5.399  18.948  0.00  0.00    +0.000 C 
BRANCH  13  14
ATOM     14  C   UNL     1       3.241   5.964  19.349  0.00  0.00    +0.000 C 
BRANCH  14  15
ATOM     15  O   UNL     1       3.027   5.609  20.731  0.00  0.00    +0.000 OA
ATOM     16  H   UNL     1       2.137   5.225  20.804  0.00  0.00    +0.000 HD
ENDBRANCH  14  15
BRANCH  14  17
ATOM     17  C   UNL     1       2.125   5.399  18.466  0.00  0.00    +0.000 C 
BRANCH  17  18
ATOM     18  O   UNL     1       2.439   4.053  18.101  0.00  0.00    +0.000 OA
BRANCH  18  19
ATOM     19  C   UNL     1       1.369   3.172  18.436  0.00  0.00    +0.000 C 
BRANCH  19  20
ATOM     20  C   UNL     1       1.904   2.053  19.317  0.00  0.00    +0.000 C 
BRANCH  20  22
ATOM     21  C   UNL     1       1.390   2.698  21.513  0.00  0.00    +0.000 C 
ATOM     22  O   UNL     1       2.409   2.607  20.529  0.00  0.00    +0.000 OA
ENDBRANCH  20  22
ENDBRANCH  19  20
ENDBRANCH  18  19
ENDBRANCH  17  18
ENDBRANCH  14  17
ENDBRANCH  13  14
ENDBRANCH   1  13
TORSDOF 9
ENDMDL
MODEL 3
REMARK VINA RESULT:      -6.0      3.329      7.095
REMARK  Name = 
REMARK  10 active torsions:
REMARK  status: ('A' for Active; 'I' for Inactive)
REMARK    1  A    between atoms: C_1  and  O_2
REMARK    2  A    between atoms: O_2  and  C_3
REMARK    3  A    between atoms: C_3  and  C_4
REMARK    4  A    between atoms: C_4  and  O_5
REMARK    5  A    between atoms: O_5  and  C_6
REMARK    6  A    between atoms: C_6  and  C_7
REMARK    7  A    between atoms: C_7  and  O_8
REMARK    8  A    between atoms: C_7  and  C_9
REMARK    9  A    between atoms: C_9  and  N_10
REMARK   10  A    between atoms: N_13  and  C_14
REMARK                            x       y       z     vdW  Elec       q    Type
REMARK                         _______ _______ _______ _____ _____    ______ ____
ROOT
ATOM      1  N   UNL     1       5.432   6.233  18.318  0.00  0.00    +0.000 NA
ATOM      2  C   UNL     1       6.808   5.788  17.986  0.00  0.00    +0.000 C 
ATOM      3  C   UNL     1       6.931   4.543  17.077  0.00  0.00    +0.000 C 
ATOM      4  N   UNL     1       6.012   4.597  15.925  0.00  0.00    +0.000 N 
ATOM      5  C   UNL     1       4.653   5.089  16.175  0.00  0.00    +0.000 C 
ATOM      6  C   UNL     1       4.698   6.377  17.032  0.00  0.00    +0.000 C 
ENDROOT
BRANCH   4   7
ATOM      7  C   UNL     1       6.445   4.499  14.617  0.00  0.00    +0.000 A 
ATOM      8  C   UNL     1       5.818   3.609  13.721  0.00  0.00    +0.000 A 
ATOM      9  C   UNL     1       6.211   3.512  12.385  0.00  0.00    +0.000 A 
ATOM     10  C   UNL     1       7.248   4.301  11.905  0.00  0.00    +0.000 A 
ATOM     11  C   UNL     1       7.884   5.190  12.772  0.00  0.00    +0.000 A 
ATOM     12  C   UNL     1       7.488   5.281  14.103  0.00  0.00    +0.000 A 
ENDBRANCH   4   7
BRANCH   1  13
ATOM     13  C   UNL     1       4.691   5.301  19.183  0.00  0.00    +0.000 C 
BRANCH  13  14
ATOM     14  C   UNL     1       3.203   5.585  19.448  0.00  0.00    +0.000 C 
BRANCH  14  15
ATOM     15  O   UNL     1       3.108   6.954  19.894  0.00  0.00    +0.000 OA
ATOM     16  H   UNL     1       3.958   7.386  19.706  0.00  0.00    +0.000 HD
ENDBRANCH  14  15
BRANCH  14  17
ATOM     17  C   UNL     1       2.632   4.632  20.501  0.00  0.00    +0.000 C 
BRANCH  17  18
ATOM     18  O   UNL     1       1.283   4.300  20.165  0.00  0.00    +0.000 OA
BRANCH  18  19
ATOM     19  C   UNL     1       1.060   2.896  20.283  0.00  0.00    +0.000 C 
BRANCH  19  20
ATOM     20  C   UNL     1       0.672   2.339  18.922  0.00  0.00    +0.000 C 
BRANCH  20  22
ATOM     21  C   UNL     1       2.581   2.319  17.559  0.00  0.00    +0.000 C 
ATOM     22  O   UNL     1       1.399   3.025  17.905  0.00  0.00    +0.000 OA
ENDBRANCH  20  22
ENDBRANCH  19  20
ENDBRANCH  18  19
ENDBRANCH  17  18
ENDBRANCH  14  17
ENDBRANCH  13  14
ENDBRANCH   1  13
TORSDOF 9
ENDMDL
MODEL 4
REMARK VINA RESULT:      -6.0      1.520      1.842
REMARK  Name = 
REMARK  10 active torsions:
REMARK  status: ('A' for Active; 'I' for Inactive)
REMARK    1  A    between atoms: C_1  and  O_2
REMARK    2  A    between atoms: O_2  and  C_3
REMARK    3  A    between atoms: C_3  and  C_4
REMARK    4  A    between atoms: C_4  and  O_5
REMARK    5  A    between atoms: O_5  and  C_6
REMARK    6  A    between atoms: C_6  and  C_7
REMARK    7  A    between atoms: C_7  and  O_8
REMARK    8  A    between atoms: C_7  and  C_9
REMARK    9  A    between atoms: C_9  and  N_10
REMARK   10  A    between atoms: N_13  and  C_14
REMARK                            x       y       z     vdW  Elec       q    Type
REMARK                         _______ _______ _______ _____ _____    ______ ____
ROOT
ATOM      1  N   UNL     1       5.933   6.053  16.935  0.00  0.00    +0.000 NA
ATOM      2  C   UNL     1       4.728   6.747  17.456  0.00  0.00    +0.000 C 
ATOM      3  C   UNL     1       3.419   5.926  17.491  0.00  0.00    +0.000 C 
ATOM      4  N   UNL     1       3.622   4.569  18.031  0.00  0.00    +0.000 N 
ATOM      5  C   UNL     1       4.829   3.852  17.604  0.00  0.00    +0.000 C 
ATOM      6  C   UNL     1       6.064   4.780  17.694  0.00  0.00    +0.000 C 
ENDROOT
BRANCH   4   7
ATOM      7  C   UNL     1       2.917   4.081  19.113  0.00  0.00    +0.000 A 
ATOM      8  C   UNL     1       2.848   4.817  20.314  0.00  0.00    +0.000 A 
ATOM      9  C   UNL     1       2.116   4.366  21.413  0.00  0.00    +0.000 A 
ATOM     10  C   UNL     1       1.433   3.158  21.347  0.00  0.00    +0.000 A 
ATOM     11  C   UNL     1       1.485   2.411  20.169  0.00  0.00    +0.000 A 
ATOM     12  C   UNL     1       2.218   2.867  19.077  0.00  0.00    +0.000 A 
ENDBRANCH   4   7
BRANCH   1  13
ATOM     13  C   UNL     1       5.873   5.741  15.498  0.00  0.00    +0.000 C 
BRANCH  13  14
ATOM     14  C   UNL     1       6.941   4.800  14.915  0.00  0.00    +0.000 C 
BRANCH  14  15
ATOM     15  O   UNL     1       7.722   5.575  13.983  0.00  0.00    +0.000 OA
ATOM     16  H   UNL     1       8.285   4.960  13.484  0.00  0.00    +0.000 HD
ENDBRANCH  14  15
BRANCH  14  17
ATOM     17  C   UNL     1       6.303   3.596  14.217  0.00  0.00    +0.000 C 
BRANCH  17  18
ATOM     18  O   UNL     1       5.254   4.043  13.355  0.00  0.00    +0.000 OA
BRANCH  18  19
ATOM     19  C   UNL     1       5.336   3.409  12.080  0.00  0.00    +0.000 C 
BRANCH  19  20
ATOM     20  C   UNL     1       3.945   3.339  11.470  0.00  0.00    +0.000 C 
BRANCH  20  22
ATOM     21  C   UNL     1       2.890   4.331   9.625  0.00  0.00    +0.000 C 
ATOM     22  O   UNL     1       4.027   3.609  10.073  0.00  0.00    +0.000 OA
ENDBRANCH  20  22
ENDBRANCH  19  20
ENDBRANCH  18  19
ENDBRANCH  17  18
ENDBRANCH  14  17
ENDBRANCH  13  14
ENDBRANCH   1  13
TORSDOF 9
ENDMDL
MODEL 5
REMARK VINA RESULT:      -6.0      3.496      5.645
REMARK  Name = 
REMARK  10 active torsions:
REMARK  status: ('A' for Active; 'I' for Inactive)
REMARK    1  A    between atoms: C_1  and  O_2
REMARK    2  A    between atoms: O_2  and  C_3
REMARK    3  A    between atoms: C_3  and  C_4
REMARK    4  A    between atoms: C_4  and  O_5
REMARK    5  A    between atoms: O_5  and  C_6
REMARK    6  A    between atoms: C_6  and  C_7
REMARK    7  A    between atoms: C_7  and  O_8
REMARK    8  A    between atoms: C_7  and  C_9
REMARK    9  A    between atoms: C_9  and  N_10
REMARK   10  A    between atoms: N_13  and  C_14
REMARK                            x       y       z     vdW  Elec       q    Type
REMARK                         _______ _______ _______ _____ _____    ______ ____
ROOT
ATOM      1  N   UNL     1       2.161   4.336  19.288  0.00  0.00    +0.000 NA
ATOM      2  C   UNL     1       1.316   4.900  20.370  0.00  0.00    +0.000 C 
ATOM      3  C   UNL     1       1.742   6.276  20.932  0.00  0.00    +0.000 C 
ATOM      4  N   UNL     1       2.088   7.234  19.866  0.00  0.00    +0.000 N 
ATOM      5  C   UNL     1       2.869   6.723  18.735  0.00  0.00    +0.000 C 
ATOM      6  C   UNL     1       2.278   5.382  18.237  0.00  0.00    +0.000 C 
ENDROOT
BRANCH   4   7
ATOM      7  C   UNL     1       1.476   8.466  19.739  0.00  0.00    +0.000 A 
ATOM      8  C   UNL     1       0.819   9.055  20.839  0.00  0.00    +0.000 A 
ATOM      9  C   UNL     1       0.221  10.314  20.750  0.00  0.00    +0.000 A 
ATOM     10  C   UNL     1       0.257  11.020  19.555  0.00  0.00    +0.000 A 
ATOM     11  C   UNL     1       0.902  10.458  18.452  0.00  0.00    +0.000 A 
ATOM     12  C   UNL     1       1.496   9.202  18.547  0.00  0.00    +0.000 A 
ENDBRANCH   4   7
BRANCH   1  13
ATOM     13  C   UNL     1       3.513   3.948  19.720  0.00  0.00    +0.000 C 
BRANCH  13  14
ATOM     14  C   UNL     1       4.381   3.135  18.745  0.00  0.00    +0.000 C 
BRANCH  14  15
ATOM     15  O   UNL     1       5.120   2.180  19.533  0.00  0.00    +0.000 OA
ATOM     16  H   UNL     1       4.865   2.303  20.463  0.00  0.00    +0.000 HD
ENDBRANCH  14  15
BRANCH  14  17
ATOM     17  C   UNL     1       5.332   4.040  17.958  0.00  0.00    +0.000 C 
BRANCH  17  18
ATOM     18  O   UNL     1       6.514   4.275  18.726  0.00  0.00    +0.000 OA
BRANCH  18  19
ATOM     19  C   UNL     1       7.548   4.829  17.915  0.00  0.00    +0.000 C 
BRANCH  19  20
ATOM     20  C   UNL     1       6.938   5.360  16.627  0.00  0.00    +0.000 C 
BRANCH  20  22
ATOM     21  C   UNL     1       6.793   4.782  14.358  0.00  0.00    +0.000 C 
ATOM     22  O   UNL     1       7.621   4.794  15.511  0.00  0.00    +0.000 OA
ENDBRANCH  20  22
ENDBRANCH  19  20
ENDBRANCH  18  19
ENDBRANCH  17  18
ENDBRANCH  14  17
ENDBRANCH  13  14
ENDBRANCH   1  13
TORSDOF 9
ENDMDL
MODEL 6
REMARK VINA RESULT:      -6.0      4.165      6.896
REMARK  Name = 
REMARK  10 active torsions:
REMARK  status: ('A' for Active; 'I' for Inactive)
REMARK    1  A    between atoms: C_1  and  O_2
REMARK    2  A    between atoms: O_2  and  C_3
REMARK    3  A    between atoms: C_3  and  C_4
REMARK    4  A    between atoms: C_4  and  O_5
REMARK    5  A    between atoms: O_5  and  C_6
REMARK    6  A    between atoms: C_6  and  C_7
REMARK    7  A    between atoms: C_7  and  O_8
REMARK    8  A    between atoms: C_7  and  C_9
REMARK    9  A    between atoms: C_9  and  N_10
REMARK   10  A    between atoms: N_13  and  C_14
REMARK                            x       y       z     vdW  Elec       q    Type
REMARK                         _______ _______ _______ _____ _____    ______ ____
ROOT
ATOM      1  N   UNL     1       6.463   5.911  17.280  0.00  0.00    +0.000 NA
ATOM      2  C   UNL     1       6.410   5.107  18.526  0.00  0.00    +0.000 C 
ATOM      3  C   UNL     1       5.160   5.295  19.416  0.00  0.00    +0.000 C 
ATOM      4  N   UNL     1       3.910   5.293  18.635  0.00  0.00    +0.000 N 
ATOM      5  C   UNL     1       3.916   6.019  17.361  0.00  0.00    +0.000 C 
ATOM      6  C   UNL     1       5.189   5.672  16.552  0.00  0.00    +0.000 C 
ENDROOT
BRANCH   4   7
ATOM      7  C   UNL     1       2.869   4.422  18.890  0.00  0.00    +0.000 A 
ATOM      8  C   UNL     1       2.036   4.611  20.012  0.00  0.00    +0.000 A 
ATOM      9  C   UNL     1       0.956   3.767  20.276  0.00  0.00    +0.000 A 
ATOM     10  C   UNL     1       0.679   2.702  19.428  0.00  0.00    +0.000 A 
ATOM     11  C   UNL     1       1.489   2.495  18.311  0.00  0.00    +0.000 A 
ATOM     12  C   UNL     1       2.565   3.340  18.054  0.00  0.00    +0.000 A 
ENDBRANCH   4   7
BRANCH   1  13
ATOM     13  C   UNL     1       6.614   7.358  17.504  0.00  0.00    +0.000 C 
BRANCH  13  14
ATOM     14  C   UNL     1       8.030   7.914  17.729  0.00  0.00    +0.000 C 
BRANCH  14  15
ATOM     15  O   UNL     1       8.521   7.333  18.954  0.00  0.00    +0.000 OA
ATOM     16  H   UNL     1       7.751   7.075  19.489  0.00  0.00    +0.000 HD
ENDBRANCH  14  15
BRANCH  14  17
ATOM     17  C   UNL     1       8.022   9.442  17.818  0.00  0.00    +0.000 C 
BRANCH  17  18
ATOM     18  O   UNL     1       8.917   9.866  18.848  0.00  0.00    +0.000 OA
BRANCH  18  19
ATOM     19  C   UNL     1       9.771  10.910  18.384  0.00  0.00    +0.000 C 
BRANCH  19  20
ATOM     20  C   UNL     1       8.958  12.188  18.238  0.00  0.00    +0.000 C 
BRANCH  20  22
ATOM     21  C   UNL     1       9.764  14.369  17.923  0.00  0.00    +0.000 C 
ATOM     22  O   UNL     1       9.676  13.273  18.822  0.00  0.00    +0.000 OA
ENDBRANCH  20  22
ENDBRANCH  19  20
ENDBRANCH  18  19
ENDBRANCH  17  18
ENDBRANCH  14  17
ENDBRANCH  13  14
ENDBRANCH   1  13
TORSDOF 9
ENDMDL
MODEL 7
REMARK VINA RESULT:      -6.0      3.263      6.803
REMARK  Name = 
REMARK  10 active torsions:
REMARK  status: ('A' for Active; 'I' for Inactive)
REMARK    1  A    between atoms: C_1  and  O_2
REMARK    2  A    between atoms: O_2  and  C_3
REMARK    3  A    between atoms: C_3  and  C_4
REMARK    4  A    between atoms: C_4  and  O_5
REMARK    5  A    between atoms: O_5  and  C_6
REMARK    6  A    between atoms: C_6  and  C_7
REMARK    7  A    between atoms: C_7  and  O_8
REMARK    8  A    between atoms: C_7  and  C_9
REMARK    9  A    between atoms: C_9  and  N_10
REMARK   10  A    between atoms: N_13  and  C_14
REMARK                            x       y       z     vdW  Elec       q    Type
REMARK                         _______ _______ _______ _____ _____    ______ ____
ROOT
ATOM      1  N   UNL     1       5.635   6.334  18.176  0.00  0.00    +0.000 NA
ATOM      2  C   UNL     1       7.016   6.287  17.635  0.00  0.00    +0.000 C 
ATOM      3  C   UNL     1       7.402   5.020  16.836  0.00  0.00    +0.000 C 
ATOM      4  N   UNL     1       6.356   4.622  15.876  0.00  0.00    +0.000 N 
ATOM      5  C   UNL     1       4.964   4.707  16.329  0.00  0.00    +0.000 C 
ATOM      6  C   UNL     1       4.713   6.058  17.042  0.00  0.00    +0.000 C 
ENDROOT
BRANCH   4   7
ATOM      7  C   UNL     1       6.599   4.472  14.524  0.00  0.00    +0.000 A 
ATOM      8  C   UNL     1       5.848   3.554  13.761  0.00  0.00    +0.000 A 
ATOM      9  C   UNL     1       6.047   3.404  12.387  0.00  0.00    +0.000 A 
ATOM     10  C   UNL     1       7.009   4.164  11.735  0.00  0.00    +0.000 A 
ATOM     11  C   UNL     1       7.764   5.080  12.469  0.00  0.00    +0.000 A 
ATOM     12  C   UNL     1       7.561   5.224  13.839  0.00  0.00    +0.000 A 
ENDBRANCH   4   7
BRANCH   1  13
ATOM     13  C   UNL     1       5.374   5.357  19.245  0.00  0.00    +0.000 C 
BRANCH  13  14
ATOM     14  C   UNL     1       3.921   4.908  19.478  0.00  0.00    +0.000 C 
BRANCH  14  15
ATOM     15  O   UNL     1       3.312   5.886  20.345  0.00  0.00    +0.000 OA
ATOM     16  H   UNL     1       3.485   5.618  21.263  0.00  0.00    +0.000 HD
ENDBRANCH  14  15
BRANCH  14  17
ATOM     17  C   UNL     1       3.862   3.515  20.108  0.00  0.00    +0.000 C 
BRANCH  17  18
ATOM     18  O   UNL     1       4.226   2.534  19.135  0.00  0.00    +0.000 OA
BRANCH  18  19
ATOM     19  C   UNL     1       3.118   1.691  18.822  0.00  0.00    +0.000 C 
BRANCH  19  20
ATOM     20  C   UNL     1       2.430   2.219  17.572  0.00  0.00    +0.000 C 
BRANCH  20  22
ATOM     21  C   UNL     1       1.309   4.279  17.555  0.00  0.00    +0.000 C 
ATOM     22  O   UNL     1       1.243   2.915  17.945  0.00  0.00    +0.000 OA
ENDBRANCH  20  22
ENDBRANCH  19  20
ENDBRANCH  18  19
ENDBRANCH  17  18
ENDBRANCH  14  17
ENDBRANCH  13  14
ENDBRANCH   1  13
TORSDOF 9
ENDMDL
MODEL 8
REMARK VINA RESULT:      -5.9      4.082      6.719
REMARK  Name = 
REMARK  10 active torsions:
REMARK  status: ('A' for Active; 'I' for Inactive)
REMARK    1  A    between atoms: C_1  and  O_2
REMARK    2  A    between atoms: O_2  and  C_3
REMARK    3  A    between atoms: C_3  and  C_4
REMARK    4  A    between atoms: C_4  and  O_5
REMARK    5  A    between atoms: O_5  and  C_6
REMARK    6  A    between atoms: C_6  and  C_7
REMARK    7  A    between atoms: C_7  and  O_8
REMARK    8  A    between atoms: C_7  and  C_9
REMARK    9  A    between atoms: C_9  and  N_10
REMARK   10  A    between atoms: N_13  and  C_14
REMARK                            x       y       z     vdW  Elec       q    Type
REMARK                         _______ _______ _______ _____ _____    ______ ____
ROOT
ATOM      1  N   UNL     1       6.638   5.670  17.529  0.00  0.00    +0.000 NA
ATOM      2  C   UNL     1       6.385   5.167  18.903  0.00  0.00    +0.000 C 
ATOM      3  C   UNL     1       4.992   5.466  19.502  0.00  0.00    +0.000 C 
ATOM      4  N   UNL     1       3.901   5.200  18.546  0.00  0.00    +0.000 N 
ATOM      5  C   UNL     1       4.115   5.616  17.155  0.00  0.00    +0.000 C 
ATOM      6  C   UNL     1       5.521   5.182  16.676  0.00  0.00    +0.000 C 
ENDROOT
BRANCH   4   7
ATOM      7  C   UNL     1       2.857   4.339  18.821  0.00  0.00    +0.000 A 
ATOM      8  C   UNL     1       2.025   4.558  19.938  0.00  0.00    +0.000 A 
ATOM      9  C   UNL     1       0.942   3.725  20.223  0.00  0.00    +0.000 A 
ATOM     10  C   UNL     1       0.661   2.642  19.400  0.00  0.00    +0.000 A 
ATOM     11  C   UNL     1       1.469   2.404  18.288  0.00  0.00    +0.000 A 
ATOM     12  C   UNL     1       2.548   3.239  18.010  0.00  0.00    +0.000 A 
ENDBRANCH   4   7
BRANCH   1  13
ATOM     13  C   UNL     1       6.704   7.136  17.428  0.00  0.00    +0.000 C 
BRANCH  13  14
ATOM     14  C   UNL     1       8.044   7.825  17.738  0.00  0.00    +0.000 C 
BRANCH  14  15
ATOM     15  O   UNL     1       8.511   7.292  18.994  0.00  0.00    +0.000 OA
ATOM     16  H   UNL     1       9.061   7.972  19.419  0.00  0.00    +0.000 HD
ENDBRANCH  14  15
BRANCH  14  17
ATOM     17  C   UNL     1       7.884   9.345  17.820  0.00  0.00    +0.000 C 
BRANCH  17  18
ATOM     18  O   UNL     1       9.112   9.932  18.254  0.00  0.00    +0.000 OA
BRANCH  18  19
ATOM     19  C   UNL     1       9.082  11.350  18.097  0.00  0.00    +0.000 C 
BRANCH  19  20
ATOM     20  C   UNL     1      10.509  11.871  18.018  0.00  0.00    +0.000 C 
BRANCH  20  22
ATOM     21  C   UNL     1      11.095  12.009  20.285  0.00  0.00    +0.000 C 
ATOM     22  O   UNL     1      11.281  11.297  19.070  0.00  0.00    +0.000 OA
ENDBRANCH  20  22
ENDBRANCH  19  20
ENDBRANCH  18  19
ENDBRANCH  17  18
ENDBRANCH  14  17
ENDBRANCH  13  14
ENDBRANCH   1  13
TORSDOF 9
ENDMDL
MODEL 9
REMARK VINA RESULT:      -5.9      4.360      7.171
REMARK  Name = 
REMARK  10 active torsions:
REMARK  status: ('A' for Active; 'I' for Inactive)
REMARK    1  A    between atoms: C_1  and  O_2
REMARK    2  A    between atoms: O_2  and  C_3
REMARK    3  A    between atoms: C_3  and  C_4
REMARK    4  A    between atoms: C_4  and  O_5
REMARK    5  A    between atoms: O_5  and  C_6
REMARK    6  A    between atoms: C_6  and  C_7
REMARK    7  A    between atoms: C_7  and  O_8
REMARK    8  A    between atoms: C_7  and  C_9
REMARK    9  A    between atoms: C_9  and  N_10
REMARK   10  A    between atoms: N_13  and  C_14
REMARK                            x       y       z     vdW  Elec       q    Type
REMARK                         _______ _______ _______ _____ _____    ______ ____
ROOT
ATOM      1  N   UNL     1       6.468   6.718  16.711  0.00  0.00    +0.000 NA
ATOM      2  C   UNL     1       6.801   5.415  17.341  0.00  0.00    +0.000 C 
ATOM      3  C   UNL     1       5.943   4.997  18.557  0.00  0.00    +0.000 C 
ATOM      4  N   UNL     1       4.503   5.214  18.330  0.00  0.00    +0.000 N 
ATOM      5  C   UNL     1       4.112   6.456  17.654  0.00  0.00    +0.000 C 
ATOM      6  C   UNL     1       5.010   6.699  16.417  0.00  0.00    +0.000 C 
ENDROOT
BRANCH   4   7
ATOM      7  C   UNL     1       3.566   4.206  18.444  0.00  0.00    +0.000 A 
ATOM      8  C   UNL     1       2.199   4.471  18.222  0.00  0.00    +0.000 A 
ATOM      9  C   UNL     1       1.233   3.466  18.296  0.00  0.00    +0.000 A 
ATOM     10  C   UNL     1       1.606   2.163  18.602  0.00  0.00    +0.000 A 
ATOM     11  C   UNL     1       2.952   1.876  18.826  0.00  0.00    +0.000 A 
ATOM     12  C   UNL     1       3.910   2.883  18.751  0.00  0.00    +0.000 A 
ENDBRANCH   4   7
BRANCH   1  13
ATOM     13  C   UNL     1       6.765   7.886  17.555  0.00  0.00    +0.000 C 
BRANCH  13  14
ATOM     14  C   UNL     1       8.237   8.198  17.871  0.00  0.00    +0.000 C 
BRANCH  14  15
ATOM     15  O   UNL     1       8.584   7.446  19.051  0.00  0.00    +0.000 OA
ATOM     16  H   UNL     1       9.183   7.993  19.586  0.00  0.00    +0.000 HD
ENDBRANCH  14  15
BRANCH  14  17
ATOM     17  C   UNL     1       8.453   9.696  18.100  0.00  0.00    +0.000 C 
BRANCH  17  18
ATOM     18  O   UNL     1       9.225   9.892  19.286  0.00  0.00    +0.000 OA
BRANCH  18  19
ATOM     19  C   UNL     1      10.084  11.023  19.155  0.00  0.00    +0.000 C 
BRANCH  19  20
ATOM     20  C   UNL     1       9.292  12.286  19.460  0.00  0.00    +0.000 C 
BRANCH  20  22
ATOM     21  C   UNL     1      10.641  13.920  18.453  0.00  0.00    +0.000 C 
ATOM     22  O   UNL     1       9.420  13.198  18.373  0.00  0.00    +0.000 OA
ENDBRANCH  20  22
ENDBRANCH  19  20
ENDBRANCH  18  19
ENDBRANCH  17  18
ENDBRANCH  14  17
ENDBRANCH  13  14
ENDBRANCH   1  13
TORSDOF 9
ENDMDL
