MODEL 1
REMARK VINA RESULT:      -7.2      0.000      0.000
REMARK  Name = 
REMARK  11 active torsions:
REMARK  status: ('A' for Active; 'I' for Inactive)
REMARK    1  A    between atoms: C_1  and  C_2
REMARK    2  A    between atoms: N_4  and  C_5
REMARK    3  A    between atoms: C_6  and  N_7
REMARK    4  A    between atoms: N_7  and  C_8
REMARK    5  A    between atoms: N_7  and  C_9
REMARK    6  A    between atoms: C_10  and  C_11
REMARK    7  A    between atoms: C_11  and  N_12
REMARK    8  A    between atoms: N_12  and  C_13
REMARK    9  A    between atoms: C_13  and  C_14
REMARK   10  A    between atoms: C_19  and  C_20
REMARK   11  A    between atoms: C_20  and  N_21
REMARK                            x       y       z     vdW  Elec       q    Type
REMARK                         _______ _______ _______ _____ _____    ______ ____
ROOT
ATOM      1  N   UNL     1       1.687   7.201  21.105  0.00  0.00    +0.000 NA
ATOM      2  H   UNL     1       1.565   6.398  21.719  0.00  0.00    +0.000 HD
ENDROOT
BRANCH   1   3
ATOM      3  C   UNL     1       0.349   7.755  20.860  0.00  0.00    +0.000 C 
BRANCH   3  10
ATOM      4  C   UNL     1       0.042   9.548  23.660  0.00  0.00    +0.000 C 
ATOM      5  C   UNL     1       0.194  10.004  22.251  0.00  0.00    +0.000 A 
ATOM      6  N   UNL     1       0.222  11.316  22.033  0.00  0.00    +0.000 NA
ATOM      7  N   UNL     1       0.321  11.436  20.702  0.00  0.00    +0.000 N 
ATOM      8  C   UNL     1       0.212  12.778  20.178  0.00  0.00    +0.000 C 
ATOM      9  C   UNL     1       0.409  10.227  20.025  0.00  0.00    +0.000 A 
ATOM     10  C   UNL     1       0.306   9.252  21.034  0.00  0.00    +0.000 A 
BRANCH   9  11
ATOM     11  N   UNL     1       0.512  10.144  18.650  0.00  0.00    +0.000 N 
ATOM     12  C   UNL     1       1.763   9.810  17.971  0.00  0.00    +0.000 C 
ATOM     13  C   UNL     1      -0.650  10.038  17.775  0.00  0.00    +0.000 C 
ENDBRANCH   9  11
ENDBRANCH   3  10
ENDBRANCH   1   3
BRANCH   1  14
ATOM     14  C   UNL     1       2.322   6.696  19.888  0.00  0.00    +0.000 C 
BRANCH  14  15
ATOM     15  C   UNL     1       2.127   5.214  19.640  0.00  0.00    +0.000 A 
ATOM     16  C   UNL     1       1.291   4.514  20.535  0.00  0.00    +0.000 A 
ATOM     17  C   UNL     1       1.082   3.141  20.398  0.00  0.00    +0.000 A 
ATOM     18  C   UNL     1       1.712   2.445  19.375  0.00  0.00    +0.000 A 
ATOM     19  C   UNL     1       2.525   3.124  18.474  0.00  0.00    +0.000 A 
ATOM     20  C   UNL     1       2.745   4.513  18.583  0.00  0.00    +0.000 A 
BRANCH  20  21
ATOM     21  C   UNL     1       3.644   5.172  17.556  0.00  0.00    +0.000 C 
BRANCH  21  22
ATOM     22  N   UNL     1       5.057   4.982  17.841  0.00  0.00    +0.000 N 
ATOM     23  C   UNL     1       6.035   4.614  16.956  0.00  0.00    +0.000 A 
ATOM     24  C   UNL     1       7.195   4.596  17.695  0.00  0.00    +0.000 A 
ATOM     25  N   UNL     1       6.957   4.995  18.985  0.00  0.00    +0.000 NA
ATOM     26  C   UNL     1       5.666   5.243  19.036  0.00  0.00    +0.000 A 
ENDBRANCH  21  22
ENDBRANCH  20  21
ENDBRANCH  14  15
ENDBRANCH   1  14
TORSDOF 7
ENDMDL
MODEL 2
REMARK VINA RESULT:      -7.0      1.839      7.882
REMARK  Name = 
REMARK  11 active torsions:
REMARK  status: ('A' for Active; 'I' for Inactive)
REMARK    1  A    between atoms: C_1  and  C_2
REMARK    2  A    between atoms: N_4  and  C_5
REMARK    3  A    between atoms: C_6  and  N_7
REMARK    4  A    between atoms: N_7  and  C_8
REMARK    5  A    between atoms: N_7  and  C_9
REMARK    6  A    between atoms: C_10  and  C_11
REMARK    7  A    between atoms: C_11  and  N_12
REMARK    8  A    between atoms: N_12  and  C_13
REMARK    9  A    between atoms: C_13  and  C_14
REMARK   10  A    between atoms: C_19  and  C_20
REMARK   11  A    between atoms: C_20  and  N_21
REMARK                            x       y       z     vdW  Elec       q    Type
REMARK                         _______ _______ _______ _____ _____    ______ ____
ROOT
ATOM      1  N   UNL     1       2.336   7.389  19.511  0.00  0.00    +0.000 NA
ATOM      2  H   UNL     1       3.058   7.644  20.183  0.00  0.00    +0.000 HD
ENDROOT
BRANCH   1   3
ATOM      3  C   UNL     1       3.020   6.774  18.366  0.00  0.00    +0.000 C 
BRANCH   3  10
ATOM      4  C   UNL     1       6.300   6.172  18.197  0.00  0.00    +0.000 C 
ATOM      5  C   UNL     1       5.198   5.301  18.690  0.00  0.00    +0.000 A 
ATOM      6  N   UNL     1       5.529   4.096  19.146  0.00  0.00    +0.000 NA
ATOM      7  N   UNL     1       4.361   3.526  19.476  0.00  0.00    +0.000 N 
ATOM      8  C   UNL     1       4.422   2.135  19.858  0.00  0.00    +0.000 C 
ATOM      9  C   UNL     1       3.255   4.346  19.295  0.00  0.00    +0.000 A 
ATOM     10  C   UNL     1       3.782   5.532  18.751  0.00  0.00    +0.000 A 
BRANCH   9  11
ATOM     11  N   UNL     1       1.966   3.937  19.575  0.00  0.00    +0.000 N 
ATOM     12  C   UNL     1       1.161   3.161  18.633  0.00  0.00    +0.000 C 
ATOM     13  C   UNL     1       1.414   3.931  20.925  0.00  0.00    +0.000 C 
ENDBRANCH   9  11
ENDBRANCH   3  10
ENDBRANCH   1   3
BRANCH   1  14
ATOM     14  C   UNL     1       1.645   8.630  19.158  0.00  0.00    +0.000 C 
BRANCH  14  15
ATOM     15  C   UNL     1       0.926   9.303  20.310  0.00  0.00    +0.000 A 
ATOM     16  C   UNL     1       1.013   8.685  21.575  0.00  0.00    +0.000 A 
ATOM     17  C   UNL     1       0.354   9.220  22.683  0.00  0.00    +0.000 A 
ATOM     18  C   UNL     1      -0.409  10.372  22.543  0.00  0.00    +0.000 A 
ATOM     19  C   UNL     1      -0.489  11.002  21.306  0.00  0.00    +0.000 A 
ATOM     20  C   UNL     1       0.174  10.488  20.172  0.00  0.00    +0.000 A 
BRANCH  20  21
ATOM     21  C   UNL     1       0.033  11.241  18.865  0.00  0.00    +0.000 C 
BRANCH  21  22
ATOM     22  N   UNL     1      -1.227  10.970  18.192  0.00  0.00    +0.000 N 
ATOM     23  C   UNL     1      -1.526   9.892  17.402  0.00  0.00    +0.000 A 
ATOM     24  C   UNL     1      -2.837  10.077  17.028  0.00  0.00    +0.000 A 
ATOM     25  N   UNL     1      -3.354  11.205  17.611  0.00  0.00    +0.000 NA
ATOM     26  C   UNL     1      -2.370  11.707  18.325  0.00  0.00    +0.000 A 
ENDBRANCH  21  22
ENDBRANCH  20  21
ENDBRANCH  14  15
ENDBRANCH   1  14
TORSDOF 7
ENDMDL
MODEL 3
REMARK VINA RESULT:      -6.9      0.988      2.444
REMARK  Name = 
REMARK  11 active torsions:
REMARK  status: ('A' for Active; 'I' for Inactive)
REMARK    1  A    between atoms: C_1  and  C_2
REMARK    2  A    between atoms: N_4  and  C_5
REMARK    3  A    between atoms: C_6  and  N_7
REMARK    4  A    between atoms: N_7  and  C_8
REMARK    5  A    between atoms: N_7  and  C_9
REMARK    6  A    between atoms: C_10  and  C_11
REMARK    7  A    between atoms: C_11  and  N_12
REMARK    8  A    between atoms: N_12  and  C_13
REMARK    9  A    between atoms: C_13  and  C_14
REMARK   10  A    between atoms: C_19  and  C_20
REMARK   11  A    between atoms: C_20  and  N_21
REMARK                            x       y       z     vdW  Elec       q    Type
REMARK                         _______ _______ _______ _____ _____    ______ ____
ROOT
ATOM      1  N   UNL     1       1.311   7.274  20.963  0.00  0.00    +0.000 NA
ATOM      2  H   UNL     1       0.612   7.253  20.222  0.00  0.00    +0.000 HD
ENDROOT
BRANCH   1   3
ATOM      3  C   UNL     1       1.671   8.683  21.166  0.00  0.00    +0.000 C 
BRANCH   3  10
ATOM      4  C   UNL     1       1.466   8.982  17.847  0.00  0.00    +0.000 C 
ATOM      5  C   UNL     1       0.733   9.716  18.914  0.00  0.00    +0.000 A 
ATOM      6  N   UNL     1      -0.149  10.634  18.529  0.00  0.00    +0.000 NA
ATOM      7  N   UNL     1      -0.617  11.155  19.672  0.00  0.00    +0.000 N 
ATOM      8  C   UNL     1      -1.488  12.299  19.536  0.00  0.00    +0.000 C 
ATOM      9  C   UNL     1      -0.099  10.569  20.820  0.00  0.00    +0.000 A 
ATOM     10  C   UNL     1       0.822   9.618  20.344  0.00  0.00    +0.000 A 
BRANCH   9  11
ATOM     11  N   UNL     1      -0.455  10.972  22.092  0.00  0.00    +0.000 N 
ATOM     12  C   UNL     1      -0.755  12.363  22.426  0.00  0.00    +0.000 C 
ATOM     13  C   UNL     1      -0.896  10.038  23.122  0.00  0.00    +0.000 C 
ENDBRANCH   9  11
ENDBRANCH   3  10
ENDBRANCH   1   3
BRANCH   1  14
ATOM     14  C   UNL     1       2.434   6.464  20.492  0.00  0.00    +0.000 C 
BRANCH  14  15
ATOM     15  C   UNL     1       2.039   5.198  19.759  0.00  0.00    +0.000 A 
ATOM     16  C   UNL     1       1.122   4.339  20.401  0.00  0.00    +0.000 A 
ATOM     17  C   UNL     1       0.729   3.138  19.810  0.00  0.00    +0.000 A 
ATOM     18  C   UNL     1       1.252   2.770  18.577  0.00  0.00    +0.000 A 
ATOM     19  C   UNL     1       2.143   3.615  17.924  0.00  0.00    +0.000 A 
ATOM     20  C   UNL     1       2.550   4.840  18.494  0.00  0.00    +0.000 A 
BRANCH  20  21
ATOM     21  C   UNL     1       3.522   5.699  17.711  0.00  0.00    +0.000 C 
BRANCH  21  22
ATOM     22  N   UNL     1       4.902   5.264  17.858  0.00  0.00    +0.000 N 
ATOM     23  C   UNL     1       5.786   4.969  16.855  0.00  0.00    +0.000 A 
ATOM     24  C   UNL     1       6.955   4.636  17.498  0.00  0.00    +0.000 A 
ATOM     25  N   UNL     1       6.821   4.773  18.855  0.00  0.00    +0.000 NA
ATOM     26  C   UNL     1       5.583   5.176  19.040  0.00  0.00    +0.000 A 
ENDBRANCH  21  22
ENDBRANCH  20  21
ENDBRANCH  14  15
ENDBRANCH   1  14
TORSDOF 7
ENDMDL
MODEL 4
REMARK VINA RESULT:      -6.8      1.668      2.480
REMARK  Name = 
REMARK  11 active torsions:
REMARK  status: ('A' for Active; 'I' for Inactive)
REMARK    1  A    between atoms: C_1  and  C_2
REMARK    2  A    between atoms: N_4  and  C_5
REMARK    3  A    between atoms: C_6  and  N_7
REMARK    4  A    between atoms: N_7  and  C_8
REMARK    5  A    between atoms: N_7  and  C_9
REMARK    6  A    between atoms: C_10  and  C_11
REMARK    7  A    between atoms: C_11  and  N_12
REMARK    8  A    between atoms: N_12  and  C_13
REMARK    9  A    between atoms: C_13  and  C_14
REMARK   10  A    between atoms: C_19  and  C_20
REMARK   11  A    between atoms: C_20  and  N_21
REMARK                            x       y       z     vdW  Elec       q    Type
REMARK                         _______ _______ _______ _____ _____    ______ ____
ROOT
ATOM      1  N   UNL     1       2.038   7.293  17.764  0.00  0.00    +0.000 NA
ATOM      2  H   UNL     1       1.723   7.385  16.800  0.00  0.00    +0.000 HD
ENDROOT
BRANCH   1   3
ATOM      3  C   UNL     1       2.258   8.653  18.271  0.00  0.00    +0.000 C 
BRANCH   3  10
ATOM      4  C   UNL     1       1.803   6.632  20.890  0.00  0.00    +0.000 C 
ATOM      5  C   UNL     1       1.354   8.036  20.684  0.00  0.00    +0.000 A 
ATOM      6  N   UNL     1       0.670   8.610  21.670  0.00  0.00    +0.000 NA
ATOM      7  N   UNL     1       0.362   9.829  21.205  0.00  0.00    +0.000 N 
ATOM      8  C   UNL     1      -0.526  10.615  22.029  0.00  0.00    +0.000 C 
ATOM      9  C   UNL     1       0.870  10.101  19.941  0.00  0.00    +0.000 A 
ATOM     10  C   UNL     1       1.519   8.913  19.560  0.00  0.00    +0.000 A 
BRANCH   9  11
ATOM     11  N   UNL     1       0.656  11.301  19.292  0.00  0.00    +0.000 N 
ATOM     12  C   UNL     1       1.727  12.262  19.033  0.00  0.00    +0.000 C 
ATOM     13  C   UNL     1      -0.545  11.574  18.510  0.00  0.00    +0.000 C 
ENDBRANCH   9  11
ENDBRANCH   3  10
ENDBRANCH   1   3
BRANCH   1  14
ATOM     14  C   UNL     1       3.265   6.498  17.724  0.00  0.00    +0.000 C 
BRANCH  14  15
ATOM     15  C   UNL     1       3.060   5.007  17.900  0.00  0.00    +0.000 A 
ATOM     16  C   UNL     1       1.734   4.527  17.847  0.00  0.00    +0.000 A 
ATOM     17  C   UNL     1       1.453   3.173  18.031  0.00  0.00    +0.000 A 
ATOM     18  C   UNL     1       2.487   2.280  18.283  0.00  0.00    +0.000 A 
ATOM     19  C   UNL     1       3.800   2.736  18.321  0.00  0.00    +0.000 A 
ATOM     20  C   UNL     1       4.114   4.098  18.128  0.00  0.00    +0.000 A 
BRANCH  20  21
ATOM     21  C   UNL     1       5.572   4.506  18.184  0.00  0.00    +0.000 C 
BRANCH  21  22
ATOM     22  N   UNL     1       6.168   4.644  16.865  0.00  0.00    +0.000 N 
ATOM     23  C   UNL     1       5.925   3.868  15.763  0.00  0.00    +0.000 A 
ATOM     24  C   UNL     1       6.703   4.410  14.767  0.00  0.00    +0.000 A 
ATOM     25  N   UNL     1       7.367   5.522  15.218  0.00  0.00    +0.000 NA
ATOM     26  C   UNL     1       7.007   5.651  16.476  0.00  0.00    +0.000 A 
ENDBRANCH  21  22
ENDBRANCH  20  21
ENDBRANCH  14  15
ENDBRANCH   1  14
TORSDOF 7
ENDMDL
MODEL 5
REMARK VINA RESULT:      -6.8      2.034      3.664
REMARK  Name = 
REMARK  11 active torsions:
REMARK  status: ('A' for Active; 'I' for Inactive)
REMARK    1  A    between atoms: C_1  and  C_2
REMARK    2  A    between atoms: N_4  and  C_5
REMARK    3  A    between atoms: C_6  and  N_7
REMARK    4  A    between atoms: N_7  and  C_8
REMARK    5  A    between atoms: N_7  and  C_9
REMARK    6  A    between atoms: C_10  and  C_11
REMARK    7  A    between atoms: C_11  and  N_12
REMARK    8  A    between atoms: N_12  and  C_13
REMARK    9  A    between atoms: C_13  and  C_14
REMARK   10  A    between atoms: C_19  and  C_20
REMARK   11  A    between atoms: C_20  and  N_21
REMARK                            x       y       z     vdW  Elec       q    Type
REMARK                         _______ _______ _______ _____ _____    ______ ____
ROOT
ATOM      1  N   UNL     1       2.363   8.698  18.179  0.00  0.00    +0.000 NA
ATOM      2  H   UNL     1       2.976   9.163  18.846  0.00  0.00    +0.000 HD
ENDROOT
BRANCH   1   3
ATOM      3  C   UNL     1       1.064   9.378  18.249  0.00  0.00    +0.000 C 
BRANCH   3  10
ATOM      4  C   UNL     1       0.808   8.427  21.440  0.00  0.00    +0.000 C 
ATOM      5  C   UNL     1       0.838   9.795  20.856  0.00  0.00    +0.000 A 
ATOM      6  N   UNL     1       0.758  10.821  21.699  0.00  0.00    +0.000 NA
ATOM      7  N   UNL     1       0.763  11.907  20.913  0.00  0.00    +0.000 N 
ATOM      8  C   UNL     1       0.526  13.168  21.575  0.00  0.00    +0.000 C 
ATOM      9  C   UNL     1       0.894  11.630  19.559  0.00  0.00    +0.000 A 
ATOM     10  C   UNL     1       0.925  10.225  19.489  0.00  0.00    +0.000 A 
BRANCH   9  11
ATOM     11  N   UNL     1       0.916  12.615  18.591  0.00  0.00    +0.000 N 
ATOM     12  C   UNL     1      -0.292  13.302  18.135  0.00  0.00    +0.000 C 
ATOM     13  C   UNL     1       2.139  13.300  18.188  0.00  0.00    +0.000 C 
ENDBRANCH   9  11
ENDBRANCH   3  10
ENDBRANCH   1   3
BRANCH   1  14
ATOM     14  C   UNL     1       2.292   7.296  18.592  0.00  0.00    +0.000 C 
BRANCH  14  15
ATOM     15  C   UNL     1       3.274   6.379  17.892  0.00  0.00    +0.000 A 
ATOM     16  C   UNL     1       4.490   6.947  17.456  0.00  0.00    +0.000 A 
ATOM     17  C   UNL     1       5.437   6.181  16.775  0.00  0.00    +0.000 A 
ATOM     18  C   UNL     1       5.181   4.842  16.508  0.00  0.00    +0.000 A 
ATOM     19  C   UNL     1       3.994   4.265  16.947  0.00  0.00    +0.000 A 
ATOM     20  C   UNL     1       3.025   5.013  17.646  0.00  0.00    +0.000 A 
BRANCH  20  21
ATOM     21  C   UNL     1       1.762   4.301  18.088  0.00  0.00    +0.000 C 
BRANCH  21  22
ATOM     22  N   UNL     1       1.887   3.700  19.406  0.00  0.00    +0.000 N 
ATOM     23  C   UNL     1       3.033   3.554  20.141  0.00  0.00    +0.000 A 
ATOM     24  C   UNL     1       2.630   2.958  21.314  0.00  0.00    +0.000 A 
ATOM     25  N   UNL     1       1.269   2.789  21.331  0.00  0.00    +0.000 NA
ATOM     26  C   UNL     1       0.848   3.266  20.181  0.00  0.00    +0.000 A 
ENDBRANCH  21  22
ENDBRANCH  20  21
ENDBRANCH  14  15
ENDBRANCH   1  14
TORSDOF 7
ENDMDL
MODEL 6
REMARK VINA RESULT:      -6.8      1.162      1.483
REMARK  Name = 
REMARK  11 active torsions:
REMARK  status: ('A' for Active; 'I' for Inactive)
REMARK    1  A    between atoms: C_1  and  C_2
REMARK    2  A    between atoms: N_4  and  C_5
REMARK    3  A    between atoms: C_6  and  N_7
REMARK    4  A    between atoms: N_7  and  C_8
REMARK    5  A    between atoms: N_7  and  C_9
REMARK    6  A    between atoms: C_10  and  C_11
REMARK    7  A    between atoms: C_11  and  N_12
REMARK    8  A    between atoms: N_12  and  C_13
REMARK    9  A    between atoms: C_13  and  C_14
REMARK   10  A    between atoms: C_19  and  C_20
REMARK   11  A    between atoms: C_20  and  N_21
REMARK                            x       y       z     vdW  Elec       q    Type
REMARK                         _______ _______ _______ _____ _____    ______ ____
ROOT
ATOM      1  N   UNL     1       1.380   7.500  21.028  0.00  0.00    +0.000 NA
ATOM      2  H   UNL     1       0.446   7.545  20.625  0.00  0.00    +0.000 HD
ENDROOT
BRANCH   1   3
ATOM      3  C   UNL     1       1.778   8.880  21.333  0.00  0.00    +0.000 C 
BRANCH   3  10
ATOM      4  C   UNL     1      -0.761   9.968  23.210  0.00  0.00    +0.000 C 
ATOM      5  C   UNL     1      -0.372  10.348  21.824  0.00  0.00    +0.000 A 
ATOM      6  N   UNL     1      -1.120  11.260  21.208  0.00  0.00    +0.000 NA
ATOM      7  N   UNL     1      -0.578  11.374  19.987  0.00  0.00    +0.000 N 
ATOM      8  C   UNL     1      -1.303  12.197  19.048  0.00  0.00    +0.000 C 
ATOM      9  C   UNL     1       0.551  10.590  19.789  0.00  0.00    +0.000 A 
ATOM     10  C   UNL     1       0.700   9.878  20.993  0.00  0.00    +0.000 A 
BRANCH   9  11
ATOM     11  N   UNL     1       1.247  10.567  18.596  0.00  0.00    +0.000 N 
ATOM     12  C   UNL     1       2.241  11.578  18.242  0.00  0.00    +0.000 C 
ATOM     13  C   UNL     1       1.320   9.384  17.747  0.00  0.00    +0.000 C 
ENDBRANCH   9  11
ENDBRANCH   3  10
ENDBRANCH   1   3
BRANCH   1  14
ATOM     14  C   UNL     1       2.234   6.874  20.020  0.00  0.00    +0.000 C 
BRANCH  14  15
ATOM     15  C   UNL     1       2.313   5.363  20.106  0.00  0.00    +0.000 A 
ATOM     16  C   UNL     1       1.147   4.677  20.507  0.00  0.00    +0.000 A 
ATOM     17  C   UNL     1       1.141   3.289  20.644  0.00  0.00    +0.000 A 
ATOM     18  C   UNL     1       2.300   2.565  20.395  0.00  0.00    +0.000 A 
ATOM     19  C   UNL     1       3.452   3.225  19.981  0.00  0.00    +0.000 A 
ATOM     20  C   UNL     1       3.483   4.627  19.825  0.00  0.00    +0.000 A 
BRANCH  20  21
ATOM     21  C   UNL     1       4.781   5.262  19.369  0.00  0.00    +0.000 C 
BRANCH  21  22
ATOM     22  N   UNL     1       5.167   4.851  18.029  0.00  0.00    +0.000 N 
ATOM     23  C   UNL     1       4.350   4.721  16.937  0.00  0.00    +0.000 A 
ATOM     24  C   UNL     1       5.184   4.339  15.912  0.00  0.00    +0.000 A 
ATOM     25  N   UNL     1       6.487   4.286  16.338  0.00  0.00    +0.000 NA
ATOM     26  C   UNL     1       6.448   4.623  17.609  0.00  0.00    +0.000 A 
ENDBRANCH  21  22
ENDBRANCH  20  21
ENDBRANCH  14  15
ENDBRANCH   1  14
TORSDOF 7
ENDMDL
MODEL 7
REMARK VINA RESULT:      -6.8      2.872      7.893
REMARK  Name = 
REMARK  11 active torsions:
REMARK  status: ('A' for Active; 'I' for Inactive)
REMARK    1  A    between atoms: C_1  and  C_2
REMARK    2  A    between atoms: N_4  and  C_5
REMARK    3  A    between atoms: C_6  and  N_7
REMARK    4  A    between atoms: N_7  and  C_8
REMARK    5  A    between atoms: N_7  and  C_9
REMARK    6  A    between atoms: C_10  and  C_11
REMARK    7  A    between atoms: C_11  and  N_12
REMARK    8  A    between atoms: N_12  and  C_13
REMARK    9  A    between atoms: C_13  and  C_14
REMARK   10  A    between atoms: C_19  and  C_20
REMARK   11  A    between atoms: C_20  and  N_21
REMARK                            x       y       z     vdW  Elec       q    Type
REMARK                         _______ _______ _______ _____ _____    ______ ____
ROOT
ATOM      1  N   UNL     1       4.796   3.609  17.073  0.00  0.00    +0.000 NA
ATOM      2  H   UNL     1       5.458   4.348  17.303  0.00  0.00    +0.000 HD
ENDROOT
BRANCH   1   3
ATOM      3  C   UNL     1       5.210   3.057  15.778  0.00  0.00    +0.000 C 
BRANCH   3  10
ATOM      4  C   UNL     1       7.226   5.425  16.994  0.00  0.00    +0.000 C 
ATOM      5  C   UNL     1       7.043   4.961  15.592  0.00  0.00    +0.000 A 
ATOM      6  N   UNL     1       7.779   5.548  14.653  0.00  0.00    +0.000 NA
ATOM      7  N   UNL     1       7.385   4.977  13.506  0.00  0.00    +0.000 N 
ATOM      8  C   UNL     1       7.924   5.551  12.295  0.00  0.00    +0.000 C 
ATOM      9  C   UNL     1       6.432   3.980  13.664  0.00  0.00    +0.000 A 
ATOM     10  C   UNL     1       6.168   3.962  15.046  0.00  0.00    +0.000 A 
BRANCH   9  11
ATOM     11  N   UNL     1       5.899   3.278  12.601  0.00  0.00    +0.000 N 
ATOM     12  C   UNL     1       4.588   3.582  12.030  0.00  0.00    +0.000 C 
ATOM     13  C   UNL     1       6.704   2.421  11.737  0.00  0.00    +0.000 C 
ENDBRANCH   9  11
ENDBRANCH   3  10
ENDBRANCH   1   3
BRANCH   1  14
ATOM     14  C   UNL     1       3.476   4.239  17.025  0.00  0.00    +0.000 C 
BRANCH  14  15
ATOM     15  C   UNL     1       2.587   3.937  18.214  0.00  0.00    +0.000 A 
ATOM     16  C   UNL     1       1.779   2.783  18.140  0.00  0.00    +0.000 A 
ATOM     17  C   UNL     1       0.908   2.449  19.178  0.00  0.00    +0.000 A 
ATOM     18  C   UNL     1       0.821   3.266  20.298  0.00  0.00    +0.000 A 
ATOM     19  C   UNL     1       1.625   4.397  20.393  0.00  0.00    +0.000 A 
ATOM     20  C   UNL     1       2.522   4.752  19.364  0.00  0.00    +0.000 A 
BRANCH  20  21
ATOM     21  C   UNL     1       3.360   6.000  19.553  0.00  0.00    +0.000 C 
BRANCH  21  22
ATOM     22  N   UNL     1       2.655   7.214  19.174  0.00  0.00    +0.000 N 
ATOM     23  C   UNL     1       2.592   7.777  17.927  0.00  0.00    +0.000 A 
ATOM     24  C   UNL     1       1.793   8.887  18.078  0.00  0.00    +0.000 A 
ATOM     25  N   UNL     1       1.328   8.980  19.364  0.00  0.00    +0.000 NA
ATOM     26  C   UNL     1       1.844   7.947  19.993  0.00  0.00    +0.000 A 
ENDBRANCH  21  22
ENDBRANCH  20  21
ENDBRANCH  14  15
ENDBRANCH   1  14
TORSDOF 7
ENDMDL
MODEL 8
REMARK VINA RESULT:      -6.7      1.004      1.365
REMARK  Name = 
REMARK  11 active torsions:
REMARK  status: ('A' for Active; 'I' for Inactive)
REMARK    1  A    between atoms: C_1  and  C_2
REMARK    2  A    between atoms: N_4  and  C_5
REMARK    3  A    between atoms: C_6  and  N_7
REMARK    4  A    between atoms: N_7  and  C_8
REMARK    5  A    between atoms: N_7  and  C_9
REMARK    6  A    between atoms: C_10  and  C_11
REMARK    7  A    between atoms: C_11  and  N_12
REMARK    8  A    between atoms: N_12  and  C_13
REMARK    9  A    between atoms: C_13  and  C_14
REMARK   10  A    between atoms: C_19  and  C_20
REMARK   11  A    between atoms: C_20  and  N_21
REMARK                            x       y       z     vdW  Elec       q    Type
REMARK                         _______ _______ _______ _____ _____    ______ ____
ROOT
ATOM      1  N   UNL     1       2.109   7.616  20.574  0.00  0.00    +0.000 NA
ATOM      2  H   UNL     1       2.502   7.123  21.374  0.00  0.00    +0.000 HD
ENDROOT
BRANCH   1   3
ATOM      3  C   UNL     1       0.699   7.880  20.889  0.00  0.00    +0.000 C 
BRANCH   3  10
ATOM      4  C   UNL     1       0.007   9.601  23.665  0.00  0.00    +0.000 C 
ATOM      5  C   UNL     1       0.136  10.076  22.260  0.00  0.00    +0.000 A 
ATOM      6  N   UNL     1      -0.037  11.375  22.036  0.00  0.00    +0.000 NA
ATOM      7  N   UNL     1       0.090  11.510  20.708  0.00  0.00    +0.000 N 
ATOM      8  C   UNL     1      -0.211  12.817  20.173  0.00  0.00    +0.000 C 
ATOM      9  C   UNL     1       0.395  10.330  20.042  0.00  0.00    +0.000 A 
ATOM     10  C   UNL     1       0.411   9.350  21.052  0.00  0.00    +0.000 A 
BRANCH   9  11
ATOM     11  N   UNL     1       0.561  10.265  18.673  0.00  0.00    +0.000 N 
ATOM     12  C   UNL     1       1.876  10.183  18.039  0.00  0.00    +0.000 C 
ATOM     13  C   UNL     1      -0.525   9.927  17.760  0.00  0.00    +0.000 C 
ENDBRANCH   9  11
ENDBRANCH   3  10
ENDBRANCH   1   3
BRANCH   1  14
ATOM     14  C   UNL     1       2.277   6.731  19.422  0.00  0.00    +0.000 C 
BRANCH  14  15
ATOM     15  C   UNL     1       2.371   5.258  19.764  0.00  0.00    +0.000 A 
ATOM     16  C   UNL     1       1.187   4.614  20.179  0.00  0.00    +0.000 A 
ATOM     17  C   UNL     1       1.191   3.267  20.542  0.00  0.00    +0.000 A 
ATOM     18  C   UNL     1       2.378   2.546  20.509  0.00  0.00    +0.000 A 
ATOM     19  C   UNL     1       3.550   3.163  20.085  0.00  0.00    +0.000 A 
ATOM     20  C   UNL     1       3.572   4.520  19.702  0.00  0.00    +0.000 A 
BRANCH  20  21
ATOM     21  C   UNL     1       4.893   5.109  19.251  0.00  0.00    +0.000 C 
BRANCH  21  22
ATOM     22  N   UNL     1       5.007   5.193  17.804  0.00  0.00    +0.000 N 
ATOM     23  C   UNL     1       5.222   6.321  17.057  0.00  0.00    +0.000 A 
ATOM     24  C   UNL     1       5.278   5.880  15.755  0.00  0.00    +0.000 A 
ATOM     25  N   UNL     1       5.157   4.515  15.698  0.00  0.00    +0.000 NA
ATOM     26  C   UNL     1       5.020   4.128  16.947  0.00  0.00    +0.000 A 
ENDBRANCH  21  22
ENDBRANCH  20  21
ENDBRANCH  14  15
ENDBRANCH   1  14
TORSDOF 7
ENDMDL
MODEL 9
REMARK VINA RESULT:      -6.7      1.960      7.996
REMARK  Name = 
REMARK  11 active torsions:
REMARK  status: ('A' for Active; 'I' for Inactive)
REMARK    1  A    between atoms: C_1  and  C_2
REMARK    2  A    between atoms: N_4  and  C_5
REMARK    3  A    between atoms: C_6  and  N_7
REMARK    4  A    between atoms: N_7  and  C_8
REMARK    5  A    between atoms: N_7  and  C_9
REMARK    6  A    between atoms: C_10  and  C_11
REMARK    7  A    between atoms: C_11  and  N_12
REMARK    8  A    between atoms: N_12  and  C_13
REMARK    9  A    between atoms: C_13  and  C_14
REMARK   10  A    between atoms: C_19  and  C_20
REMARK   11  A    between atoms: C_20  and  N_21
REMARK                            x       y       z     vdW  Elec       q    Type
REMARK                         _______ _______ _______ _____ _____    ______ ____
ROOT
ATOM      1  N   UNL     1       2.003   6.861  19.580  0.00  0.00    +0.000 NA
ATOM      2  H   UNL     1       2.647   6.710  20.354  0.00  0.00    +0.000 HD
ENDROOT
BRANCH   1   3
ATOM      3  C   UNL     1       2.549   6.137  18.426  0.00  0.00    +0.000 C 
BRANCH   3  10
ATOM      4  C   UNL     1       5.865   5.981  18.064  0.00  0.00    +0.000 C 
ATOM      5  C   UNL     1       4.930   5.004  18.686  0.00  0.00    +0.000 A 
ATOM      6  N   UNL     1       5.455   3.891  19.190  0.00  0.00    +0.000 NA
ATOM      7  N   UNL     1       4.402   3.191  19.636  0.00  0.00    +0.000 N 
ATOM      8  C   UNL     1       4.683   1.851  20.097  0.00  0.00    +0.000 C 
ATOM      9  C   UNL     1       3.182   3.837  19.483  0.00  0.00    +0.000 A 
ATOM     10  C   UNL     1       3.502   5.042  18.832  0.00  0.00    +0.000 A 
BRANCH   9  11
ATOM     11  N   UNL     1       1.984   3.275  19.877  0.00  0.00    +0.000 N 
ATOM     12  C   UNL     1       1.448   3.423  21.229  0.00  0.00    +0.000 C 
ATOM     13  C   UNL     1       0.988   2.790  18.927  0.00  0.00    +0.000 C 
ENDBRANCH   9  11
ENDBRANCH   3  10
ENDBRANCH   1   3
BRANCH   1  14
ATOM     14  C   UNL     1       1.946   8.307  19.367  0.00  0.00    +0.000 C 
BRANCH  14  15
ATOM     15  C   UNL     1       1.084   9.060  20.360  0.00  0.00    +0.000 A 
ATOM     16  C   UNL     1       1.188   8.690  21.717  0.00  0.00    +0.000 A 
ATOM     17  C   UNL     1       0.407   9.310  22.693  0.00  0.00    +0.000 A 
ATOM     18  C   UNL     1      -0.498  10.299  22.329  0.00  0.00    +0.000 A 
ATOM     19  C   UNL     1      -0.599  10.687  20.997  0.00  0.00    +0.000 A 
ATOM     20  C   UNL     1       0.186  10.084  19.992  0.00  0.00    +0.000 A 
BRANCH  20  21
ATOM     21  C   UNL     1       0.011  10.570  18.567  0.00  0.00    +0.000 C 
BRANCH  21  22
ATOM     22  N   UNL     1      -1.385  10.731  18.195  0.00  0.00    +0.000 N 
ATOM     23  C   UNL     1      -2.078  11.906  18.078  0.00  0.00    +0.000 A 
ATOM     24  C   UNL     1      -3.342  11.536  17.681  0.00  0.00    +0.000 A 
ATOM     25  N   UNL     1      -3.418  10.178  17.502  0.00  0.00    +0.000 NA
ATOM     26  C   UNL     1      -2.220   9.724  17.796  0.00  0.00    +0.000 A 
ENDBRANCH  21  22
ENDBRANCH  20  21
ENDBRANCH  14  15
ENDBRANCH   1  14
TORSDOF 7
ENDMDL
