MODEL 1
REMARK VINA RESULT:      -9.1      0.000      0.000
REMARK  Name = 
REMARK  9 active torsions:
REMARK  status: ('A' for Active; 'I' for Inactive)
REMARK    1  A    between atoms: C_1  and  C_2
REMARK    2  A    between atoms: C_2  and  C_3
REMARK    3  A    between atoms: C_3  and  C_4
REMARK    4  A    between atoms: C_7  and  C_8
REMARK    5  A    between atoms: N_14  and  C_15
REMARK    6  A    between atoms: C_15  and  C_16
REMARK    7  A    between atoms: C_15  and  C_17
REMARK    8  A    between atoms: N_19  and  C_20
REMARK    9  A    between atoms: C_23  and  N_24
REMARK                            x       y       z     vdW  Elec       q    Type
REMARK                         _______ _______ _______ _____ _____    ______ ____
ROOT
ATOM      1  C   UNL     1       2.920   4.070  17.711  0.00  0.00    +0.000 C 
ATOM      2  C   UNL     1       2.483   2.623  17.967  0.00  0.00    +0.000 C 
ENDROOT
BRANCH   1   7
ATOM      3  C   UNL     1       6.549   5.017  17.117  0.00  0.00    +0.000 C 
ATOM      4  N   UNL     1       6.537   4.055  18.196  0.00  0.00    +0.000 N 
ATOM      5  C   UNL     1       5.262   3.765  18.616  0.00  0.00    +0.000 C 
ATOM      6  O   UNL     1       5.040   3.144  19.643  0.00  0.00    +0.000 OA
ATOM      7  N   UNL     1       4.372   4.257  17.715  0.00  0.00    +0.000 N 
ATOM      8  C   UNL     1       5.023   5.101  16.847  0.00  0.00    +0.000 C 
ATOM      9  O   UNL     1       4.479   5.781  15.986  0.00  0.00    +0.000 OA
ATOM     10  H   UNL     1       7.299   3.934  18.850  0.00  0.00    +0.000 HD
BRANCH   3  11
ATOM     11  C   UNL     1       7.178   6.310  17.647  0.00  0.00    +0.000 A 
ATOM     12  C   UNL     1       7.990   6.304  18.795  0.00  0.00    +0.000 A 
ATOM     13  C   UNL     1       8.627   7.466  19.243  0.00  0.00    +0.000 A 
ATOM     14  C   UNL     1       8.487   8.670  18.550  0.00  0.00    +0.000 A 
ATOM     15  C   UNL     1       9.154   9.916  19.040  0.00  0.00    +0.000 C 
ATOM     16  C   UNL     1       7.704   8.692  17.394  0.00  0.00    +0.000 A 
ATOM     17  C   UNL     1       7.069   7.526  16.944  0.00  0.00    +0.000 A 
ENDBRANCH   3  11
BRANCH   3  19
ATOM     18  C   UNL     1       6.314   3.762  14.842  0.00  0.00    +0.000 C 
ATOM     19  C   UNL     1       7.235   4.450  15.850  0.00  0.00    +0.000 C 
ENDBRANCH   3  19
ENDBRANCH   1   7
BRANCH   1  20
ATOM     20  C   UNL     1       2.239   5.019  18.717  0.00  0.00    +0.000 C 
ATOM     21  O   UNL     1       1.450   4.607  19.568  0.00  0.00    +0.000 OA
ATOM     22  N   UNL     1       2.568   6.361  18.522  0.00  0.00    +0.000 N 
ATOM     23  H   UNL     1       2.969   6.627  17.632  0.00  0.00    +0.000 HD
BRANCH  22  24
ATOM     24  C   UNL     1       2.022   7.410  19.287  0.00  0.00    +0.000 A 
ATOM     25  C   UNL     1       1.735   7.266  20.640  0.00  0.00    +0.000 A 
ATOM     26  C   UNL     1       1.183   8.334  21.357  0.00  0.00    +0.000 A 
ATOM     27  C   UNL     1       0.866   9.558  20.747  0.00  0.00    +0.000 A 
ATOM     28  C   UNL     1       1.161   9.673  19.381  0.00  0.00    +0.000 A 
ATOM     29  C   UNL     1       1.768   8.630  18.665  0.00  0.00    +0.000 A 
BRANCH  27  30
ATOM     30  N   UNL     1       0.238  10.555  21.466  0.00  0.00    +0.000 N 
ATOM     31  C   UNL     1      -0.220  10.330  22.849  0.00  0.00    +0.000 C 
ATOM     32  C   UNL     1      -1.536  11.093  23.080  0.00  0.00    +0.000 C 
ATOM     33  O   UNL     1      -1.415  12.489  22.752  0.00  0.00    +0.000 OA
ATOM     34  C   UNL     1      -1.012  12.643  21.379  0.00  0.00    +0.000 C 
ATOM     35  C   UNL     1       0.350  11.977  21.117  0.00  0.00    +0.000 C 
ENDBRANCH  27  30
ENDBRANCH  22  24
ENDBRANCH   1  20
TORSDOF 6
ENDMDL
MODEL 2
REMARK VINA RESULT:      -8.6      3.604     10.219
REMARK  Name = 
REMARK  9 active torsions:
REMARK  status: ('A' for Active; 'I' for Inactive)
REMARK    1  A    between atoms: C_1  and  C_2
REMARK    2  A    between atoms: C_2  and  C_3
REMARK    3  A    between atoms: C_3  and  C_4
REMARK    4  A    between atoms: C_7  and  C_8
REMARK    5  A    between atoms: N_14  and  C_15
REMARK    6  A    between atoms: C_15  and  C_16
REMARK    7  A    between atoms: C_15  and  C_17
REMARK    8  A    between atoms: N_19  and  C_20
REMARK    9  A    between atoms: C_23  and  N_24
REMARK                            x       y       z     vdW  Elec       q    Type
REMARK                         _______ _______ _______ _____ _____    ______ ____
ROOT
ATOM      1  C   UNL     1       0.852  11.360  19.334  0.00  0.00    +0.000 C 
ATOM      2  C   UNL     1       0.706  11.357  20.860  0.00  0.00    +0.000 C 
ENDROOT
BRANCH   1   7
ATOM      3  C   UNL     1      -2.594  11.162  17.750  0.00  0.00    +0.000 C 
ATOM      4  N   UNL     1      -2.009  12.414  17.327  0.00  0.00    +0.000 N 
ATOM      5  C   UNL     1      -0.827  12.678  17.975  0.00  0.00    +0.000 C 
ATOM      6  O   UNL     1      -0.282  13.769  17.921  0.00  0.00    +0.000 OA
ATOM      7  N   UNL     1      -0.412  11.556  18.622  0.00  0.00    +0.000 N 
ATOM      8  C   UNL     1      -1.433  10.636  18.637  0.00  0.00    +0.000 C 
ATOM      9  O   UNL     1      -1.409   9.567  19.233  0.00  0.00    +0.000 OA
ATOM     10  H   UNL     1      -2.546  13.194  16.970  0.00  0.00    +0.000 HD
BRANCH   3  11
ATOM     11  C   UNL     1      -3.887  11.479  18.508  0.00  0.00    +0.000 A 
ATOM     12  C   UNL     1      -5.096  10.840  18.180  0.00  0.00    +0.000 A 
ATOM     13  C   UNL     1      -6.265  11.069  18.914  0.00  0.00    +0.000 A 
ATOM     14  C   UNL     1      -6.261  11.932  20.011  0.00  0.00    +0.000 A 
ATOM     15  C   UNL     1      -7.516  12.190  20.784  0.00  0.00    +0.000 C 
ATOM     16  C   UNL     1      -5.066  12.558  20.368  0.00  0.00    +0.000 A 
ATOM     17  C   UNL     1      -3.895  12.326  19.634  0.00  0.00    +0.000 A 
ENDBRANCH   3  11
BRANCH   3  19
ATOM     18  C   UNL     1      -3.009  10.829  15.196  0.00  0.00    +0.000 C 
ATOM     19  C   UNL     1      -2.777  10.185  16.563  0.00  0.00    +0.000 C 
ENDBRANCH   3  19
ENDBRANCH   1   7
BRANCH   1  20
ATOM     20  C   UNL     1       1.556  10.072  18.863  0.00  0.00    +0.000 C 
ATOM     21  O   UNL     1       2.077   9.985  17.750  0.00  0.00    +0.000 OA
ATOM     22  N   UNL     1       1.489   9.034  19.792  0.00  0.00    +0.000 N 
ATOM     23  H   UNL     1       0.796   9.098  20.526  0.00  0.00    +0.000 HD
BRANCH  22  24
ATOM     24  C   UNL     1       2.015   7.749  19.555  0.00  0.00    +0.000 A 
ATOM     25  C   UNL     1       2.751   7.451  18.413  0.00  0.00    +0.000 A 
ATOM     26  C   UNL     1       3.245   6.156  18.216  0.00  0.00    +0.000 A 
ATOM     27  C   UNL     1       2.992   5.114  19.122  0.00  0.00    +0.000 A 
ATOM     28  C   UNL     1       2.243   5.442  20.262  0.00  0.00    +0.000 A 
ATOM     29  C   UNL     1       1.793   6.750  20.499  0.00  0.00    +0.000 A 
BRANCH  27  30
ATOM     30  N   UNL     1       3.417   3.830  18.848  0.00  0.00    +0.000 N 
ATOM     31  C   UNL     1       2.983   3.124  17.628  0.00  0.00    +0.000 C 
ATOM     32  C   UNL     1       2.797   1.630  17.945  0.00  0.00    +0.000 C 
ATOM     33  O   UNL     1       3.976   1.053  18.536  0.00  0.00    +0.000 OA
ATOM     34  C   UNL     1       4.319   1.754  19.745  0.00  0.00    +0.000 C 
ATOM     35  C   UNL     1       4.610   3.239  19.466  0.00  0.00    +0.000 C 
ENDBRANCH  27  30
ENDBRANCH  22  24
ENDBRANCH   1  20
TORSDOF 6
ENDMDL
MODEL 3
REMARK VINA RESULT:      -8.5      0.780      1.193
REMARK  Name = 
REMARK  9 active torsions:
REMARK  status: ('A' for Active; 'I' for Inactive)
REMARK    1  A    between atoms: C_1  and  C_2
REMARK    2  A    between atoms: C_2  and  C_3
REMARK    3  A    between atoms: C_3  and  C_4
REMARK    4  A    between atoms: C_7  and  C_8
REMARK    5  A    between atoms: N_14  and  C_15
REMARK    6  A    between atoms: C_15  and  C_16
REMARK    7  A    between atoms: C_15  and  C_17
REMARK    8  A    between atoms: N_19  and  C_20
REMARK    9  A    between atoms: C_23  and  N_24
REMARK                            x       y       z     vdW  Elec       q    Type
REMARK                         _______ _______ _______ _____ _____    ______ ____
ROOT
ATOM      1  C   UNL     1       3.022   3.845  17.565  0.00  0.00    +0.000 C 
ATOM      2  C   UNL     1       2.603   2.464  18.085  0.00  0.00    +0.000 C 
ENDROOT
BRANCH   1   7
ATOM      3  C   UNL     1       6.644   4.909  17.156  0.00  0.00    +0.000 C 
ATOM      4  N   UNL     1       6.593   4.026  18.299  0.00  0.00    +0.000 N 
ATOM      5  C   UNL     1       5.303   3.709  18.650  0.00  0.00    +0.000 C 
ATOM      6  O   UNL     1       5.032   3.152  19.702  0.00  0.00    +0.000 OA
ATOM      7  N   UNL     1       4.462   4.096  17.656  0.00  0.00    +0.000 N 
ATOM      8  C   UNL     1       5.140   4.905  16.776  0.00  0.00    +0.000 C 
ATOM      9  O   UNL     1       4.633   5.499  15.832  0.00  0.00    +0.000 OA
ATOM     10  H   UNL     1       7.309   3.986  19.012  0.00  0.00    +0.000 HD
BRANCH   3  11
ATOM     11  C   UNL     1       7.181   6.263  17.632  0.00  0.00    +0.000 A 
ATOM     12  C   UNL     1       8.042   6.353  18.741  0.00  0.00    +0.000 A 
ATOM     13  C   UNL     1       8.595   7.576  19.137  0.00  0.00    +0.000 A 
ATOM     14  C   UNL     1       8.318   8.747  18.430  0.00  0.00    +0.000 A 
ATOM     15  C   UNL     1       8.895  10.057  18.866  0.00  0.00    +0.000 C 
ATOM     16  C   UNL     1       7.484   8.675  17.313  0.00  0.00    +0.000 A 
ATOM     17  C   UNL     1       6.934   7.450  16.915  0.00  0.00    +0.000 A 
ENDBRANCH   3  11
BRANCH   3  19
ATOM     18  C   UNL     1       6.683   4.134  14.666  0.00  0.00    +0.000 C 
ATOM     19  C   UNL     1       7.442   4.287  15.985  0.00  0.00    +0.000 C 
ENDBRANCH   3  19
ENDBRANCH   1   7
BRANCH   1  20
ATOM     20  C   UNL     1       2.222   4.950  18.283  0.00  0.00    +0.000 C 
ATOM     21  O   UNL     1       1.159   4.715  18.857  0.00  0.00    +0.000 OA
ATOM     22  N   UNL     1       2.797   6.216  18.162  0.00  0.00    +0.000 N 
ATOM     23  H   UNL     1       3.485   6.357  17.434  0.00  0.00    +0.000 HD
BRANCH  22  24
ATOM     24  C   UNL     1       2.213   7.383  18.689  0.00  0.00    +0.000 A 
ATOM     25  C   UNL     1       1.928   7.520  20.044  0.00  0.00    +0.000 A 
ATOM     26  C   UNL     1       1.338   8.696  20.520  0.00  0.00    +0.000 A 
ATOM     27  C   UNL     1       0.979   9.751  19.666  0.00  0.00    +0.000 A 
ATOM     28  C   UNL     1       1.273   9.584  18.306  0.00  0.00    +0.000 A 
ATOM     29  C   UNL     1       1.918   8.434  17.824  0.00  0.00    +0.000 A 
BRANCH  27  30
ATOM     30  N   UNL     1       0.315  10.856  20.160  0.00  0.00    +0.000 N 
ATOM     31  C   UNL     1       0.134  12.069  19.342  0.00  0.00    +0.000 C 
ATOM     32  C   UNL     1       0.232  13.311  20.246  0.00  0.00    +0.000 C 
ATOM     33  O   UNL     1      -0.682  13.244  21.355  0.00  0.00    +0.000 OA
ATOM     34  C   UNL     1      -0.424  12.065  22.140  0.00  0.00    +0.000 C 
ATOM     35  C   UNL     1      -0.603  10.786  21.304  0.00  0.00    +0.000 C 
ENDBRANCH  27  30
ENDBRANCH  22  24
ENDBRANCH   1  20
TORSDOF 6
ENDMDL
MODEL 4
REMARK VINA RESULT:      -8.4      0.837      1.450
REMARK  Name = 
REMARK  9 active torsions:
REMARK  status: ('A' for Active; 'I' for Inactive)
REMARK    1  A    between atoms: C_1  and  C_2
REMARK    2  A    between atoms: C_2  and  C_3
REMARK    3  A    between atoms: C_3  and  C_4
REMARK    4  A    between atoms: C_7  and  C_8
REMARK    5  A    between atoms: N_14  and  C_15
REMARK    6  A    between atoms: C_15  and  C_16
REMARK    7  A    between atoms: C_15  and  C_17
REMARK    8  A    between atoms: N_19  and  C_20
REMARK    9  A    between atoms: C_23  and  N_24
REMARK                            x       y       z     vdW  Elec       q    Type
REMARK                         _______ _______ _______ _____ _____    ______ ____
ROOT
ATOM      1  C   UNL     1       2.907   4.415  18.516  0.00  0.00    +0.000 C 
ATOM      2  C   UNL     1       2.492   3.073  19.130  0.00  0.00    +0.000 C 
ENDROOT
BRANCH   1   7
ATOM      3  C   UNL     1       6.413   5.189  17.280  0.00  0.00    +0.000 C 
ATOM      4  N   UNL     1       6.544   4.191  18.317  0.00  0.00    +0.000 N 
ATOM      5  C   UNL     1       5.354   3.954  18.961  0.00  0.00    +0.000 C 
ATOM      6  O   UNL     1       5.289   3.310  19.996  0.00  0.00    +0.000 OA
ATOM      7  N   UNL     1       4.343   4.524  18.254  0.00  0.00    +0.000 N 
ATOM      8  C   UNL     1       4.871   5.363  17.301  0.00  0.00    +0.000 C 
ATOM      9  O   UNL     1       4.218   6.101  16.574  0.00  0.00    +0.000 OA
ATOM     10  H   UNL     1       7.405   4.007  18.816  0.00  0.00    +0.000 HD
BRANCH   3  11
ATOM     11  C   UNL     1       7.204   6.427  17.715  0.00  0.00    +0.000 A 
ATOM     12  C   UNL     1       7.049   7.657  17.050  0.00  0.00    +0.000 A 
ATOM     13  C   UNL     1       7.712   8.809  17.487  0.00  0.00    +0.000 A 
ATOM     14  C   UNL     1       8.538   8.775  18.610  0.00  0.00    +0.000 A 
ATOM     15  C   UNL     1       9.260  10.004  19.065  0.00  0.00    +0.000 C 
ATOM     16  C   UNL     1       8.687   7.569  19.298  0.00  0.00    +0.000 A 
ATOM     17  C   UNL     1       8.020   6.416  18.862  0.00  0.00    +0.000 A 
ENDBRANCH   3  11
BRANCH   3  19
ATOM     18  C   UNL     1       5.897   3.561  15.307  0.00  0.00    +0.000 C 
ATOM     19  C   UNL     1       6.819   4.631  15.893  0.00  0.00    +0.000 C 
ENDBRANCH   3  19
ENDBRANCH   1   7
BRANCH   1  20
ATOM     20  C   UNL     1       2.416   5.580  19.398  0.00  0.00    +0.000 C 
ATOM     21  O   UNL     1       2.125   5.420  20.584  0.00  0.00    +0.000 OA
ATOM     22  N   UNL     1       2.293   6.785  18.706  0.00  0.00    +0.000 N 
ATOM     23  H   UNL     1       2.261   6.750  17.695  0.00  0.00    +0.000 HD
BRANCH  22  24
ATOM     24  C   UNL     1       1.811   7.969  19.294  0.00  0.00    +0.000 A 
ATOM     25  C   UNL     1       1.496   8.047  20.647  0.00  0.00    +0.000 A 
ATOM     26  C   UNL     1       1.009   9.244  21.185  0.00  0.00    +0.000 A 
ATOM     27  C   UNL     1       0.785  10.382  20.394  0.00  0.00    +0.000 A 
ATOM     28  C   UNL     1       1.106  10.273  19.034  0.00  0.00    +0.000 A 
ATOM     29  C   UNL     1       1.650   9.098  18.494  0.00  0.00    +0.000 A 
BRANCH  27  30
ATOM     30  N   UNL     1       0.217  11.515  20.943  0.00  0.00    +0.000 N 
ATOM     31  C   UNL     1       0.621  12.863  20.503  0.00  0.00    +0.000 C 
ATOM     32  C   UNL     1       0.604  13.818  21.710  0.00  0.00    +0.000 C 
ATOM     33  O   UNL     1      -0.666  13.807  22.388  0.00  0.00    +0.000 OA
ATOM     34  C   UNL     1      -0.980  12.476  22.833  0.00  0.00    +0.000 C 
ATOM     35  C   UNL     1      -1.069  11.496  21.650  0.00  0.00    +0.000 C 
ENDBRANCH  27  30
ENDBRANCH  22  24
ENDBRANCH   1  20
TORSDOF 6
ENDMDL
MODEL 5
REMARK VINA RESULT:      -8.3      1.021      1.417
REMARK  Name = 
REMARK  9 active torsions:
REMARK  status: ('A' for Active; 'I' for Inactive)
REMARK    1  A    between atoms: C_1  and  C_2
REMARK    2  A    between atoms: C_2  and  C_3
REMARK    3  A    between atoms: C_3  and  C_4
REMARK    4  A    between atoms: C_7  and  C_8
REMARK    5  A    between atoms: N_14  and  C_15
REMARK    6  A    between atoms: C_15  and  C_16
REMARK    7  A    between atoms: C_15  and  C_17
REMARK    8  A    between atoms: N_19  and  C_20
REMARK    9  A    between atoms: C_23  and  N_24
REMARK                            x       y       z     vdW  Elec       q    Type
REMARK                         _______ _______ _______ _____ _____    ______ ____
ROOT
ATOM      1  C   UNL     1       2.875   3.814  18.017  0.00  0.00    +0.000 C 
ATOM      2  C   UNL     1       2.463   2.485  18.662  0.00  0.00    +0.000 C 
ENDROOT
BRANCH   1   7
ATOM      3  C   UNL     1       6.483   4.798  17.358  0.00  0.00    +0.000 C 
ATOM      4  N   UNL     1       6.484   3.964  18.538  0.00  0.00    +0.000 N 
ATOM      5  C   UNL     1       5.212   3.685  18.976  0.00  0.00    +0.000 C 
ATOM      6  O   UNL     1       4.994   3.177  20.064  0.00  0.00    +0.000 OA
ATOM      7  N   UNL     1       4.321   4.044  18.015  0.00  0.00    +0.000 N 
ATOM      8  C   UNL     1       4.959   4.804  17.064  0.00  0.00    +0.000 C 
ATOM      9  O   UNL     1       4.407   5.366  16.126  0.00  0.00    +0.000 OA
ATOM     10  H   UNL     1       7.240   3.942  19.210  0.00  0.00    +0.000 HD
BRANCH   3  11
ATOM     11  C   UNL     1       7.066   6.162  17.744  0.00  0.00    +0.000 A 
ATOM     12  C   UNL     1       8.001   6.281  18.787  0.00  0.00    +0.000 A 
ATOM     13  C   UNL     1       8.593   7.510  19.098  0.00  0.00    +0.000 A 
ATOM     14  C   UNL     1       8.282   8.658  18.367  0.00  0.00    +0.000 A 
ATOM     15  C   UNL     1       8.902   9.975  18.712  0.00  0.00    +0.000 C 
ATOM     16  C   UNL     1       7.373   8.556  17.313  0.00  0.00    +0.000 A 
ATOM     17  C   UNL     1       6.783   7.324  17.000  0.00  0.00    +0.000 A 
ENDBRANCH   3  11
BRANCH   3  19
ATOM     18  C   UNL     1       7.122   4.843  14.829  0.00  0.00    +0.000 C 
ATOM     19  C   UNL     1       7.202   4.114  16.170  0.00  0.00    +0.000 C 
ENDBRANCH   3  19
ENDBRANCH   1   7
BRANCH   1  20
ATOM     20  C   UNL     1       2.130   4.985  18.688  0.00  0.00    +0.000 C 
ATOM     21  O   UNL     1       1.188   4.800  19.459  0.00  0.00    +0.000 OA
ATOM     22  N   UNL     1       2.596   6.238  18.289  0.00  0.00    +0.000 N 
ATOM     23  H   UNL     1       3.150   6.291  17.444  0.00  0.00    +0.000 HD
BRANCH  22  24
ATOM     24  C   UNL     1       2.031   7.450  18.729  0.00  0.00    +0.000 A 
ATOM     25  C   UNL     1       1.631   8.444  17.841  0.00  0.00    +0.000 A 
ATOM     26  C   UNL     1       1.084   9.637  18.327  0.00  0.00    +0.000 A 
ATOM     27  C   UNL     1       0.953   9.895  19.700  0.00  0.00    +0.000 A 
ATOM     28  C   UNL     1       1.368   8.878  20.571  0.00  0.00    +0.000 A 
ATOM     29  C   UNL     1       1.864   7.654  20.096  0.00  0.00    +0.000 A 
BRANCH  27  30
ATOM     30  N   UNL     1       0.494  11.120  20.141  0.00  0.00    +0.000 N 
ATOM     31  C   UNL     1      -0.927  11.329  20.477  0.00  0.00    +0.000 C 
ATOM     32  C   UNL     1      -1.341  12.754  20.066  0.00  0.00    +0.000 C 
ATOM     33  O   UNL     1      -0.478  13.753  20.639  0.00  0.00    +0.000 OA
ATOM     34  C   UNL     1       0.884  13.521  20.237  0.00  0.00    +0.000 C 
ATOM     35  C   UNL     1       1.381  12.143  20.709  0.00  0.00    +0.000 C 
ENDBRANCH  27  30
ENDBRANCH  22  24
ENDBRANCH   1  20
TORSDOF 6
ENDMDL
MODEL 6
REMARK VINA RESULT:      -8.3      1.440      1.702
REMARK  Name = 
REMARK  9 active torsions:
REMARK  status: ('A' for Active; 'I' for Inactive)
REMARK    1  A    between atoms: C_1  and  C_2
REMARK    2  A    between atoms: C_2  and  C_3
REMARK    3  A    between atoms: C_3  and  C_4
REMARK    4  A    between atoms: C_7  and  C_8
REMARK    5  A    between atoms: N_14  and  C_15
REMARK    6  A    between atoms: C_15  and  C_16
REMARK    7  A    between atoms: C_15  and  C_17
REMARK    8  A    between atoms: N_19  and  C_20
REMARK    9  A    between atoms: C_23  and  N_24
REMARK                            x       y       z     vdW  Elec       q    Type
REMARK                         _______ _______ _______ _____ _____    ______ ____
ROOT
ATOM      1  C   UNL     1       2.943   3.845  18.234  0.00  0.00    +0.000 C 
ATOM      2  C   UNL     1       2.562   3.020  19.468  0.00  0.00    +0.000 C 
ENDROOT
BRANCH   1   7
ATOM      3  C   UNL     1       6.467   4.912  17.304  0.00  0.00    +0.000 C 
ATOM      4  N   UNL     1       6.588   3.958  18.384  0.00  0.00    +0.000 N 
ATOM      5  C   UNL     1       5.367   3.628  18.921  0.00  0.00    +0.000 C 
ATOM      6  O   UNL     1       5.262   3.007  19.967  0.00  0.00    +0.000 OA
ATOM      7  N   UNL     1       4.381   4.082  18.103  0.00  0.00    +0.000 N 
ATOM      8  C   UNL     1       4.920   4.941  17.175  0.00  0.00    +0.000 C 
ATOM      9  O   UNL     1       4.276   5.595  16.365  0.00  0.00    +0.000 OA
ATOM     10  H   UNL     1       7.409   3.869  18.967  0.00  0.00    +0.000 HD
BRANCH   3  11
ATOM     11  C   UNL     1       7.096   6.230  17.768  0.00  0.00    +0.000 A 
ATOM     12  C   UNL     1       7.953   6.272  18.882  0.00  0.00    +0.000 A 
ATOM     13  C   UNL     1       8.589   7.457  19.268  0.00  0.00    +0.000 A 
ATOM     14  C   UNL     1       8.402   8.636  18.545  0.00  0.00    +0.000 A 
ATOM     15  C   UNL     1       9.068   9.907  18.969  0.00  0.00    +0.000 C 
ATOM     16  C   UNL     1       7.572   8.610  17.422  0.00  0.00    +0.000 A 
ATOM     17  C   UNL     1       6.938   7.422  17.034  0.00  0.00    +0.000 A 
ENDBRANCH   3  11
BRANCH   3  19
ATOM     18  C   UNL     1       6.064   3.649  15.058  0.00  0.00    +0.000 C 
ATOM     19  C   UNL     1       7.053   4.360  15.982  0.00  0.00    +0.000 C 
ENDBRANCH   3  19
ENDBRANCH   1   7
BRANCH   1  20
ATOM     20  C   UNL     1       2.161   5.174  18.219  0.00  0.00    +0.000 C 
ATOM     21  O   UNL     1       1.167   5.336  17.511  0.00  0.00    +0.000 OA
ATOM     22  N   UNL     1       2.725   6.157  19.033  0.00  0.00    +0.000 N 
ATOM     23  H   UNL     1       3.685   6.034  19.329  0.00  0.00    +0.000 HD
BRANCH  22  24
ATOM     24  C   UNL     1       2.213   7.464  19.134  0.00  0.00    +0.000 A 
ATOM     25  C   UNL     1       1.617   7.936  20.300  0.00  0.00    +0.000 A 
ATOM     26  C   UNL     1       1.113   9.241  20.349  0.00  0.00    +0.000 A 
ATOM     27  C   UNL     1       1.150  10.099  19.239  0.00  0.00    +0.000 A 
ATOM     28  C   UNL     1       1.752   9.596  18.077  0.00  0.00    +0.000 A 
ATOM     29  C   UNL     1       2.313   8.310  18.033  0.00  0.00    +0.000 A 
BRANCH  27  30
ATOM     30  N   UNL     1       0.561  11.346  19.299  0.00  0.00    +0.000 N 
ATOM     31  C   UNL     1      -0.834  11.555  18.867  0.00  0.00    +0.000 C 
ATOM     32  C   UNL     1      -0.958  12.934  18.197  0.00  0.00    +0.000 C 
ATOM     33  O   UNL     1      -0.471  13.991  19.044  0.00  0.00    +0.000 OA
ATOM     34  C   UNL     1       0.906  13.755  19.390  0.00  0.00    +0.000 C 
ATOM     35  C   UNL     1       1.072  12.427  20.150  0.00  0.00    +0.000 C 
ENDBRANCH  27  30
ENDBRANCH  22  24
ENDBRANCH   1  20
TORSDOF 6
ENDMDL
MODEL 7
REMARK VINA RESULT:      -8.2      1.537      1.987
REMARK  Name = 
REMARK  9 active torsions:
REMARK  status: ('A' for Active; 'I' for Inactive)
REMARK    1  A    between atoms: C_1  and  C_2
REMARK    2  A    between atoms: C_2  and  C_3
REMARK    3  A    between atoms: C_3  and  C_4
REMARK    4  A    between atoms: C_7  and  C_8
REMARK    5  A    between atoms: N_14  and  C_15
REMARK    6  A    between atoms: C_15  and  C_16
REMARK    7  A    between atoms: C_15  and  C_17
REMARK    8  A    between atoms: N_19  and  C_20
REMARK    9  A    between atoms: C_23  and  N_24
REMARK                            x       y       z     vdW  Elec       q    Type
REMARK                         _______ _______ _______ _____ _____    ______ ____
ROOT
ATOM      1  C   UNL     1       2.255   3.380  20.171  0.00  0.00    +0.000 C 
ATOM      2  C   UNL     1       2.486   2.857  21.593  0.00  0.00    +0.000 C 
ENDROOT
BRANCH   1   7
ATOM      3  C   UNL     1       5.015   4.240  17.709  0.00  0.00    +0.000 C 
ATOM      4  N   UNL     1       5.563   3.271  18.632  0.00  0.00    +0.000 N 
ATOM      5  C   UNL     1       4.708   3.010  19.675  0.00  0.00    +0.000 C 
ATOM      6  O   UNL     1       5.058   2.387  20.665  0.00  0.00    +0.000 OA
ATOM      7  N   UNL     1       3.485   3.530  19.391  0.00  0.00    +0.000 N 
ATOM      8  C   UNL     1       3.587   4.364  18.302  0.00  0.00    +0.000 C 
ATOM      9  O   UNL     1       2.682   5.063  17.865  0.00  0.00    +0.000 OA
ATOM     10  H   UNL     1       6.553   3.127  18.774  0.00  0.00    +0.000 HD
BRANCH   3  11
ATOM     11  C   UNL     1       5.863   5.513  17.807  0.00  0.00    +0.000 A 
ATOM     12  C   UNL     1       7.084   5.520  18.503  0.00  0.00    +0.000 A 
ATOM     13  C   UNL     1       7.898   6.657  18.536  0.00  0.00    +0.000 A 
ATOM     14  C   UNL     1       7.526   7.821  17.861  0.00  0.00    +0.000 A 
ATOM     15  C   UNL     1       8.389   9.043  17.912  0.00  0.00    +0.000 C 
ATOM     16  C   UNL     1       6.328   7.828  17.145  0.00  0.00    +0.000 A 
ATOM     17  C   UNL     1       5.515   6.687  17.110  0.00  0.00    +0.000 A 
ENDBRANCH   3  11
BRANCH   3  19
ATOM     18  C   UNL     1       6.169   3.713  15.429  0.00  0.00    +0.000 C 
ATOM     19  C   UNL     1       4.897   3.665  16.276  0.00  0.00    +0.000 C 
ENDBRANCH   3  19
ENDBRANCH   1   7
BRANCH   1  20
ATOM     20  C   UNL     1       1.462   4.701  20.211  0.00  0.00    +0.000 C 
ATOM     21  O   UNL     1       0.248   4.737  20.005  0.00  0.00    +0.000 OA
ATOM     22  N   UNL     1       2.261   5.820  20.445  0.00  0.00    +0.000 N 
ATOM     23  H   UNL     1       3.258   5.729  20.299  0.00  0.00    +0.000 HD
BRANCH  22  24
ATOM     24  C   UNL     1       1.762   7.136  20.469  0.00  0.00    +0.000 A 
ATOM     25  C   UNL     1       1.069   7.643  21.564  0.00  0.00    +0.000 A 
ATOM     26  C   UNL     1       0.582   8.955  21.538  0.00  0.00    +0.000 A 
ATOM     27  C   UNL     1       0.733   9.786  20.417  0.00  0.00    +0.000 A 
ATOM     28  C   UNL     1       1.431   9.247  19.326  0.00  0.00    +0.000 A 
ATOM     29  C   UNL     1       1.975   7.954  19.362  0.00  0.00    +0.000 A 
BRANCH  27  30
ATOM     30  N   UNL     1       0.159  11.041  20.394  0.00  0.00    +0.000 N 
ATOM     31  C   UNL     1      -0.536  11.543  19.194  0.00  0.00    +0.000 C 
ATOM     32  C   UNL     1      -0.280  13.054  19.054  0.00  0.00    +0.000 C 
ATOM     33  O   UNL     1      -0.636  13.774  20.248  0.00  0.00    +0.000 OA
ATOM     34  C   UNL     1       0.109  13.270  21.372  0.00  0.00    +0.000 C 
ATOM     35  C   UNL     1      -0.186  11.780  21.615  0.00  0.00    +0.000 C 
ENDBRANCH  27  30
ENDBRANCH  22  24
ENDBRANCH   1  20
TORSDOF 6
ENDMDL
MODEL 8
REMARK VINA RESULT:      -8.1      1.391      1.842
REMARK  Name = 
REMARK  9 active torsions:
REMARK  status: ('A' for Active; 'I' for Inactive)
REMARK    1  A    between atoms: C_1  and  C_2
REMARK    2  A    between atoms: C_2  and  C_3
REMARK    3  A    between atoms: C_3  and  C_4
REMARK    4  A    between atoms: C_7  and  C_8
REMARK    5  A    between atoms: N_14  and  C_15
REMARK    6  A    between atoms: C_15  and  C_16
REMARK    7  A    between atoms: C_15  and  C_17
REMARK    8  A    between atoms: N_19  and  C_20
REMARK    9  A    between atoms: C_23  and  N_24
REMARK                            x       y       z     vdW  Elec       q    Type
REMARK                         _______ _______ _______ _____ _____    ______ ____
ROOT
ATOM      1  C   UNL     1       2.954   3.866  18.229  0.00  0.00    +0.000 C 
ATOM      2  C   UNL     1       2.575   3.081  19.491  0.00  0.00    +0.000 C 
ENDROOT
BRANCH   1   7
ATOM      3  C   UNL     1       6.471   4.944  17.288  0.00  0.00    +0.000 C 
ATOM      4  N   UNL     1       6.598   4.006  18.381  0.00  0.00    +0.000 N 
ATOM      5  C   UNL     1       5.379   3.675  18.922  0.00  0.00    +0.000 C 
ATOM      6  O   UNL     1       5.277   3.068  19.976  0.00  0.00    +0.000 OA
ATOM      7  N   UNL     1       4.391   4.111  18.097  0.00  0.00    +0.000 N 
ATOM      8  C   UNL     1       4.924   4.960  17.157  0.00  0.00    +0.000 C 
ATOM      9  O   UNL     1       4.276   5.599  16.338  0.00  0.00    +0.000 OA
ATOM     10  H   UNL     1       7.419   3.931  18.965  0.00  0.00    +0.000 HD
BRANCH   3  11
ATOM     11  C   UNL     1       7.090   6.273  17.734  0.00  0.00    +0.000 A 
ATOM     12  C   UNL     1       7.976   6.330  18.825  0.00  0.00    +0.000 A 
ATOM     13  C   UNL     1       8.603   7.526  19.193  0.00  0.00    +0.000 A 
ATOM     14  C   UNL     1       8.377   8.701  18.474  0.00  0.00    +0.000 A 
ATOM     15  C   UNL     1       9.033   9.982  18.880  0.00  0.00    +0.000 C 
ATOM     16  C   UNL     1       7.519   8.660  17.374  0.00  0.00    +0.000 A 
ATOM     17  C   UNL     1       6.894   7.461  17.004  0.00  0.00    +0.000 A 
ENDBRANCH   3  11
BRANCH   3  19
ATOM     18  C   UNL     1       6.075   3.665  15.049  0.00  0.00    +0.000 C 
ATOM     19  C   UNL     1       7.062   4.377  15.974  0.00  0.00    +0.000 C 
ENDBRANCH   3  19
ENDBRANCH   1   7
BRANCH   1  20
ATOM     20  C   UNL     1       2.160   5.186  18.164  0.00  0.00    +0.000 C 
ATOM     21  O   UNL     1       1.142   5.299  17.481  0.00  0.00    +0.000 OA
ATOM     22  N   UNL     1       2.742   6.218  18.900  0.00  0.00    +0.000 N 
ATOM     23  H   UNL     1       3.712   6.120  19.170  0.00  0.00    +0.000 HD
BRANCH  22  24
ATOM     24  C   UNL     1       2.223   7.526  18.943  0.00  0.00    +0.000 A 
ATOM     25  C   UNL     1       2.340   8.403  17.869  0.00  0.00    +0.000 A 
ATOM     26  C   UNL     1       1.817   9.698  17.962  0.00  0.00    +0.000 A 
ATOM     27  C   UNL     1       1.200  10.172  19.129  0.00  0.00    +0.000 A 
ATOM     28  C   UNL     1       1.100   9.269  20.197  0.00  0.00    +0.000 A 
ATOM     29  C   UNL     1       1.567   7.950  20.096  0.00  0.00    +0.000 A 
BRANCH  27  30
ATOM     30  N   UNL     1       0.779  11.484  19.215  0.00  0.00    +0.000 N 
ATOM     31  C   UNL     1       1.745  12.598  19.234  0.00  0.00    +0.000 C 
ATOM     32  C   UNL     1       1.224  13.707  20.165  0.00  0.00    +0.000 C 
ATOM     33  O   UNL     1      -0.107  14.127  19.812  0.00  0.00    +0.000 OA
ATOM     34  C   UNL     1      -1.009  13.007  19.858  0.00  0.00    +0.000 C 
ATOM     35  C   UNL     1      -0.585  11.905  18.870  0.00  0.00    +0.000 C 
ENDBRANCH  27  30
ENDBRANCH  22  24
ENDBRANCH   1  20
TORSDOF 6
ENDMDL
MODEL 9
REMARK VINA RESULT:      -8.1      3.623     10.814
REMARK  Name = 
REMARK  9 active torsions:
REMARK  status: ('A' for Active; 'I' for Inactive)
REMARK    1  A    between atoms: C_1  and  C_2
REMARK    2  A    between atoms: C_2  and  C_3
REMARK    3  A    between atoms: C_3  and  C_4
REMARK    4  A    between atoms: C_7  and  C_8
REMARK    5  A    between atoms: N_14  and  C_15
REMARK    6  A    between atoms: C_15  and  C_16
REMARK    7  A    between atoms: C_15  and  C_17
REMARK    8  A    between atoms: N_19  and  C_20
REMARK    9  A    between atoms: C_23  and  N_24
REMARK                            x       y       z     vdW  Elec       q    Type
REMARK                         _______ _______ _______ _____ _____    ______ ____
ROOT
ATOM      1  C   UNL     1       0.129  12.127  19.469  0.00  0.00    +0.000 C 
ATOM      2  C   UNL     1       1.507  12.729  19.167  0.00  0.00    +0.000 C 
ENDROOT
BRANCH   1   7
ATOM      3  C   UNL     1      -1.591  13.684  22.475  0.00  0.00    +0.000 C 
ATOM      4  N   UNL     1      -0.798  12.581  22.970  0.00  0.00    +0.000 N 
ATOM      5  C   UNL     1      -0.261  11.832  21.950  0.00  0.00    +0.000 C 
ATOM      6  O   UNL     1       0.262  10.746  22.145  0.00  0.00    +0.000 OA
ATOM      7  N   UNL     1      -0.405  12.505  20.779  0.00  0.00    +0.000 N 
ATOM      8  C   UNL     1      -1.266  13.560  20.963  0.00  0.00    +0.000 C 
ATOM      9  O   UNL     1      -1.680  14.294  20.074  0.00  0.00    +0.000 OA
ATOM     10  H   UNL     1      -0.949  12.136  23.865  0.00  0.00    +0.000 HD
BRANCH   3  11
ATOM     11  C   UNL     1      -3.054  13.412  22.841  0.00  0.00    +0.000 A 
ATOM     12  C   UNL     1      -3.389  12.556  23.906  0.00  0.00    +0.000 A 
ATOM     13  C   UNL     1      -4.719  12.360  24.292  0.00  0.00    +0.000 A 
ATOM     14  C   UNL     1      -5.758  13.023  23.638  0.00  0.00    +0.000 A 
ATOM     15  C   UNL     1      -7.181  12.799  24.041  0.00  0.00    +0.000 C 
ATOM     16  C   UNL     1      -5.445  13.895  22.593  0.00  0.00    +0.000 A 
ATOM     17  C   UNL     1      -4.112  14.093  22.209  0.00  0.00    +0.000 A 
ENDBRANCH   3  11
BRANCH   3  19
ATOM     18  C   UNL     1      -1.268  15.344  24.461  0.00  0.00    +0.000 C 
ATOM     19  C   UNL     1      -1.054  15.046  22.977  0.00  0.00    +0.000 C 
ENDBRANCH   3  19
ENDBRANCH   1   7
BRANCH   1  20
ATOM     20  C   UNL     1       0.170  10.594  19.310  0.00  0.00    +0.000 C 
ATOM     21  O   UNL     1      -0.858   9.924  19.200  0.00  0.00    +0.000 OA
ATOM     22  N   UNL     1       1.460  10.067  19.360  0.00  0.00    +0.000 N 
ATOM     23  H   UNL     1       2.194  10.644  19.750  0.00  0.00    +0.000 HD
BRANCH  22  24
ATOM     24  C   UNL     1       1.736   8.688  19.292  0.00  0.00    +0.000 A 
ATOM     25  C   UNL     1       2.152   8.076  18.114  0.00  0.00    +0.000 A 
ATOM     26  C   UNL     1       2.404   6.699  18.092  0.00  0.00    +0.000 A 
ATOM     27  C   UNL     1       2.213   5.886  19.221  0.00  0.00    +0.000 A 
ATOM     28  C   UNL     1       1.788   6.530  20.392  0.00  0.00    +0.000 A 
ATOM     29  C   UNL     1       1.589   7.918  20.443  0.00  0.00    +0.000 A 
BRANCH  27  30
ATOM     30  N   UNL     1       2.383   4.519  19.135  0.00  0.00    +0.000 N 
ATOM     31  C   UNL     1       3.089   3.768  20.190  0.00  0.00    +0.000 C 
ATOM     32  C   UNL     1       3.896   2.626  19.547  0.00  0.00    +0.000 C 
ATOM     33  O   UNL     1       3.074   1.786  18.717  0.00  0.00    +0.000 OA
ATOM     34  C   UNL     1       2.452   2.567  17.681  0.00  0.00    +0.000 C 
ATOM     35  C   UNL     1       1.554   3.668  18.274  0.00  0.00    +0.000 C 
ENDBRANCH  27  30
ENDBRANCH  22  24
ENDBRANCH   1  20
TORSDOF 6
ENDMDL
