MODEL 1
REMARK VINA RESULT:      -7.9      0.000      0.000
REMARK  Name = 
REMARK  11 active torsions:
REMARK  status: ('A' for Active; 'I' for Inactive)
REMARK    1  A    between atoms: C_1  and  C_2
REMARK    2  A    between atoms: C_2  and  O_3
REMARK    3  A    between atoms: O_3  and  C_4
REMARK    4  A    between atoms: C_6  and  C_7
REMARK    5  A    between atoms: C_7  and  N_8
REMARK    6  A    between atoms: C_9  and  C_11
REMARK    7  A    between atoms: C_14  and  C_15
REMARK    8  A    between atoms: C_16  and  N_17
REMARK    9  A    between atoms: C_18  and  C_20
REMARK   10  A    between atoms: C_32  and  O_33
REMARK   11  A    between atoms: O_33  and  C_34
REMARK                            x       y       z     vdW  Elec       q    Type
REMARK                         _______ _______ _______ _____ _____    ______ ____
ROOT
ATOM      1  C   UNL     1      -0.882  10.712  18.325  0.00  0.00    +0.000 A 
ATOM      2  C   UNL     1      -1.563   9.951  17.379  0.00  0.00    +0.000 A 
ATOM      3  C   UNL     1      -2.927  10.153  17.219  0.00  0.00    +0.000 A 
ATOM      4  C   UNL     1      -3.662  11.101  17.993  0.00  0.00    +0.000 A 
ATOM      5  C   UNL     1      -5.132  11.118  17.711  0.00  0.00    +0.000 C 
ATOM      6  C   UNL     1      -3.001  11.901  18.948  0.00  0.00    +0.000 A 
ATOM      7  C   UNL     1      -1.589  11.685  19.079  0.00  0.00    +0.000 A 
ENDROOT
BRANCH   1   9
ATOM      8  N   UNL     1       0.995   9.179  18.021  0.00  0.00    +0.000 N 
ATOM      9  C   UNL     1       0.578  10.399  18.491  0.00  0.00    +0.000 C 
ATOM     10  O   UNL     1       1.316  11.202  19.054  0.00  0.00    +0.000 OA
ATOM     11  H   UNL     1       0.317   8.512  17.685  0.00  0.00    +0.000 HD
BRANCH   8  12
ATOM     12  C   UNL     1       2.361   8.722  18.165  0.00  0.00    +0.000 C 
BRANCH  12  15
ATOM     13  C   UNL     1       3.421   5.064  18.481  0.00  0.00    +0.000 A 
ATOM     14  C   UNL     1       3.125   6.331  17.942  0.00  0.00    +0.000 A 
ATOM     15  C   UNL     1       2.428   7.304  18.674  0.00  0.00    +0.000 A 
ATOM     16  C   UNL     1       1.908   6.954  19.915  0.00  0.00    +0.000 A 
ATOM     17  C   UNL     1       2.118   5.671  20.423  0.00  0.00    +0.000 A 
ATOM     18  C   UNL     1       2.893   4.724  19.735  0.00  0.00    +0.000 A 
BRANCH  18  19
ATOM     19  O   UNL     1       3.024   3.567  20.455  0.00  0.00    +0.000 OA
ATOM     20  C   UNL     1       2.208   3.353  21.593  0.00  0.00    +0.000 C 
ENDBRANCH  18  19
BRANCH  13  21
ATOM     21  O   UNL     1       4.229   4.177  17.812  0.00  0.00    +0.000 OA
BRANCH  21  23
ATOM     22  C   UNL     1       5.281   4.268  15.645  0.00  0.00    +0.000 C 
ATOM     23  C   UNL     1       5.301   4.778  17.071  0.00  0.00    +0.000 C 
ENDBRANCH  21  23
ENDBRANCH  13  21
ENDBRANCH  12  15
ENDBRANCH   8  12
ENDBRANCH   1   9
BRANCH   6  24
ATOM     24  N   UNL     1      -3.563  12.922  19.807  0.00  0.00    +0.000 N 
ATOM     25  C   UNL     1      -4.603  12.975  20.767  0.00  0.00    +0.000 C 
ATOM     26  O   UNL     1      -5.297  12.032  21.143  0.00  0.00    +0.000 OA
ATOM     27  H   UNL     1      -3.114  13.833  19.726  0.00  0.00    +0.000 HD
BRANCH  25  28
ATOM     28  C   UNL     1      -4.814  14.366  21.344  0.00  0.00    +0.000 A 
ATOM     29  N   UNL     1      -5.506  15.214  20.561  0.00  0.00    +0.000 NA
ATOM     30  S   UNL     1      -5.737  16.649  21.320  0.00  0.00    +0.000 S 
ATOM     31  C   UNL     1      -4.921  16.261  22.771  0.00  0.00    +0.000 A 
ATOM     32  C   UNL     1      -4.768  17.082  23.917  0.00  0.00    +0.000 A 
ATOM     33  C   UNL     1      -4.031  16.615  24.999  0.00  0.00    +0.000 A 
ATOM     34  C   UNL     1      -3.463  15.351  24.926  0.00  0.00    +0.000 A 
ATOM     35  C   UNL     1      -3.640  14.519  23.786  0.00  0.00    +0.000 A 
ATOM     36  C   UNL     1      -4.400  14.960  22.656  0.00  0.00    +0.000 A 
ENDBRANCH  25  28
ENDBRANCH   6  24
TORSDOF 8
ENDMDL
MODEL 2
REMARK VINA RESULT:      -7.7      1.040      1.089
REMARK  Name = 
REMARK  11 active torsions:
REMARK  status: ('A' for Active; 'I' for Inactive)
REMARK    1  A    between atoms: C_1  and  C_2
REMARK    2  A    between atoms: C_2  and  O_3
REMARK    3  A    between atoms: O_3  and  C_4
REMARK    4  A    between atoms: C_6  and  C_7
REMARK    5  A    between atoms: C_7  and  N_8
REMARK    6  A    between atoms: C_9  and  C_11
REMARK    7  A    between atoms: C_14  and  C_15
REMARK    8  A    between atoms: C_16  and  N_17
REMARK    9  A    between atoms: C_18  and  C_20
REMARK   10  A    between atoms: C_32  and  O_33
REMARK   11  A    between atoms: O_33  and  C_34
REMARK                            x       y       z     vdW  Elec       q    Type
REMARK                         _______ _______ _______ _____ _____    ______ ____
ROOT
ATOM      1  C   UNL     1      -0.792  10.392  18.491  0.00  0.00    +0.000 A 
ATOM      2  C   UNL     1      -1.342   9.895  17.314  0.00  0.00    +0.000 A 
ATOM      3  C   UNL     1      -2.578  10.375  16.901  0.00  0.00    +0.000 A 
ATOM      4  C   UNL     1      -3.312  11.350  17.643  0.00  0.00    +0.000 A 
ATOM      5  C   UNL     1      -4.650  11.685  17.061  0.00  0.00    +0.000 C 
ATOM      6  C   UNL     1      -2.776  11.888  18.831  0.00  0.00    +0.000 A 
ATOM      7  C   UNL     1      -1.490  11.388  19.223  0.00  0.00    +0.000 A 
ENDROOT
BRANCH   1   9
ATOM      8  N   UNL     1       1.118   8.951  18.004  0.00  0.00    +0.000 N 
ATOM      9  C   UNL     1       0.515   9.784  18.912  0.00  0.00    +0.000 C 
ATOM     10  O   UNL     1       0.967  10.016  20.030  0.00  0.00    +0.000 OA
ATOM     11  H   UNL     1       0.635   8.699  17.155  0.00  0.00    +0.000 HD
BRANCH   8  12
ATOM     12  C   UNL     1       2.352   8.253  18.296  0.00  0.00    +0.000 C 
BRANCH  12  15
ATOM     13  C   UNL     1       2.194   4.438  18.461  0.00  0.00    +0.000 A 
ATOM     14  C   UNL     1       2.184   5.759  17.973  0.00  0.00    +0.000 A 
ATOM     15  C   UNL     1       2.099   6.865  18.831  0.00  0.00    +0.000 A 
ATOM     16  C   UNL     1       1.892   6.639  20.188  0.00  0.00    +0.000 A 
ATOM     17  C   UNL     1       1.811   5.332  20.672  0.00  0.00    +0.000 A 
ATOM     18  C   UNL     1       1.987   4.222  19.831  0.00  0.00    +0.000 A 
BRANCH  18  19
ATOM     19  O   UNL     1       1.940   3.049  20.535  0.00  0.00    +0.000 OA
ATOM     20  C   UNL     1       3.042   2.671  21.340  0.00  0.00    +0.000 C 
ENDBRANCH  18  19
BRANCH  13  21
ATOM     21  O   UNL     1       2.425   3.372  17.624  0.00  0.00    +0.000 OA
BRANCH  21  23
ATOM     22  C   UNL     1       3.742   1.405  18.079  0.00  0.00    +0.000 C 
ATOM     23  C   UNL     1       3.765   2.859  17.656  0.00  0.00    +0.000 C 
ENDBRANCH  21  23
ENDBRANCH  13  21
ENDBRANCH  12  15
ENDBRANCH   8  12
ENDBRANCH   1   9
BRANCH   6  24
ATOM     24  N   UNL     1      -3.354  12.890  19.703  0.00  0.00    +0.000 N 
ATOM     25  C   UNL     1      -4.439  12.936  20.611  0.00  0.00    +0.000 C 
ATOM     26  O   UNL     1      -5.176  11.998  20.914  0.00  0.00    +0.000 OA
ATOM     27  H   UNL     1      -2.877  13.790  19.681  0.00  0.00    +0.000 HD
BRANCH  25  28
ATOM     28  C   UNL     1      -4.642  14.308  21.233  0.00  0.00    +0.000 A 
ATOM     29  N   UNL     1      -5.305  15.193  20.467  0.00  0.00    +0.000 NA
ATOM     30  S   UNL     1      -5.531  16.604  21.272  0.00  0.00    +0.000 S 
ATOM     31  C   UNL     1      -4.750  16.153  22.725  0.00  0.00    +0.000 A 
ATOM     32  C   UNL     1      -4.609  16.930  23.902  0.00  0.00    +0.000 A 
ATOM     33  C   UNL     1      -3.901  16.414  24.981  0.00  0.00    +0.000 A 
ATOM     34  C   UNL     1      -3.350  15.145  24.874  0.00  0.00    +0.000 A 
ATOM     35  C   UNL     1      -3.516  14.357  23.702  0.00  0.00    +0.000 A 
ATOM     36  C   UNL     1      -4.246  14.849  22.574  0.00  0.00    +0.000 A 
ENDBRANCH  25  28
ENDBRANCH   6  24
TORSDOF 8
ENDMDL
MODEL 3
REMARK VINA RESULT:      -7.7      2.596      4.022
REMARK  Name = 
REMARK  11 active torsions:
REMARK  status: ('A' for Active; 'I' for Inactive)
REMARK    1  A    between atoms: C_1  and  C_2
REMARK    2  A    between atoms: C_2  and  O_3
REMARK    3  A    between atoms: O_3  and  C_4
REMARK    4  A    between atoms: C_6  and  C_7
REMARK    5  A    between atoms: C_7  and  N_8
REMARK    6  A    between atoms: C_9  and  C_11
REMARK    7  A    between atoms: C_14  and  C_15
REMARK    8  A    between atoms: C_16  and  N_17
REMARK    9  A    between atoms: C_18  and  C_20
REMARK   10  A    between atoms: C_32  and  O_33
REMARK   11  A    between atoms: O_33  and  C_34
REMARK                            x       y       z     vdW  Elec       q    Type
REMARK                         _______ _______ _______ _____ _____    ______ ____
ROOT
ATOM      1  C   UNL     1       0.801   9.973  19.336  0.00  0.00    +0.000 A 
ATOM      2  C   UNL     1       1.263  10.037  20.648  0.00  0.00    +0.000 A 
ATOM      3  C   UNL     1       0.431  10.575  21.621  0.00  0.00    +0.000 A 
ATOM      4  C   UNL     1      -0.874  11.075  21.328  0.00  0.00    +0.000 A 
ATOM      5  C   UNL     1      -1.582  11.671  22.505  0.00  0.00    +0.000 C 
ATOM      6  C   UNL     1      -1.380  11.009  20.014  0.00  0.00    +0.000 A 
ATOM      7  C   UNL     1      -0.507  10.432  19.033  0.00  0.00    +0.000 A 
ENDROOT
BRANCH   1   9
ATOM      8  N   UNL     1       2.285   8.190  18.573  0.00  0.00    +0.000 N 
ATOM      9  C   UNL     1       1.774   9.439  18.324  0.00  0.00    +0.000 C 
ATOM     10  O   UNL     1       2.095  10.128  17.361  0.00  0.00    +0.000 OA
ATOM     11  H   UNL     1       2.081   7.728  19.446  0.00  0.00    +0.000 HD
BRANCH   8  12
ATOM     12  C   UNL     1       3.274   7.575  17.712  0.00  0.00    +0.000 C 
BRANCH  12  15
ATOM     13  C   UNL     1       2.146   4.040  18.628  0.00  0.00    +0.000 A 
ATOM     14  C   UNL     1       2.322   5.437  18.649  0.00  0.00    +0.000 A 
ATOM     15  C   UNL     1       3.290   6.074  17.859  0.00  0.00    +0.000 A 
ATOM     16  C   UNL     1       4.181   5.286  17.136  0.00  0.00    +0.000 A 
ATOM     17  C   UNL     1       4.072   3.895  17.178  0.00  0.00    +0.000 A 
ATOM     18  C   UNL     1       3.048   3.256  17.895  0.00  0.00    +0.000 A 
BRANCH  18  19
ATOM     19  O   UNL     1       3.095   1.898  17.731  0.00  0.00    +0.000 OA
ATOM     20  C   UNL     1       3.882   1.114  18.610  0.00  0.00    +0.000 C 
ENDBRANCH  18  19
BRANCH  13  21
ATOM     21  O   UNL     1       1.100   3.445  19.293  0.00  0.00    +0.000 OA
BRANCH  21  23
ATOM     22  C   UNL     1       1.755   2.829  21.529  0.00  0.00    +0.000 C 
ATOM     23  C   UNL     1       0.978   3.810  20.675  0.00  0.00    +0.000 C 
ENDBRANCH  21  23
ENDBRANCH  13  21
ENDBRANCH  12  15
ENDBRANCH   8  12
ENDBRANCH   1   9
BRANCH   6  24
ATOM     24  N   UNL     1      -2.674  11.442  19.528  0.00  0.00    +0.000 N 
ATOM     25  C   UNL     1      -3.251  11.672  18.255  0.00  0.00    +0.000 C 
ATOM     26  O   UNL     1      -2.712  11.482  17.166  0.00  0.00    +0.000 OA
ATOM     27  H   UNL     1      -3.357  11.626  20.261  0.00  0.00    +0.000 HD
BRANCH  25  28
ATOM     28  C   UNL     1      -4.676  12.197  18.330  0.00  0.00    +0.000 A 
ATOM     29  N   UNL     1      -5.361  12.164  17.174  0.00  0.00    +0.000 NA
ATOM     30  S   UNL     1      -6.902  12.677  17.397  0.00  0.00    +0.000 S 
ATOM     31  C   UNL     1      -6.785  12.997  19.072  0.00  0.00    +0.000 A 
ATOM     32  C   UNL     1      -7.813  13.456  19.934  0.00  0.00    +0.000 A 
ATOM     33  C   UNL     1      -7.525  13.704  21.270  0.00  0.00    +0.000 A 
ATOM     34  C   UNL     1      -6.231  13.494  21.725  0.00  0.00    +0.000 A 
ATOM     35  C   UNL     1      -5.207  13.009  20.865  0.00  0.00    +0.000 A 
ATOM     36  C   UNL     1      -5.468  12.732  19.485  0.00  0.00    +0.000 A 
ENDBRANCH  25  28
ENDBRANCH   6  24
TORSDOF 8
ENDMDL
MODEL 4
REMARK VINA RESULT:      -7.7      2.875      4.013
REMARK  Name = 
REMARK  11 active torsions:
REMARK  status: ('A' for Active; 'I' for Inactive)
REMARK    1  A    between atoms: C_1  and  C_2
REMARK    2  A    between atoms: C_2  and  O_3
REMARK    3  A    between atoms: O_3  and  C_4
REMARK    4  A    between atoms: C_6  and  C_7
REMARK    5  A    between atoms: C_7  and  N_8
REMARK    6  A    between atoms: C_9  and  C_11
REMARK    7  A    between atoms: C_14  and  C_15
REMARK    8  A    between atoms: C_16  and  N_17
REMARK    9  A    between atoms: C_18  and  C_20
REMARK   10  A    between atoms: C_32  and  O_33
REMARK   11  A    between atoms: O_33  and  C_34
REMARK                            x       y       z     vdW  Elec       q    Type
REMARK                         _______ _______ _______ _____ _____    ______ ____
ROOT
ATOM      1  C   UNL     1       0.515   9.837  20.001  0.00  0.00    +0.000 A 
ATOM      2  C   UNL     1       1.573  10.680  19.672  0.00  0.00    +0.000 A 
ATOM      3  C   UNL     1       1.290  11.903  19.079  0.00  0.00    +0.000 A 
ATOM      4  C   UNL     1      -0.041  12.326  18.783  0.00  0.00    +0.000 A 
ATOM      5  C   UNL     1      -0.125  13.648  18.085  0.00  0.00    +0.000 C 
ATOM      6  C   UNL     1      -1.138  11.505  19.119  0.00  0.00    +0.000 A 
ATOM      7  C   UNL     1      -0.817  10.255  19.747  0.00  0.00    +0.000 A 
ENDROOT
BRANCH   1   9
ATOM      8  N   UNL     1       1.798   7.764  19.861  0.00  0.00    +0.000 N 
ATOM      9  C   UNL     1       0.894   8.504  20.581  0.00  0.00    +0.000 C 
ATOM     10  O   UNL     1       0.374   8.119  21.623  0.00  0.00    +0.000 OA
ATOM     11  H   UNL     1       2.091   8.077  18.948  0.00  0.00    +0.000 HD
BRANCH   8  12
ATOM     12  C   UNL     1       2.210   6.438  20.270  0.00  0.00    +0.000 C 
BRANCH  12  15
ATOM     13  C   UNL     1       5.213   4.786  18.578  0.00  0.00    +0.000 A 
ATOM     14  C   UNL     1       4.430   5.613  19.407  0.00  0.00    +0.000 A 
ATOM     15  C   UNL     1       3.049   5.759  19.216  0.00  0.00    +0.000 A 
ATOM     16  C   UNL     1       2.467   5.169  18.098  0.00  0.00    +0.000 A 
ATOM     17  C   UNL     1       3.250   4.420  17.219  0.00  0.00    +0.000 A 
ATOM     18  C   UNL     1       4.616   4.195  17.456  0.00  0.00    +0.000 A 
BRANCH  18  19
ATOM     19  O   UNL     1       5.160   3.375  16.505  0.00  0.00    +0.000 OA
ATOM     20  C   UNL     1       6.025   3.917  15.523  0.00  0.00    +0.000 C 
ENDBRANCH  18  19
BRANCH  13  21
ATOM     21  O   UNL     1       6.534   4.537  18.865  0.00  0.00    +0.000 OA
BRANCH  21  23
ATOM     22  C   UNL     1       7.662   6.505  18.051  0.00  0.00    +0.000 C 
ATOM     23  C   UNL     1       7.290   5.687  19.270  0.00  0.00    +0.000 C 
ENDBRANCH  21  23
ENDBRANCH  13  21
ENDBRANCH  12  15
ENDBRANCH   8  12
ENDBRANCH   1   9
BRANCH   6  24
ATOM     24  N   UNL     1      -2.548  11.765  18.919  0.00  0.00    +0.000 N 
ATOM     25  C   UNL     1      -3.585  11.182  18.151  0.00  0.00    +0.000 C 
ATOM     26  O   UNL     1      -3.493  10.181  17.442  0.00  0.00    +0.000 OA
ATOM     27  H   UNL     1      -2.909  12.551  19.457  0.00  0.00    +0.000 HD
BRANCH  25  28
ATOM     28  C   UNL     1      -4.908  11.921  18.273  0.00  0.00    +0.000 A 
ATOM     29  N   UNL     1      -5.532  12.177  17.110  0.00  0.00    +0.000 NA
ATOM     30  S   UNL     1      -6.979  12.903  17.374  0.00  0.00    +0.000 S 
ATOM     31  C   UNL     1      -6.894  12.942  19.081  0.00  0.00    +0.000 A 
ATOM     32  C   UNL     1      -7.875  13.432  19.980  0.00  0.00    +0.000 A 
ATOM     33  C   UNL     1      -7.616  13.424  21.345  0.00  0.00    +0.000 A 
ATOM     34  C   UNL     1      -6.397  12.935  21.792  0.00  0.00    +0.000 A 
ATOM     35  C   UNL     1      -5.425  12.420  20.890  0.00  0.00    +0.000 A 
ATOM     36  C   UNL     1      -5.659  12.401  19.479  0.00  0.00    +0.000 A 
ENDBRANCH  25  28
ENDBRANCH   6  24
TORSDOF 8
ENDMDL
MODEL 5
REMARK VINA RESULT:      -7.7      1.149      1.324
REMARK  Name = 
REMARK  11 active torsions:
REMARK  status: ('A' for Active; 'I' for Inactive)
REMARK    1  A    between atoms: C_1  and  C_2
REMARK    2  A    between atoms: C_2  and  O_3
REMARK    3  A    between atoms: O_3  and  C_4
REMARK    4  A    between atoms: C_6  and  C_7
REMARK    5  A    between atoms: C_7  and  N_8
REMARK    6  A    between atoms: C_9  and  C_11
REMARK    7  A    between atoms: C_14  and  C_15
REMARK    8  A    between atoms: C_16  and  N_17
REMARK    9  A    between atoms: C_18  and  C_20
REMARK   10  A    between atoms: C_32  and  O_33
REMARK   11  A    between atoms: O_33  and  C_34
REMARK                            x       y       z     vdW  Elec       q    Type
REMARK                         _______ _______ _______ _____ _____    ______ ____
ROOT
ATOM      1  C   UNL     1      -0.832  10.615  18.473  0.00  0.00    +0.000 A 
ATOM      2  C   UNL     1      -1.393   9.929  17.400  0.00  0.00    +0.000 A 
ATOM      3  C   UNL     1      -2.734  10.135  17.104  0.00  0.00    +0.000 A 
ATOM      4  C   UNL     1      -3.564  11.014  17.864  0.00  0.00    +0.000 A 
ATOM      5  C   UNL     1      -4.994  11.046  17.421  0.00  0.00    +0.000 C 
ATOM      6  C   UNL     1      -3.025  11.739  18.947  0.00  0.00    +0.000 A 
ATOM      7  C   UNL     1      -1.633  11.521  19.218  0.00  0.00    +0.000 A 
ENDROOT
BRANCH   1   9
ATOM      8  N   UNL     1       1.292   9.612  17.809  0.00  0.00    +0.000 N 
ATOM      9  C   UNL     1       0.604  10.299  18.777  0.00  0.00    +0.000 C 
ATOM     10  O   UNL     1       1.087  10.621  19.858  0.00  0.00    +0.000 OA
ATOM     11  H   UNL     1       0.805   9.264  16.997  0.00  0.00    +0.000 HD
BRANCH   8  12
ATOM     12  C   UNL     1       2.665   9.192  17.989  0.00  0.00    +0.000 C 
BRANCH  12  15
ATOM     13  C   UNL     1       4.327   5.799  17.409  0.00  0.00    +0.000 A 
ATOM     14  C   UNL     1       4.049   7.179  17.365  0.00  0.00    +0.000 A 
ATOM     15  C   UNL     1       2.825   7.702  17.808  0.00  0.00    +0.000 A 
ATOM     16  C   UNL     1       1.818   6.816  18.178  0.00  0.00    +0.000 A 
ATOM     17  C   UNL     1       2.053   5.441  18.140  0.00  0.00    +0.000 A 
ATOM     18  C   UNL     1       3.305   4.915  17.785  0.00  0.00    +0.000 A 
BRANCH  18  19
ATOM     19  O   UNL     1       3.323   3.551  17.891  0.00  0.00    +0.000 OA
ATOM     20  C   UNL     1       2.517   2.912  18.865  0.00  0.00    +0.000 C 
ENDBRANCH  18  19
BRANCH  13  21
ATOM     21  O   UNL     1       5.578   5.316  17.112  0.00  0.00    +0.000 OA
BRANCH  21  23
ATOM     22  C   UNL     1       7.515   6.329  18.128  0.00  0.00    +0.000 C 
ATOM     23  C   UNL     1       6.474   5.233  18.229  0.00  0.00    +0.000 C 
ENDBRANCH  21  23
ENDBRANCH  13  21
ENDBRANCH  12  15
ENDBRANCH   8  12
ENDBRANCH   1   9
BRANCH   6  24
ATOM     24  N   UNL     1      -3.694  12.684  19.816  0.00  0.00    +0.000 N 
ATOM     25  C   UNL     1      -4.874  12.678  20.600  0.00  0.00    +0.000 C 
ATOM     26  O   UNL     1      -5.641  11.729  20.754  0.00  0.00    +0.000 OA
ATOM     27  H   UNL     1      -3.216  13.579  19.909  0.00  0.00    +0.000 HD
BRANCH  25  28
ATOM     28  C   UNL     1      -5.142  14.007  21.288  0.00  0.00    +0.000 A 
ATOM     29  N   UNL     1      -6.064  14.785  20.694  0.00  0.00    +0.000 NA
ATOM     30  S   UNL     1      -6.324  16.148  21.568  0.00  0.00    +0.000 S 
ATOM     31  C   UNL     1      -5.213  15.817  22.824  0.00  0.00    +0.000 A 
ATOM     32  C   UNL     1      -4.951  16.607  23.971  0.00  0.00    +0.000 A 
ATOM     33  C   UNL     1      -3.976  16.201  24.874  0.00  0.00    +0.000 A 
ATOM     34  C   UNL     1      -3.282  15.026  24.624  0.00  0.00    +0.000 A 
ATOM     35  C   UNL     1      -3.564  14.220  23.486  0.00  0.00    +0.000 A 
ATOM     36  C   UNL     1      -4.568  14.600  22.539  0.00  0.00    +0.000 A 
ENDBRANCH  25  28
ENDBRANCH   6  24
TORSDOF 8
ENDMDL
MODEL 6
REMARK VINA RESULT:      -7.7      5.933      9.857
REMARK  Name = 
REMARK  11 active torsions:
REMARK  status: ('A' for Active; 'I' for Inactive)
REMARK    1  A    between atoms: C_1  and  C_2
REMARK    2  A    between atoms: C_2  and  O_3
REMARK    3  A    between atoms: O_3  and  C_4
REMARK    4  A    between atoms: C_6  and  C_7
REMARK    5  A    between atoms: C_7  and  N_8
REMARK    6  A    between atoms: C_9  and  C_11
REMARK    7  A    between atoms: C_14  and  C_15
REMARK    8  A    between atoms: C_16  and  N_17
REMARK    9  A    between atoms: C_18  and  C_20
REMARK   10  A    between atoms: C_32  and  O_33
REMARK   11  A    between atoms: O_33  and  C_34
REMARK                            x       y       z     vdW  Elec       q    Type
REMARK                         _______ _______ _______ _____ _____    ______ ____
ROOT
ATOM      1  C   UNL     1       1.426  13.294  18.559  0.00  0.00    +0.000 A 
ATOM      2  C   UNL     1       0.074  13.621  18.509  0.00  0.00    +0.000 A 
ATOM      3  C   UNL     1      -0.860  12.593  18.507  0.00  0.00    +0.000 A 
ATOM      4  C   UNL     1      -0.489  11.215  18.542  0.00  0.00    +0.000 A 
ATOM      5  C   UNL     1      -1.644  10.265  18.467  0.00  0.00    +0.000 C 
ATOM      6  C   UNL     1       0.871  10.848  18.611  0.00  0.00    +0.000 A 
ATOM      7  C   UNL     1       1.813  11.930  18.631  0.00  0.00    +0.000 A 
ENDROOT
BRANCH   1   9
ATOM      8  N   UNL     1       3.531  14.247  17.771  0.00  0.00    +0.000 N 
ATOM      9  C   UNL     1       2.383  14.449  18.495  0.00  0.00    +0.000 C 
ATOM     10  O   UNL     1       2.133  15.487  19.101  0.00  0.00    +0.000 OA
ATOM     11  H   UNL     1       3.739  13.331  17.404  0.00  0.00    +0.000 HD
BRANCH   8  12
ATOM     12  C   UNL     1       4.568  15.253  17.670  0.00  0.00    +0.000 C 
BRANCH  12  15
ATOM     13  C   UNL     1       8.167  14.398  18.629  0.00  0.00    +0.000 A 
ATOM     14  C   UNL     1       6.960  14.496  17.910  0.00  0.00    +0.000 A 
ATOM     15  C   UNL     1       5.767  14.911  18.519  0.00  0.00    +0.000 A 
ATOM     16  C   UNL     1       5.756  15.104  19.897  0.00  0.00    +0.000 A 
ATOM     17  C   UNL     1       6.927  14.922  20.635  0.00  0.00    +0.000 A 
ATOM     18  C   UNL     1       8.145  14.597  20.017  0.00  0.00    +0.000 A 
BRANCH  18  19
ATOM     19  O   UNL     1       9.168  14.543  20.925  0.00  0.00    +0.000 OA
ATOM     20  C   UNL     1       9.336  13.385  21.723  0.00  0.00    +0.000 C 
ENDBRANCH  18  19
BRANCH  13  21
ATOM     21  O   UNL     1       9.356  14.133  17.992  0.00  0.00    +0.000 OA
BRANCH  21  23
ATOM     22  C   UNL     1      11.511  15.155  18.339  0.00  0.00    +0.000 C 
ATOM     23  C   UNL     1      10.149  15.291  17.691  0.00  0.00    +0.000 C 
ENDBRANCH  21  23
ENDBRANCH  13  21
ENDBRANCH  12  15
ENDBRANCH   8  12
ENDBRANCH   1   9
BRANCH   6  24
ATOM     24  N   UNL     1       1.440   9.518  18.674  0.00  0.00    +0.000 N 
ATOM     25  C   UNL     1       1.581   8.524  19.673  0.00  0.00    +0.000 C 
ATOM     26  O   UNL     1       1.152   8.583  20.824  0.00  0.00    +0.000 OA
ATOM     27  H   UNL     1       1.838   9.190  17.795  0.00  0.00    +0.000 HD
BRANCH  25  28
ATOM     28  C   UNL     1       2.341   7.298  19.194  0.00  0.00    +0.000 A 
ATOM     29  N   UNL     1       3.116   7.489  18.112  0.00  0.00    +0.000 NA
ATOM     30  S   UNL     1       3.943   6.122  17.740  0.00  0.00    +0.000 S 
ATOM     31  C   UNL     1       3.328   5.146  19.001  0.00  0.00    +0.000 A 
ATOM     32  C   UNL     1       3.668   3.800  19.291  0.00  0.00    +0.000 A 
ATOM     33  C   UNL     1       3.032   3.145  20.338  0.00  0.00    +0.000 A 
ATOM     34  C   UNL     1       2.076   3.831  21.075  0.00  0.00    +0.000 A 
ATOM     35  C   UNL     1       1.755   5.189  20.799  0.00  0.00    +0.000 A 
ATOM     36  C   UNL     1       2.396   5.901  19.735  0.00  0.00    +0.000 A 
ENDBRANCH  25  28
ENDBRANCH   6  24
TORSDOF 8
ENDMDL
MODEL 7
REMARK VINA RESULT:      -7.7      2.008      2.436
REMARK  Name = 
REMARK  11 active torsions:
REMARK  status: ('A' for Active; 'I' for Inactive)
REMARK    1  A    between atoms: C_1  and  C_2
REMARK    2  A    between atoms: C_2  and  O_3
REMARK    3  A    between atoms: O_3  and  C_4
REMARK    4  A    between atoms: C_6  and  C_7
REMARK    5  A    between atoms: C_7  and  N_8
REMARK    6  A    between atoms: C_9  and  C_11
REMARK    7  A    between atoms: C_14  and  C_15
REMARK    8  A    between atoms: C_16  and  N_17
REMARK    9  A    between atoms: C_18  and  C_20
REMARK   10  A    between atoms: C_32  and  O_33
REMARK   11  A    between atoms: O_33  and  C_34
REMARK                            x       y       z     vdW  Elec       q    Type
REMARK                         _______ _______ _______ _____ _____    ______ ____
ROOT
ATOM      1  C   UNL     1      -0.245  10.064  18.650  0.00  0.00    +0.000 A 
ATOM      2  C   UNL     1      -0.782   9.698  17.419  0.00  0.00    +0.000 A 
ATOM      3  C   UNL     1      -2.036  10.181  17.070  0.00  0.00    +0.000 A 
ATOM      4  C   UNL     1      -2.802  11.028  17.927  0.00  0.00    +0.000 A 
ATOM      5  C   UNL     1      -4.154  11.385  17.391  0.00  0.00    +0.000 C 
ATOM      6  C   UNL     1      -2.281  11.433  19.173  0.00  0.00    +0.000 A 
ATOM      7  C   UNL     1      -0.976  10.934  19.500  0.00  0.00    +0.000 A 
ENDROOT
BRANCH   1   9
ATOM      8  N   UNL     1       1.781   8.893  17.952  0.00  0.00    +0.000 N 
ATOM      9  C   UNL     1       1.085   9.456  18.992  0.00  0.00    +0.000 C 
ATOM     10  O   UNL     1       1.475   9.452  20.156  0.00  0.00    +0.000 OA
ATOM     11  H   UNL     1       1.350   8.814  17.044  0.00  0.00    +0.000 HD
BRANCH   8  12
ATOM     12  C   UNL     1       3.049   8.222  18.146  0.00  0.00    +0.000 C 
BRANCH  12  15
ATOM     13  C   UNL     1       4.136   4.697  17.148  0.00  0.00    +0.000 A 
ATOM     14  C   UNL     1       4.078   6.100  17.258  0.00  0.00    +0.000 A 
ATOM     15  C   UNL     1       2.966   6.755  17.807  0.00  0.00    +0.000 A 
ATOM     16  C   UNL     1       1.843   6.000  18.130  0.00  0.00    +0.000 A 
ATOM     17  C   UNL     1       1.856   4.617  17.941  0.00  0.00    +0.000 A 
ATOM     18  C   UNL     1       2.999   3.946  17.478  0.00  0.00    +0.000 A 
BRANCH  18  19
ATOM     19  O   UNL     1       2.804   2.592  17.443  0.00  0.00    +0.000 OA
ATOM     20  C   UNL     1       3.035   1.820  18.608  0.00  0.00    +0.000 C 
ENDBRANCH  18  19
BRANCH  13  21
ATOM     21  O   UNL     1       5.286   4.061  16.746  0.00  0.00    +0.000 OA
BRANCH  21  23
ATOM     22  C   UNL     1       5.904   4.128  14.417  0.00  0.00    +0.000 C 
ATOM     23  C   UNL     1       6.064   4.778  15.776  0.00  0.00    +0.000 C 
ENDBRANCH  21  23
ENDBRANCH  13  21
ENDBRANCH  12  15
ENDBRANCH   8  12
ENDBRANCH   1   9
BRANCH   6  24
ATOM     24  N   UNL     1      -2.890  12.296  20.163  0.00  0.00    +0.000 N 
ATOM     25  C   UNL     1      -2.638  13.597  20.664  0.00  0.00    +0.000 C 
ATOM     26  O   UNL     1      -1.765  14.371  20.275  0.00  0.00    +0.000 OA
ATOM     27  H   UNL     1      -3.707  11.896  20.622  0.00  0.00    +0.000 HD
BRANCH  25  28
ATOM     28  C   UNL     1      -3.586  14.002  21.782  0.00  0.00    +0.000 A 
ATOM     29  N   UNL     1      -3.099  14.911  22.645  0.00  0.00    +0.000 NA
ATOM     30  S   UNL     1      -4.235  15.326  23.753  0.00  0.00    +0.000 S 
ATOM     31  C   UNL     1      -5.484  14.313  23.175  0.00  0.00    +0.000 A 
ATOM     32  C   UNL     1      -6.804  14.200  23.681  0.00  0.00    +0.000 A 
ATOM     33  C   UNL     1      -7.680  13.286  23.108  0.00  0.00    +0.000 A 
ATOM     34  C   UNL     1      -7.235  12.506  22.050  0.00  0.00    +0.000 A 
ATOM     35  C   UNL     1      -5.919  12.639  21.527  0.00  0.00    +0.000 A 
ATOM     36  C   UNL     1      -4.991  13.575  22.084  0.00  0.00    +0.000 A 
ENDBRANCH  25  28
ENDBRANCH   6  24
TORSDOF 8
ENDMDL
MODEL 8
REMARK VINA RESULT:      -7.7      0.991      2.181
REMARK  Name = 
REMARK  11 active torsions:
REMARK  status: ('A' for Active; 'I' for Inactive)
REMARK    1  A    between atoms: C_1  and  C_2
REMARK    2  A    between atoms: C_2  and  O_3
REMARK    3  A    between atoms: O_3  and  C_4
REMARK    4  A    between atoms: C_6  and  C_7
REMARK    5  A    between atoms: C_7  and  N_8
REMARK    6  A    between atoms: C_9  and  C_11
REMARK    7  A    between atoms: C_14  and  C_15
REMARK    8  A    between atoms: C_16  and  N_17
REMARK    9  A    between atoms: C_18  and  C_20
REMARK   10  A    between atoms: C_32  and  O_33
REMARK   11  A    between atoms: O_33  and  C_34
REMARK                            x       y       z     vdW  Elec       q    Type
REMARK                         _______ _______ _______ _____ _____    ______ ____
ROOT
ATOM      1  C   UNL     1      -0.821  10.507  18.647  0.00  0.00    +0.000 A 
ATOM      2  C   UNL     1      -1.418   9.929  17.531  0.00  0.00    +0.000 A 
ATOM      3  C   UNL     1      -2.686  10.354  17.158  0.00  0.00    +0.000 A 
ATOM      4  C   UNL     1      -3.407  11.353  17.880  0.00  0.00    +0.000 A 
ATOM      5  C   UNL     1      -4.782  11.622  17.351  0.00  0.00    +0.000 C 
ATOM      6  C   UNL     1      -2.825  11.973  19.005  0.00  0.00    +0.000 A 
ATOM      7  C   UNL     1      -1.508  11.527  19.356  0.00  0.00    +0.000 A 
ENDROOT
BRANCH   1   9
ATOM      8  N   UNL     1       0.527   9.002  20.018  0.00  0.00    +0.000 N 
ATOM      9  C   UNL     1       0.522   9.957  19.032  0.00  0.00    +0.000 C 
ATOM     10  O   UNL     1       1.538  10.391  18.498  0.00  0.00    +0.000 OA
ATOM     11  H   UNL     1      -0.327   8.781  20.507  0.00  0.00    +0.000 HD
BRANCH   8  12
ATOM     12  C   UNL     1       1.753   8.425  20.528  0.00  0.00    +0.000 C 
BRANCH  12  15
ATOM     13  C   UNL     1       1.661   4.758  19.455  0.00  0.00    +0.000 A 
ATOM     14  C   UNL     1       1.549   5.931  20.226  0.00  0.00    +0.000 A 
ATOM     15  C   UNL     1       2.113   7.147  19.812  0.00  0.00    +0.000 A 
ATOM     16  C   UNL     1       2.910   7.156  18.672  0.00  0.00    +0.000 A 
ATOM     17  C   UNL     1       3.102   5.978  17.948  0.00  0.00    +0.000 A 
ATOM     18  C   UNL     1       2.466   4.780  18.306  0.00  0.00    +0.000 A 
BRANCH  18  19
ATOM     19  O   UNL     1       2.740   3.780  17.412  0.00  0.00    +0.000 OA
ATOM     20  C   UNL     1       3.940   3.038  17.537  0.00  0.00    +0.000 C 
ENDBRANCH  18  19
BRANCH  13  21
ATOM     21  O   UNL     1       0.982   3.614  19.797  0.00  0.00    +0.000 OA
BRANCH  21  23
ATOM     22  C   UNL     1       2.029   2.914  21.852  0.00  0.00    +0.000 C 
ATOM     23  C   UNL     1       1.790   2.588  20.392  0.00  0.00    +0.000 C 
ENDBRANCH  21  23
ENDBRANCH  13  21
ENDBRANCH  12  15
ENDBRANCH   8  12
ENDBRANCH   1   9
BRANCH   6  24
ATOM     24  N   UNL     1      -3.384  13.010  19.847  0.00  0.00    +0.000 N 
ATOM     25  C   UNL     1      -4.396  13.075  20.835  0.00  0.00    +0.000 C 
ATOM     26  O   UNL     1      -5.058  12.130  21.264  0.00  0.00    +0.000 OA
ATOM     27  H   UNL     1      -2.957  13.927  19.722  0.00  0.00    +0.000 HD
BRANCH  25  28
ATOM     28  C   UNL     1      -4.620  14.480  21.372  0.00  0.00    +0.000 A 
ATOM     29  N   UNL     1      -5.269  15.315  20.541  0.00  0.00    +0.000 NA
ATOM     30  S   UNL     1      -5.520  16.768  21.257  0.00  0.00    +0.000 S 
ATOM     31  C   UNL     1      -4.773  16.406  22.752  0.00  0.00    +0.000 A 
ATOM     32  C   UNL     1      -4.664  17.251  23.885  0.00  0.00    +0.000 A 
ATOM     33  C   UNL     1      -3.980  16.802  25.008  0.00  0.00    +0.000 A 
ATOM     34  C   UNL     1      -3.420  15.533  24.988  0.00  0.00    +0.000 A 
ATOM     35  C   UNL     1      -3.554  14.677  23.860  0.00  0.00    +0.000 A 
ATOM     36  C   UNL     1      -4.259  15.099  22.688  0.00  0.00    +0.000 A 
ENDBRANCH  25  28
ENDBRANCH   6  24
TORSDOF 8
ENDMDL
MODEL 9
REMARK VINA RESULT:      -7.6      3.236      4.288
REMARK  Name = 
REMARK  11 active torsions:
REMARK  status: ('A' for Active; 'I' for Inactive)
REMARK    1  A    between atoms: C_1  and  C_2
REMARK    2  A    between atoms: C_2  and  O_3
REMARK    3  A    between atoms: O_3  and  C_4
REMARK    4  A    between atoms: C_6  and  C_7
REMARK    5  A    between atoms: C_7  and  N_8
REMARK    6  A    between atoms: C_9  and  C_11
REMARK    7  A    between atoms: C_14  and  C_15
REMARK    8  A    between atoms: C_16  and  N_17
REMARK    9  A    between atoms: C_18  and  C_20
REMARK   10  A    between atoms: C_32  and  O_33
REMARK   11  A    between atoms: O_33  and  C_34
REMARK                            x       y       z     vdW  Elec       q    Type
REMARK                         _______ _______ _______ _____ _____    ______ ____
ROOT
ATOM      1  C   UNL     1       0.913   9.747  19.597  0.00  0.00    +0.000 A 
ATOM      2  C   UNL     1       0.657   8.854  20.634  0.00  0.00    +0.000 A 
ATOM      3  C   UNL     1      -0.060   9.301  21.736  0.00  0.00    +0.000 A 
ATOM      4  C   UNL     1      -0.537  10.642  21.853  0.00  0.00    +0.000 A 
ATOM      5  C   UNL     1      -1.231  10.937  23.147  0.00  0.00    +0.000 C 
ATOM      6  C   UNL     1      -0.311  11.568  20.814  0.00  0.00    +0.000 A 
ATOM      7  C   UNL     1       0.416  11.074  19.680  0.00  0.00    +0.000 A 
ENDROOT
BRANCH   1   9
ATOM      8  N   UNL     1       2.444   8.062  18.715  0.00  0.00    +0.000 N 
ATOM      9  C   UNL     1       1.747   9.218  18.467  0.00  0.00    +0.000 C 
ATOM     10  O   UNL     1       1.805   9.835  17.407  0.00  0.00    +0.000 OA
ATOM     11  H   UNL     1       2.457   7.673  19.646  0.00  0.00    +0.000 HD
BRANCH   8  12
ATOM     12  C   UNL     1       3.331   7.470  17.737  0.00  0.00    +0.000 C 
BRANCH  12  15
ATOM     13  C   UNL     1       2.133   3.847  17.953  0.00  0.00    +0.000 A 
ATOM     14  C   UNL     1       2.188   5.249  18.075  0.00  0.00    +0.000 A 
ATOM     15  C   UNL     1       3.373   5.966  17.853  0.00  0.00    +0.000 A 
ATOM     16  C   UNL     1       4.549   5.256  17.634  0.00  0.00    +0.000 A 
ATOM     17  C   UNL     1       4.523   3.860  17.600  0.00  0.00    +0.000 A 
ATOM     18  C   UNL     1       3.325   3.141  17.730  0.00  0.00    +0.000 A 
BRANCH  18  19
ATOM     19  O   UNL     1       3.531   1.795  17.590  0.00  0.00    +0.000 OA
ATOM     20  C   UNL     1       4.013   1.043  18.689  0.00  0.00    +0.000 C 
ENDBRANCH  18  19
BRANCH  13  21
ATOM     21  O   UNL     1       0.938   3.172  18.028  0.00  0.00    +0.000 OA
BRANCH  21  23
ATOM     22  C   UNL     1       0.918   3.413  20.426  0.00  0.00    +0.000 C 
ATOM     23  C   UNL     1       0.720   2.468  19.259  0.00  0.00    +0.000 C 
ENDBRANCH  21  23
ENDBRANCH  13  21
ENDBRANCH  12  15
ENDBRANCH   8  12
ENDBRANCH   1   9
BRANCH   6  24
ATOM     24  N   UNL     1      -0.728  12.952  20.739  0.00  0.00    +0.000 N 
ATOM     25  C   UNL     1      -1.952  13.630  20.520  0.00  0.00    +0.000 C 
ATOM     26  O   UNL     1      -3.057  13.109  20.375  0.00  0.00    +0.000 OA
ATOM     27  H   UNL     1       0.024  13.625  20.883  0.00  0.00    +0.000 HD
BRANCH  25  28
ATOM     28  C   UNL     1      -1.801  15.142  20.480  0.00  0.00    +0.000 A 
ATOM     29  N   UNL     1      -2.691  15.828  21.219  0.00  0.00    +0.000 NA
ATOM     30  S   UNL     1      -2.378  17.437  21.159  0.00  0.00    +0.000 S 
ATOM     31  C   UNL     1      -1.018  17.357  20.128  0.00  0.00    +0.000 A 
ATOM     32  C   UNL     1      -0.212  18.435  19.681  0.00  0.00    +0.000 A 
ATOM     33  C   UNL     1       0.836  18.187  18.804  0.00  0.00    +0.000 A 
ATOM     34  C   UNL     1       1.067  16.883  18.388  0.00  0.00    +0.000 A 
ATOM     35  C   UNL     1       0.274  15.800  18.858  0.00  0.00    +0.000 A 
ATOM     36  C   UNL     1      -0.808  16.013  19.769  0.00  0.00    +0.000 A 
ENDBRANCH  25  28
ENDBRANCH   6  24
TORSDOF 8
ENDMDL
