MODEL 1
REMARK VINA RESULT:      -9.2      0.000      0.000
REMARK  Name = 
REMARK  10 active torsions:
REMARK  status: ('A' for Active; 'I' for Inactive)
REMARK    1  A    between atoms: C_1  and  C_2
REMARK    2  A    between atoms: C_2  and  C_3
REMARK    3  A    between atoms: C_6  and  N_7
REMARK    4  A    between atoms: N_7  and  S_8
REMARK    5  A    between atoms: S_8  and  C_11
REMARK    6  A    between atoms: C_17  and  C_18
REMARK    7  A    between atoms: N_20  and  C_21
REMARK    8  A    between atoms: C_21  and  C_22
REMARK    9  A    between atoms: C_22  and  C_23
REMARK   10  A    between atoms: C_27  and  C_28
REMARK                            x       y       z     vdW  Elec       q    Type
REMARK                         _______ _______ _______ _____ _____    ______ ____
ROOT
ATOM      1  C   UNL     1       2.264   7.507  19.176  0.00  0.00    +0.000 A 
ATOM      2  C   UNL     1       2.235   8.215  17.971  0.00  0.00    +0.000 A 
ATOM      3  C   UNL     1       1.688   9.495  17.943  0.00  0.00    +0.000 A 
ATOM      4  C   UNL     1       1.137  10.058  19.104  0.00  0.00    +0.000 A 
ATOM      5  N   UNL     1       0.545  11.323  19.039  0.00  0.00    +0.000 N 
ATOM      6  C   UNL     1      -0.115  11.838  20.120  0.00  0.00    +0.000 A 
ATOM      7  C   UNL     1      -0.125  11.335  21.366  0.00  0.00    +0.000 A 
ATOM      8  C   UNL     1       0.640  10.060  21.569  0.00  0.00    +0.000 A 
ATOM      9  O   UNL     1       0.805   9.582  22.688  0.00  0.00    +0.000 OA
ATOM     10  C   UNL     1       1.212   9.375  20.335  0.00  0.00    +0.000 A 
ATOM     11  C   UNL     1       1.769   8.083  20.365  0.00  0.00    +0.000 A 
ATOM     12  H   UNL     1       0.322  11.708  18.126  0.00  0.00    +0.000 HD
ENDROOT
BRANCH   7  13
ATOM     13  C   UNL     1      -0.891  12.155  22.366  0.00  0.00    +0.000 C 
ATOM     14  O   UNL     1      -0.346  13.094  22.949  0.00  0.00    +0.000 OA
ATOM     15  N   UNL     1      -2.191  11.822  22.639  0.00  0.00    +0.000 N 
ATOM     16  H   UNL     1      -2.592  11.004  22.186  0.00  0.00    +0.000 HD
BRANCH  15  17
ATOM     17  C   UNL     1      -2.937  12.471  23.722  0.00  0.00    +0.000 C 
BRANCH  17  18
ATOM     18  C   UNL     1      -3.940  13.570  23.317  0.00  0.00    +0.000 C 
BRANCH  18  19
ATOM     19  C   UNL     1      -5.331  13.064  23.026  0.00  0.00    +0.000 A 
ATOM     20  C   UNL     1      -6.275  12.878  24.045  0.00  0.00    +0.000 A 
ATOM     21  C   UNL     1      -7.544  12.376  23.746  0.00  0.00    +0.000 A 
ATOM     22  C   UNL     1      -7.878  12.051  22.430  0.00  0.00    +0.000 A 
ATOM     23  C   UNL     1      -6.952  12.242  21.401  0.00  0.00    +0.000 A 
ATOM     24  C   UNL     1      -7.282  11.903  19.979  0.00  0.00    +0.000 C 
ATOM     25  C   UNL     1      -5.689  12.760  21.707  0.00  0.00    +0.000 A 
ENDBRANCH  18  19
ENDBRANCH  17  18
ENDBRANCH  15  17
ENDBRANCH   7  13
BRANCH   1  26
ATOM     26  S   UNL     1       2.758   5.786  19.127  0.00  0.00    +0.000 S 
ATOM     27  O   UNL     1       2.198   5.221  17.912  0.00  0.00    +0.000 OA
ATOM     28  O   UNL     1       2.468   5.206  20.412  0.00  0.00    +0.000 OA
BRANCH  26  29
ATOM     29  N   UNL     1       4.428   5.792  18.891  0.00  0.00    +0.000 N 
ATOM     30  H   UNL     1       4.961   5.543  19.722  0.00  0.00    +0.000 HD
BRANCH  29  34
ATOM     31  C   UNL     1       5.832   4.621  15.098  0.00  0.00    +0.000 A 
ATOM     32  C   UNL     1       5.493   5.962  15.336  0.00  0.00    +0.000 A 
ATOM     33  C   UNL     1       5.038   6.364  16.594  0.00  0.00    +0.000 A 
ATOM     34  C   UNL     1       4.955   5.433  17.627  0.00  0.00    +0.000 A 
ATOM     35  C   UNL     1       5.326   4.108  17.413  0.00  0.00    +0.000 A 
ATOM     36  C   UNL     1       5.759   3.702  16.154  0.00  0.00    +0.000 A 
BRANCH  31  38
ATOM     37  C   UNL     1       5.105   3.547  12.934  0.00  0.00    +0.000 C 
ATOM     38  C   UNL     1       6.250   4.161  13.724  0.00  0.00    +0.000 C 
ENDBRANCH  31  38
ENDBRANCH  29  34
ENDBRANCH  26  29
ENDBRANCH   1  26
TORSDOF 8
ENDMDL
MODEL 2
REMARK VINA RESULT:      -9.1      3.344      4.961
REMARK  Name = 
REMARK  10 active torsions:
REMARK  status: ('A' for Active; 'I' for Inactive)
REMARK    1  A    between atoms: C_1  and  C_2
REMARK    2  A    between atoms: C_2  and  C_3
REMARK    3  A    between atoms: C_6  and  N_7
REMARK    4  A    between atoms: N_7  and  S_8
REMARK    5  A    between atoms: S_8  and  C_11
REMARK    6  A    between atoms: C_17  and  C_18
REMARK    7  A    between atoms: N_20  and  C_21
REMARK    8  A    between atoms: C_21  and  C_22
REMARK    9  A    between atoms: C_22  and  C_23
REMARK   10  A    between atoms: C_27  and  C_28
REMARK                            x       y       z     vdW  Elec       q    Type
REMARK                         _______ _______ _______ _____ _____    ______ ____
ROOT
ATOM      1  C   UNL     1       3.930   4.829  17.849  0.00  0.00    +0.000 A 
ATOM      2  C   UNL     1       3.730   4.208  19.085  0.00  0.00    +0.000 A 
ATOM      3  C   UNL     1       3.021   4.877  20.080  0.00  0.00    +0.000 A 
ATOM      4  C   UNL     1       2.542   6.177  19.859  0.00  0.00    +0.000 A 
ATOM      5  N   UNL     1       1.879   6.848  20.892  0.00  0.00    +0.000 N 
ATOM      6  C   UNL     1       1.520   8.160  20.750  0.00  0.00    +0.000 A 
ATOM      7  C   UNL     1       1.567   8.885  19.618  0.00  0.00    +0.000 A 
ATOM      8  C   UNL     1       2.105   8.182  18.406  0.00  0.00    +0.000 A 
ATOM      9  O   UNL     1       2.074   8.705  17.296  0.00  0.00    +0.000 OA
ATOM     10  C   UNL     1       2.690   6.789  18.599  0.00  0.00    +0.000 A 
ATOM     11  C   UNL     1       3.402   6.113  17.591  0.00  0.00    +0.000 A 
ATOM     12  H   UNL     1       1.956   6.482  21.835  0.00  0.00    +0.000 HD
ENDROOT
BRANCH   7  13
ATOM     13  C   UNL     1       1.047  10.288  19.753  0.00  0.00    +0.000 C 
ATOM     14  O   UNL     1       0.971  10.820  20.863  0.00  0.00    +0.000 OA
ATOM     15  N   UNL     1       0.632  10.952  18.630  0.00  0.00    +0.000 N 
ATOM     16  H   UNL     1       0.649  10.463  17.738  0.00  0.00    +0.000 HD
BRANCH  15  17
ATOM     17  C   UNL     1      -0.041  12.253  18.712  0.00  0.00    +0.000 C 
BRANCH  17  18
ATOM     18  C   UNL     1      -1.420  12.281  19.402  0.00  0.00    +0.000 C 
BRANCH  18  19
ATOM     19  C   UNL     1      -2.571  11.901  18.504  0.00  0.00    +0.000 A 
ATOM     20  C   UNL     1      -3.902  12.018  18.924  0.00  0.00    +0.000 A 
ATOM     21  C   UNL     1      -4.943  11.626  18.079  0.00  0.00    +0.000 A 
ATOM     22  C   UNL     1      -4.664  11.109  16.813  0.00  0.00    +0.000 A 
ATOM     23  C   UNL     1      -3.341  10.998  16.375  0.00  0.00    +0.000 A 
ATOM     24  C   UNL     1      -3.010  10.448  15.021  0.00  0.00    +0.000 C 
ATOM     25  C   UNL     1      -2.305  11.407  17.221  0.00  0.00    +0.000 A 
ENDBRANCH  18  19
ENDBRANCH  17  18
ENDBRANCH  15  17
ENDBRANCH   7  13
BRANCH   1  26
ATOM     26  S   UNL     1       5.039   4.042  16.683  0.00  0.00    +0.000 S 
ATOM     27  O   UNL     1       5.062   4.875  15.494  0.00  0.00    +0.000 OA
ATOM     28  O   UNL     1       4.680   2.651  16.603  0.00  0.00    +0.000 OA
BRANCH  26  29
ATOM     29  N   UNL     1       6.582   4.173  17.354  0.00  0.00    +0.000 N 
ATOM     30  H   UNL     1       7.244   3.486  16.998  0.00  0.00    +0.000 HD
BRANCH  29  34
ATOM     31  C   UNL     1       8.228   7.895  18.433  0.00  0.00    +0.000 A 
ATOM     32  C   UNL     1       7.547   7.757  17.215  0.00  0.00    +0.000 A 
ATOM     33  C   UNL     1       6.986   6.530  16.851  0.00  0.00    +0.000 A 
ATOM     34  C   UNL     1       7.075   5.448  17.723  0.00  0.00    +0.000 A 
ATOM     35  C   UNL     1       7.714   5.583  18.953  0.00  0.00    +0.000 A 
ATOM     36  C   UNL     1       8.292   6.799  19.305  0.00  0.00    +0.000 A 
BRANCH  31  38
ATOM     37  C   UNL     1       8.381  10.377  18.005  0.00  0.00    +0.000 C 
ATOM     38  C   UNL     1       8.904   9.192  18.801  0.00  0.00    +0.000 C 
ENDBRANCH  31  38
ENDBRANCH  29  34
ENDBRANCH  26  29
ENDBRANCH   1  26
TORSDOF 8
ENDMDL
MODEL 3
REMARK VINA RESULT:      -9.0      4.323     10.860
REMARK  Name = 
REMARK  10 active torsions:
REMARK  status: ('A' for Active; 'I' for Inactive)
REMARK    1  A    between atoms: C_1  and  C_2
REMARK    2  A    between atoms: C_2  and  C_3
REMARK    3  A    between atoms: C_6  and  N_7
REMARK    4  A    between atoms: N_7  and  S_8
REMARK    5  A    between atoms: S_8  and  C_11
REMARK    6  A    between atoms: C_17  and  C_18
REMARK    7  A    between atoms: N_20  and  C_21
REMARK    8  A    between atoms: C_21  and  C_22
REMARK    9  A    between atoms: C_22  and  C_23
REMARK   10  A    between atoms: C_27  and  C_28
REMARK                            x       y       z     vdW  Elec       q    Type
REMARK                         _______ _______ _______ _____ _____    ______ ____
ROOT
ATOM      1  C   UNL     1       0.536  10.153  20.155  0.00  0.00    +0.000 A 
ATOM      2  C   UNL     1       0.421   9.584  21.427  0.00  0.00    +0.000 A 
ATOM      3  C   UNL     1       0.976   8.330  21.668  0.00  0.00    +0.000 A 
ATOM      4  C   UNL     1       1.615   7.626  20.637  0.00  0.00    +0.000 A 
ATOM      5  N   UNL     1       2.118   6.345  20.889  0.00  0.00    +0.000 N 
ATOM      6  C   UNL     1       2.624   5.585  19.872  0.00  0.00    +0.000 A 
ATOM      7  C   UNL     1       2.879   5.993  18.617  0.00  0.00    +0.000 A 
ATOM      8  C   UNL     1       2.530   7.419  18.304  0.00  0.00    +0.000 A 
ATOM      9  O   UNL     1       2.836   7.932  17.232  0.00  0.00    +0.000 OA
ATOM     10  C   UNL     1       1.785   8.214  19.367  0.00  0.00    +0.000 A 
ATOM     11  C   UNL     1       1.229   9.484  19.123  0.00  0.00    +0.000 A 
ATOM     12  H   UNL     1       1.816   5.864  21.730  0.00  0.00    +0.000 HD
ENDROOT
BRANCH   7  13
ATOM     13  C   UNL     1       3.495   4.947  17.732  0.00  0.00    +0.000 C 
ATOM     14  O   UNL     1       3.320   3.750  17.967  0.00  0.00    +0.000 OA
ATOM     15  N   UNL     1       4.278   5.345  16.681  0.00  0.00    +0.000 N 
ATOM     16  H   UNL     1       4.454   6.339  16.551  0.00  0.00    +0.000 HD
BRANCH  15  17
ATOM     17  C   UNL     1       5.044   4.379  15.886  0.00  0.00    +0.000 C 
BRANCH  17  18
ATOM     18  C   UNL     1       6.559   4.635  15.748  0.00  0.00    +0.000 C 
BRANCH  18  19
ATOM     19  C   UNL     1       7.168   5.391  16.903  0.00  0.00    +0.000 A 
ATOM     20  C   UNL     1       7.566   4.742  18.078  0.00  0.00    +0.000 A 
ATOM     21  C   UNL     1       8.097   5.475  19.142  0.00  0.00    +0.000 A 
ATOM     22  C   UNL     1       8.228   6.861  19.043  0.00  0.00    +0.000 A 
ATOM     23  C   UNL     1       7.847   7.522  17.872  0.00  0.00    +0.000 A 
ATOM     24  C   UNL     1       7.976   9.009  17.735  0.00  0.00    +0.000 C 
ATOM     25  C   UNL     1       7.331   6.778  16.805  0.00  0.00    +0.000 A 
ENDBRANCH  18  19
ENDBRANCH  17  18
ENDBRANCH  15  17
ENDBRANCH   7  13
BRANCH   1  26
ATOM     26  S   UNL     1      -0.386  11.652  19.819  0.00  0.00    +0.000 S 
ATOM     27  O   UNL     1      -0.041  12.602  20.861  0.00  0.00    +0.000 OA
ATOM     28  O   UNL     1      -1.756  11.283  19.580  0.00  0.00    +0.000 OA
BRANCH  26  29
ATOM     29  N   UNL     1       0.268  12.286  18.399  0.00  0.00    +0.000 N 
ATOM     30  H   UNL     1      -0.373  12.269  17.608  0.00  0.00    +0.000 HD
BRANCH  29  34
ATOM     31  C   UNL     1       3.089  15.412  18.435  0.00  0.00    +0.000 A 
ATOM     32  C   UNL     1       1.735  15.687  18.684  0.00  0.00    +0.000 A 
ATOM     33  C   UNL     1       0.792  14.656  18.687  0.00  0.00    +0.000 A 
ATOM     34  C   UNL     1       1.207  13.343  18.476  0.00  0.00    +0.000 A 
ATOM     35  C   UNL     1       2.553  13.053  18.267  0.00  0.00    +0.000 A 
ATOM     36  C   UNL     1       3.490  14.083  18.243  0.00  0.00    +0.000 A 
BRANCH  31  38
ATOM     37  C   UNL     1       5.506  16.074  18.723  0.00  0.00    +0.000 C 
ATOM     38  C   UNL     1       4.102  16.525  18.353  0.00  0.00    +0.000 C 
ENDBRANCH  31  38
ENDBRANCH  29  34
ENDBRANCH  26  29
ENDBRANCH   1  26
TORSDOF 8
ENDMDL
MODEL 4
REMARK VINA RESULT:      -9.0      2.767      4.524
REMARK  Name = 
REMARK  10 active torsions:
REMARK  status: ('A' for Active; 'I' for Inactive)
REMARK    1  A    between atoms: C_1  and  C_2
REMARK    2  A    between atoms: C_2  and  C_3
REMARK    3  A    between atoms: C_6  and  N_7
REMARK    4  A    between atoms: N_7  and  S_8
REMARK    5  A    between atoms: S_8  and  C_11
REMARK    6  A    between atoms: C_17  and  C_18
REMARK    7  A    between atoms: N_20  and  C_21
REMARK    8  A    between atoms: C_21  and  C_22
REMARK    9  A    between atoms: C_22  and  C_23
REMARK   10  A    between atoms: C_27  and  C_28
REMARK                            x       y       z     vdW  Elec       q    Type
REMARK                         _______ _______ _______ _____ _____    ______ ____
ROOT
ATOM      1  C   UNL     1       3.498   4.735  18.466  0.00  0.00    +0.000 A 
ATOM      2  C   UNL     1       3.213   4.322  19.771  0.00  0.00    +0.000 A 
ATOM      3  C   UNL     1       2.529   5.182  20.627  0.00  0.00    +0.000 A 
ATOM      4  C   UNL     1       2.160   6.466  20.198  0.00  0.00    +0.000 A 
ATOM      5  N   UNL     1       1.521   7.331  21.093  0.00  0.00    +0.000 N 
ATOM      6  C   UNL     1       1.270   8.629  20.745  0.00  0.00    +0.000 A 
ATOM      7  C   UNL     1       1.407   9.171  19.522  0.00  0.00    +0.000 A 
ATOM      8  C   UNL     1       1.924   8.257  18.450  0.00  0.00    +0.000 A 
ATOM      9  O   UNL     1       1.967   8.609  17.274  0.00  0.00    +0.000 OA
ATOM     10  C   UNL     1       2.392   6.870  18.868  0.00  0.00    +0.000 A 
ATOM     11  C   UNL     1       3.079   6.000  18.001  0.00  0.00    +0.000 A 
ATOM     12  H   UNL     1       1.541   7.105  22.082  0.00  0.00    +0.000 HD
ENDROOT
BRANCH   7  13
ATOM     13  C   UNL     1       0.995  10.612  19.428  0.00  0.00    +0.000 C 
ATOM     14  O   UNL     1       1.432  11.439  20.232  0.00  0.00    +0.000 OA
ATOM     15  N   UNL     1       0.104  10.986  18.456  0.00  0.00    +0.000 N 
ATOM     16  H   UNL     1      -0.285  10.268  17.849  0.00  0.00    +0.000 HD
BRANCH  15  17
ATOM     17  C   UNL     1      -0.467  12.336  18.417  0.00  0.00    +0.000 C 
BRANCH  17  18
ATOM     18  C   UNL     1      -1.621  12.633  19.396  0.00  0.00    +0.000 C 
BRANCH  18  19
ATOM     19  C   UNL     1      -2.966  12.122  18.942  0.00  0.00    +0.000 A 
ATOM     20  C   UNL     1      -3.112  11.385  17.761  0.00  0.00    +0.000 A 
ATOM     21  C   UNL     1      -4.377  10.955  17.351  0.00  0.00    +0.000 A 
ATOM     22  C   UNL     1      -5.504  11.261  18.116  0.00  0.00    +0.000 A 
ATOM     23  C   UNL     1      -5.373  11.984  19.304  0.00  0.00    +0.000 A 
ATOM     24  C   UNL     1      -6.564  12.327  20.146  0.00  0.00    +0.000 C 
ATOM     25  C   UNL     1      -4.101  12.399  19.715  0.00  0.00    +0.000 A 
ENDBRANCH  18  19
ENDBRANCH  17  18
ENDBRANCH  15  17
ENDBRANCH   7  13
BRANCH   1  26
ATOM     26  S   UNL     1       4.576   3.704  17.475  0.00  0.00    +0.000 S 
ATOM     27  O   UNL     1       4.594   4.273  16.140  0.00  0.00    +0.000 OA
ATOM     28  O   UNL     1       4.192   2.333  17.687  0.00  0.00    +0.000 OA
BRANCH  26  29
ATOM     29  N   UNL     1       6.130   3.940  18.087  0.00  0.00    +0.000 N 
ATOM     30  H   UNL     1       6.732   3.123  18.005  0.00  0.00    +0.000 HD
BRANCH  29  34
ATOM     31  C   UNL     1       7.726   7.829  17.855  0.00  0.00    +0.000 A 
ATOM     32  C   UNL     1       8.061   6.998  18.934  0.00  0.00    +0.000 A 
ATOM     33  C   UNL     1       7.548   5.701  19.015  0.00  0.00    +0.000 A 
ATOM     34  C   UNL     1       6.726   5.221  17.998  0.00  0.00    +0.000 A 
ATOM     35  C   UNL     1       6.418   6.023  16.902  0.00  0.00    +0.000 A 
ATOM     36  C   UNL     1       6.912   7.323  16.832  0.00  0.00    +0.000 A 
BRANCH  31  38
ATOM     37  C   UNL     1       9.087   9.631  18.982  0.00  0.00    +0.000 C 
ATOM     38  C   UNL     1       8.212   9.256  17.796  0.00  0.00    +0.000 C 
ENDBRANCH  31  38
ENDBRANCH  29  34
ENDBRANCH  26  29
ENDBRANCH   1  26
TORSDOF 8
ENDMDL
MODEL 5
REMARK VINA RESULT:      -9.0      2.443     11.718
REMARK  Name = 
REMARK  10 active torsions:
REMARK  status: ('A' for Active; 'I' for Inactive)
REMARK    1  A    between atoms: C_1  and  C_2
REMARK    2  A    between atoms: C_2  and  C_3
REMARK    3  A    between atoms: C_6  and  N_7
REMARK    4  A    between atoms: N_7  and  S_8
REMARK    5  A    between atoms: S_8  and  C_11
REMARK    6  A    between atoms: C_17  and  C_18
REMARK    7  A    between atoms: N_20  and  C_21
REMARK    8  A    between atoms: C_21  and  C_22
REMARK    9  A    between atoms: C_22  and  C_23
REMARK   10  A    between atoms: C_27  and  C_28
REMARK                            x       y       z     vdW  Elec       q    Type
REMARK                         _______ _______ _______ _____ _____    ______ ____
ROOT
ATOM      1  C   UNL     1       0.830   9.851  19.944  0.00  0.00    +0.000 A 
ATOM      2  C   UNL     1       0.589   9.228  21.173  0.00  0.00    +0.000 A 
ATOM      3  C   UNL     1       1.104   7.956  21.407  0.00  0.00    +0.000 A 
ATOM      4  C   UNL     1       1.829   7.287  20.409  0.00  0.00    +0.000 A 
ATOM      5  N   UNL     1       2.291   5.989  20.649  0.00  0.00    +0.000 N 
ATOM      6  C   UNL     1       2.881   5.266  19.651  0.00  0.00    +0.000 A 
ATOM      7  C   UNL     1       3.257   5.725  18.444  0.00  0.00    +0.000 A 
ATOM      8  C   UNL     1       2.957   7.169  18.165  0.00  0.00    +0.000 A 
ATOM      9  O   UNL     1       3.368   7.724  17.150  0.00  0.00    +0.000 OA
ATOM     10  C   UNL     1       2.125   7.928  19.189  0.00  0.00    +0.000 A 
ATOM     11  C   UNL     1       1.608   9.216  18.952  0.00  0.00    +0.000 A 
ATOM     12  H   UNL     1       1.906   5.476  21.436  0.00  0.00    +0.000 HD
ENDROOT
BRANCH   7  13
ATOM     13  C   UNL     1       3.941   4.709  17.574  0.00  0.00    +0.000 C 
ATOM     14  O   UNL     1       4.069   3.545  17.958  0.00  0.00    +0.000 OA
ATOM     15  N   UNL     1       4.447   5.105  16.364  0.00  0.00    +0.000 N 
ATOM     16  H   UNL     1       4.380   6.086  16.104  0.00  0.00    +0.000 HD
BRANCH  15  17
ATOM     17  C   UNL     1       5.272   4.209  15.547  0.00  0.00    +0.000 C 
BRANCH  17  18
ATOM     18  C   UNL     1       6.798   4.422  15.603  0.00  0.00    +0.000 C 
BRANCH  18  19
ATOM     19  C   UNL     1       7.269   5.225  16.790  0.00  0.00    +0.000 A 
ATOM     20  C   UNL     1       7.650   4.611  17.989  0.00  0.00    +0.000 A 
ATOM     21  C   UNL     1       8.050   5.386  19.081  0.00  0.00    +0.000 A 
ATOM     22  C   UNL     1       8.067   6.778  18.985  0.00  0.00    +0.000 A 
ATOM     23  C   UNL     1       7.702   7.406  17.790  0.00  0.00    +0.000 A 
ATOM     24  C   UNL     1       7.711   8.898  17.656  0.00  0.00    +0.000 C 
ATOM     25  C   UNL     1       7.318   6.622  16.697  0.00  0.00    +0.000 A 
ENDBRANCH  18  19
ENDBRANCH  17  18
ENDBRANCH  15  17
ENDBRANCH   7  13
BRANCH   1  26
ATOM     26  S   UNL     1      -0.038  11.377  19.592  0.00  0.00    +0.000 S 
ATOM     27  O   UNL     1      -1.444  11.040  19.452  0.00  0.00    +0.000 OA
ATOM     28  O   UNL     1       0.667  12.053  18.535  0.00  0.00    +0.000 OA
BRANCH  26  29
ATOM     29  N   UNL     1       0.064  12.301  20.999  0.00  0.00    +0.000 N 
ATOM     30  H   UNL     1       0.775  13.029  20.961  0.00  0.00    +0.000 HD
BRANCH  29  34
ATOM     31  C   UNL     1      -3.521  12.979  23.100  0.00  0.00    +0.000 A 
ATOM     32  C   UNL     1      -2.678  11.923  23.476  0.00  0.00    +0.000 A 
ATOM     33  C   UNL     1      -1.480  11.696  22.795  0.00  0.00    +0.000 A 
ATOM     34  C   UNL     1      -1.106  12.548  21.758  0.00  0.00    +0.000 A 
ATOM     35  C   UNL     1      -1.916  13.623  21.401  0.00  0.00    +0.000 A 
ATOM     36  C   UNL     1      -3.120  13.836  22.066  0.00  0.00    +0.000 A 
BRANCH  31  38
ATOM     37  C   UNL     1      -5.588  14.417  23.271  0.00  0.00    +0.000 C 
ATOM     38  C   UNL     1      -4.853  13.187  23.777  0.00  0.00    +0.000 C 
ENDBRANCH  31  38
ENDBRANCH  29  34
ENDBRANCH  26  29
ENDBRANCH   1  26
TORSDOF 8
ENDMDL
MODEL 6
REMARK VINA RESULT:      -8.9      3.437     11.287
REMARK  Name = 
REMARK  10 active torsions:
REMARK  status: ('A' for Active; 'I' for Inactive)
REMARK    1  A    between atoms: C_1  and  C_2
REMARK    2  A    between atoms: C_2  and  C_3
REMARK    3  A    between atoms: C_6  and  N_7
REMARK    4  A    between atoms: N_7  and  S_8
REMARK    5  A    between atoms: S_8  and  C_11
REMARK    6  A    between atoms: C_17  and  C_18
REMARK    7  A    between atoms: N_20  and  C_21
REMARK    8  A    between atoms: C_21  and  C_22
REMARK    9  A    between atoms: C_22  and  C_23
REMARK   10  A    between atoms: C_27  and  C_28
REMARK                            x       y       z     vdW  Elec       q    Type
REMARK                         _______ _______ _______ _____ _____    ______ ____
ROOT
ATOM      1  C   UNL     1       0.095  10.580  20.210  0.00  0.00    +0.000 A 
ATOM      2  C   UNL     1       0.063  10.021  21.491  0.00  0.00    +0.000 A 
ATOM      3  C   UNL     1       0.732   8.824  21.732  0.00  0.00    +0.000 A 
ATOM      4  C   UNL     1       1.403   8.163  20.693  0.00  0.00    +0.000 A 
ATOM      5  N   UNL     1       2.022   6.935  20.947  0.00  0.00    +0.000 N 
ATOM      6  C   UNL     1       2.567   6.207  19.926  0.00  0.00    +0.000 A 
ATOM      7  C   UNL     1       2.751   6.617  18.659  0.00  0.00    +0.000 A 
ATOM      8  C   UNL     1       2.272   8.003  18.338  0.00  0.00    +0.000 A 
ATOM      9  O   UNL     1       2.503   8.525  17.252  0.00  0.00    +0.000 OA
ATOM     10  C   UNL     1       1.488   8.746  19.412  0.00  0.00    +0.000 A 
ATOM     11  C   UNL     1       0.816   9.958  19.168  0.00  0.00    +0.000 A 
ATOM     12  H   UNL     1       1.786   6.441  21.801  0.00  0.00    +0.000 HD
ENDROOT
BRANCH   7  13
ATOM     13  C   UNL     1       3.433   5.616  17.771  0.00  0.00    +0.000 C 
ATOM     14  O   UNL     1       2.823   4.624  17.367  0.00  0.00    +0.000 OA
ATOM     15  N   UNL     1       4.749   5.808  17.443  0.00  0.00    +0.000 N 
ATOM     16  H   UNL     1       5.241   6.604  17.842  0.00  0.00    +0.000 HD
BRANCH  15  17
ATOM     17  C   UNL     1       5.518   4.787  16.724  0.00  0.00    +0.000 C 
BRANCH  17  18
ATOM     18  C   UNL     1       6.826   5.246  16.048  0.00  0.00    +0.000 C 
BRANCH  18  19
ATOM     19  C   UNL     1       6.921   4.899  14.583  0.00  0.00    +0.000 A 
ATOM     20  C   UNL     1       7.912   5.449  13.760  0.00  0.00    +0.000 A 
ATOM     21  C   UNL     1       7.952   5.133  12.399  0.00  0.00    +0.000 A 
ATOM     22  C   UNL     1       7.002   4.271  11.851  0.00  0.00    +0.000 A 
ATOM     23  C   UNL     1       6.015   3.704  12.661  0.00  0.00    +0.000 A 
ATOM     24  C   UNL     1       4.982   2.774  12.101  0.00  0.00    +0.000 C 
ATOM     25  C   UNL     1       5.991   4.013  14.025  0.00  0.00    +0.000 A 
ENDBRANCH  18  19
ENDBRANCH  17  18
ENDBRANCH  15  17
ENDBRANCH   7  13
BRANCH   1  26
ATOM     26  S   UNL     1      -0.963  11.987  19.881  0.00  0.00    +0.000 S 
ATOM     27  O   UNL     1      -0.490  12.591  18.649  0.00  0.00    +0.000 OA
ATOM     28  O   UNL     1      -1.060  12.759  21.092  0.00  0.00    +0.000 OA
BRANCH  26  29
ATOM     29  N   UNL     1      -2.480  11.347  19.515  0.00  0.00    +0.000 N 
ATOM     30  H   UNL     1      -3.208  11.615  20.174  0.00  0.00    +0.000 HD
BRANCH  29  34
ATOM     31  C   UNL     1      -3.608  10.572  15.533  0.00  0.00    +0.000 A 
ATOM     32  C   UNL     1      -4.373  11.446  16.320  0.00  0.00    +0.000 A 
ATOM     33  C   UNL     1      -4.001  11.721  17.639  0.00  0.00    +0.000 A 
ATOM     34  C   UNL     1      -2.844  11.149  18.161  0.00  0.00    +0.000 A 
ATOM     35  C   UNL     1      -2.055  10.311  17.377  0.00  0.00    +0.000 A 
ATOM     36  C   UNL     1      -2.437  10.020  16.070  0.00  0.00    +0.000 A 
BRANCH  31  38
ATOM     37  C   UNL     1      -2.926   9.580  13.315  0.00  0.00    +0.000 C 
ATOM     38  C   UNL     1      -4.042  10.209  14.135  0.00  0.00    +0.000 C 
ENDBRANCH  31  38
ENDBRANCH  29  34
ENDBRANCH  26  29
ENDBRANCH   1  26
TORSDOF 8
ENDMDL
MODEL 7
REMARK VINA RESULT:      -8.9      1.008      1.569
REMARK  Name = 
REMARK  10 active torsions:
REMARK  status: ('A' for Active; 'I' for Inactive)
REMARK    1  A    between atoms: C_1  and  C_2
REMARK    2  A    between atoms: C_2  and  C_3
REMARK    3  A    between atoms: C_6  and  N_7
REMARK    4  A    between atoms: N_7  and  S_8
REMARK    5  A    between atoms: S_8  and  C_11
REMARK    6  A    between atoms: C_17  and  C_18
REMARK    7  A    between atoms: N_20  and  C_21
REMARK    8  A    between atoms: C_21  and  C_22
REMARK    9  A    between atoms: C_22  and  C_23
REMARK   10  A    between atoms: C_27  and  C_28
REMARK                            x       y       z     vdW  Elec       q    Type
REMARK                         _______ _______ _______ _____ _____    ______ ____
ROOT
ATOM      1  C   UNL     1       2.073   7.200  19.616  0.00  0.00    +0.000 A 
ATOM      2  C   UNL     1       2.110   7.924  18.420  0.00  0.00    +0.000 A 
ATOM      3  C   UNL     1       1.586   9.213  18.384  0.00  0.00    +0.000 A 
ATOM      4  C   UNL     1       0.994   9.772  19.527  0.00  0.00    +0.000 A 
ATOM      5  N   UNL     1       0.427  11.048  19.452  0.00  0.00    +0.000 N 
ATOM      6  C   UNL     1      -0.272  11.561  20.509  0.00  0.00    +0.000 A 
ATOM      7  C   UNL     1      -0.345  11.044  21.747  0.00  0.00    +0.000 A 
ATOM      8  C   UNL     1       0.388   9.752  21.967  0.00  0.00    +0.000 A 
ATOM      9  O   UNL     1       0.494   9.259  23.086  0.00  0.00    +0.000 OA
ATOM     10  C   UNL     1       1.002   9.073  20.751  0.00  0.00    +0.000 A 
ATOM     11  C   UNL     1       1.535   7.771  20.789  0.00  0.00    +0.000 A 
ATOM     12  H   UNL     1       0.252  11.448  18.535  0.00  0.00    +0.000 HD
ENDROOT
BRANCH   7  13
ATOM     13  C   UNL     1      -1.141  11.865  22.722  0.00  0.00    +0.000 C 
ATOM     14  O   UNL     1      -2.050  11.348  23.374  0.00  0.00    +0.000 OA
ATOM     15  N   UNL     1      -0.860  13.199  22.850  0.00  0.00    +0.000 N 
ATOM     16  H   UNL     1      -0.145  13.608  22.253  0.00  0.00    +0.000 HD
BRANCH  15  17
ATOM     17  C   UNL     1      -1.706  14.088  23.653  0.00  0.00    +0.000 C 
BRANCH  17  18
ATOM     18  C   UNL     1      -2.801  14.873  22.902  0.00  0.00    +0.000 C 
BRANCH  18  19
ATOM     19  C   UNL     1      -4.001  14.045  22.512  0.00  0.00    +0.000 A 
ATOM     20  C   UNL     1      -4.083  13.413  21.265  0.00  0.00    +0.000 A 
ATOM     21  C   UNL     1      -5.222  12.681  20.921  0.00  0.00    +0.000 A 
ATOM     22  C   UNL     1      -6.288  12.579  21.817  0.00  0.00    +0.000 A 
ATOM     23  C   UNL     1      -6.216  13.194  23.070  0.00  0.00    +0.000 A 
ATOM     24  C   UNL     1      -7.343  13.103  24.052  0.00  0.00    +0.000 C 
ATOM     25  C   UNL     1      -5.065  13.913  23.412  0.00  0.00    +0.000 A 
ENDBRANCH  18  19
ENDBRANCH  17  18
ENDBRANCH  15  17
ENDBRANCH   7  13
BRANCH   1  26
ATOM     26  S   UNL     1       2.539   5.472  19.566  0.00  0.00    +0.000 S 
ATOM     27  O   UNL     1       2.049   4.938  18.308  0.00  0.00    +0.000 OA
ATOM     28  O   UNL     1       2.156   4.875  20.819  0.00  0.00    +0.000 OA
BRANCH  26  29
ATOM     29  N   UNL     1       4.221   5.451  19.439  0.00  0.00    +0.000 N 
ATOM     30  H   UNL     1       4.686   5.001  20.225  0.00  0.00    +0.000 HD
BRANCH  29  34
ATOM     31  C   UNL     1       5.834   5.109  15.565  0.00  0.00    +0.000 A 
ATOM     32  C   UNL     1       5.731   6.369  16.172  0.00  0.00    +0.000 A 
ATOM     33  C   UNL     1       5.209   6.494  17.462  0.00  0.00    +0.000 A 
ATOM     34  C   UNL     1       4.822   5.353  18.161  0.00  0.00    +0.000 A 
ATOM     35  C   UNL     1       4.956   4.093  17.584  0.00  0.00    +0.000 A 
ATOM     36  C   UNL     1       5.455   3.970  16.290  0.00  0.00    +0.000 A 
BRANCH  31  38
ATOM     37  C   UNL     1       5.913   3.653  13.505  0.00  0.00    +0.000 C 
ATOM     38  C   UNL     1       6.323   4.970  14.145  0.00  0.00    +0.000 C 
ENDBRANCH  31  38
ENDBRANCH  29  34
ENDBRANCH  26  29
ENDBRANCH   1  26
TORSDOF 8
ENDMDL
MODEL 8
REMARK VINA RESULT:      -8.8      2.692      4.598
REMARK  Name = 
REMARK  10 active torsions:
REMARK  status: ('A' for Active; 'I' for Inactive)
REMARK    1  A    between atoms: C_1  and  C_2
REMARK    2  A    between atoms: C_2  and  C_3
REMARK    3  A    between atoms: C_6  and  N_7
REMARK    4  A    between atoms: N_7  and  S_8
REMARK    5  A    between atoms: S_8  and  C_11
REMARK    6  A    between atoms: C_17  and  C_18
REMARK    7  A    between atoms: N_20  and  C_21
REMARK    8  A    between atoms: C_21  and  C_22
REMARK    9  A    between atoms: C_22  and  C_23
REMARK   10  A    between atoms: C_27  and  C_28
REMARK                            x       y       z     vdW  Elec       q    Type
REMARK                         _______ _______ _______ _____ _____    ______ ____
ROOT
ATOM      1  C   UNL     1       5.333   5.745  17.911  0.00  0.00    +0.000 A 
ATOM      2  C   UNL     1       5.061   4.928  19.012  0.00  0.00    +0.000 A 
ATOM      3  C   UNL     1       3.958   5.206  19.815  0.00  0.00    +0.000 A 
ATOM      4  C   UNL     1       3.144   6.317  19.545  0.00  0.00    +0.000 A 
ATOM      5  N   UNL     1       2.073   6.607  20.396  0.00  0.00    +0.000 N 
ATOM      6  C   UNL     1       1.348   7.755  20.234  0.00  0.00    +0.000 A 
ATOM      7  C   UNL     1       1.421   8.609  19.199  0.00  0.00    +0.000 A 
ATOM      8  C   UNL     1       2.431   8.277  18.139  0.00  0.00    +0.000 A 
ATOM      9  O   UNL     1       2.493   8.913  17.092  0.00  0.00    +0.000 OA
ATOM     10  C   UNL     1       3.377   7.114  18.405  0.00  0.00    +0.000 A 
ATOM     11  C   UNL     1       4.490   6.831  17.591  0.00  0.00    +0.000 A 
ATOM     12  H   UNL     1       2.040   6.155  21.304  0.00  0.00    +0.000 HD
ENDROOT
BRANCH   7  13
ATOM     13  C   UNL     1       0.453   9.756  19.265  0.00  0.00    +0.000 C 
ATOM     14  O   UNL     1       0.047  10.167  20.354  0.00  0.00    +0.000 OA
ATOM     15  N   UNL     1       0.006  10.315  18.097  0.00  0.00    +0.000 N 
ATOM     16  H   UNL     1       0.311   9.912  17.214  0.00  0.00    +0.000 HD
BRANCH  15  17
ATOM     17  C   UNL     1      -1.064  11.318  18.087  0.00  0.00    +0.000 C 
BRANCH  17  18
ATOM     18  C   UNL     1      -2.271  11.042  17.167  0.00  0.00    +0.000 C 
BRANCH  18  19
ATOM     19  C   UNL     1      -3.587  11.550  17.702  0.00  0.00    +0.000 A 
ATOM     20  C   UNL     1      -4.691  11.753  16.865  0.00  0.00    +0.000 A 
ATOM     21  C   UNL     1      -5.886  12.256  17.387  0.00  0.00    +0.000 A 
ATOM     22  C   UNL     1      -5.985  12.564  18.745  0.00  0.00    +0.000 A 
ATOM     23  C   UNL     1      -4.895  12.354  19.595  0.00  0.00    +0.000 A 
ATOM     24  C   UNL     1      -4.972  12.674  21.057  0.00  0.00    +0.000 C 
ATOM     25  C   UNL     1      -3.708  11.836  19.068  0.00  0.00    +0.000 A 
ENDBRANCH  18  19
ENDBRANCH  17  18
ENDBRANCH  15  17
ENDBRANCH   7  13
BRANCH   1  26
ATOM     26  S   UNL     1       6.882   5.500  17.045  0.00  0.00    +0.000 S 
ATOM     27  O   UNL     1       7.061   4.067  16.899  0.00  0.00    +0.000 OA
ATOM     28  O   UNL     1       7.882   6.306  17.693  0.00  0.00    +0.000 OA
BRANCH  26  29
ATOM     29  N   UNL     1       6.633   6.084  15.482  0.00  0.00    +0.000 N 
ATOM     30  H   UNL     1       7.177   6.916  15.264  0.00  0.00    +0.000 HD
BRANCH  29  34
ATOM     31  C   UNL     1       5.931   3.251  12.446  0.00  0.00    +0.000 A 
ATOM     32  C   UNL     1       4.925   3.541  13.381  0.00  0.00    +0.000 A 
ATOM     33  C   UNL     1       5.142   4.488  14.385  0.00  0.00    +0.000 A 
ATOM     34  C   UNL     1       6.354   5.173  14.435  0.00  0.00    +0.000 A 
ATOM     35  C   UNL     1       7.345   4.923  13.489  0.00  0.00    +0.000 A 
ATOM     36  C   UNL     1       7.137   3.963  12.502  0.00  0.00    +0.000 A 
BRANCH  31  38
ATOM     37  C   UNL     1       7.040   1.512  10.994  0.00  0.00    +0.000 C 
ATOM     38  C   UNL     1       5.737   2.177  11.407  0.00  0.00    +0.000 C 
ENDBRANCH  31  38
ENDBRANCH  29  34
ENDBRANCH  26  29
ENDBRANCH   1  26
TORSDOF 8
ENDMDL
MODEL 9
REMARK VINA RESULT:      -8.7      2.611      4.483
REMARK  Name = 
REMARK  10 active torsions:
REMARK  status: ('A' for Active; 'I' for Inactive)
REMARK    1  A    between atoms: C_1  and  C_2
REMARK    2  A    between atoms: C_2  and  C_3
REMARK    3  A    between atoms: C_6  and  N_7
REMARK    4  A    between atoms: N_7  and  S_8
REMARK    5  A    between atoms: S_8  and  C_11
REMARK    6  A    between atoms: C_17  and  C_18
REMARK    7  A    between atoms: N_20  and  C_21
REMARK    8  A    between atoms: C_21  and  C_22
REMARK    9  A    between atoms: C_22  and  C_23
REMARK   10  A    between atoms: C_27  and  C_28
REMARK                            x       y       z     vdW  Elec       q    Type
REMARK                         _______ _______ _______ _____ _____    ______ ____
ROOT
ATOM      1  C   UNL     1       3.428   4.691  18.552  0.00  0.00    +0.000 A 
ATOM      2  C   UNL     1       3.114   4.295  19.855  0.00  0.00    +0.000 A 
ATOM      3  C   UNL     1       2.421   5.169  20.687  0.00  0.00    +0.000 A 
ATOM      4  C   UNL     1       2.070   6.451  20.238  0.00  0.00    +0.000 A 
ATOM      5  N   UNL     1       1.421   7.331  21.110  0.00  0.00    +0.000 N 
ATOM      6  C   UNL     1       1.187   8.626  20.743  0.00  0.00    +0.000 A 
ATOM      7  C   UNL     1       1.352   9.154  19.517  0.00  0.00    +0.000 A 
ATOM      8  C   UNL     1       1.884   8.225  18.465  0.00  0.00    +0.000 A 
ATOM      9  O   UNL     1       1.952   8.563  17.287  0.00  0.00    +0.000 OA
ATOM     10  C   UNL     1       2.332   6.838  18.908  0.00  0.00    +0.000 A 
ATOM     11  C   UNL     1       3.029   5.954  18.064  0.00  0.00    +0.000 A 
ATOM     12  H   UNL     1       1.420   7.116  22.102  0.00  0.00    +0.000 HD
ENDROOT
BRANCH   7  13
ATOM     13  C   UNL     1       0.954  10.597  19.399  0.00  0.00    +0.000 C 
ATOM     14  O   UNL     1       1.441  11.442  20.153  0.00  0.00    +0.000 OA
ATOM     15  N   UNL     1       0.019  10.953  18.463  0.00  0.00    +0.000 N 
ATOM     16  H   UNL     1      -0.410  10.223  17.899  0.00  0.00    +0.000 HD
BRANCH  15  17
ATOM     17  C   UNL     1      -0.537  12.309  18.411  0.00  0.00    +0.000 C 
BRANCH  17  18
ATOM     18  C   UNL     1      -2.074  12.435  18.459  0.00  0.00    +0.000 C 
BRANCH  18  19
ATOM     19  C   UNL     1      -2.638  12.612  19.846  0.00  0.00    +0.000 A 
ATOM     20  C   UNL     1      -4.016  12.560  20.092  0.00  0.00    +0.000 A 
ATOM     21  C   UNL     1      -4.508  12.761  21.384  0.00  0.00    +0.000 A 
ATOM     22  C   UNL     1      -3.630  13.019  22.438  0.00  0.00    +0.000 A 
ATOM     23  C   UNL     1      -2.251  13.061  22.211  0.00  0.00    +0.000 A 
ATOM     24  C   UNL     1      -1.284  13.335  23.322  0.00  0.00    +0.000 C 
ATOM     25  C   UNL     1      -1.765  12.844  20.917  0.00  0.00    +0.000 A 
ENDBRANCH  18  19
ENDBRANCH  17  18
ENDBRANCH  15  17
ENDBRANCH   7  13
BRANCH   1  26
ATOM     26  S   UNL     1       4.517   3.640  17.594  0.00  0.00    +0.000 S 
ATOM     27  O   UNL     1       4.497   4.141  16.231  0.00  0.00    +0.000 OA
ATOM     28  O   UNL     1       4.176   2.272  17.882  0.00  0.00    +0.000 OA
BRANCH  26  29
ATOM     29  N   UNL     1       6.075   3.949  18.163  0.00  0.00    +0.000 N 
ATOM     30  H   UNL     1       6.721   3.173  18.034  0.00  0.00    +0.000 HD
BRANCH  29  34
ATOM     31  C   UNL     1       7.776   7.792  17.905  0.00  0.00    +0.000 A 
ATOM     32  C   UNL     1       6.721   7.434  17.052  0.00  0.00    +0.000 A 
ATOM     33  C   UNL     1       6.140   6.166  17.137  0.00  0.00    +0.000 A 
ATOM     34  C   UNL     1       6.591   5.266  18.099  0.00  0.00    +0.000 A 
ATOM     35  C   UNL     1       7.610   5.624  18.978  0.00  0.00    +0.000 A 
ATOM     36  C   UNL     1       8.204   6.880  18.879  0.00  0.00    +0.000 A 
BRANCH  31  38
ATOM     37  C   UNL     1       9.025   9.638  19.087  0.00  0.00    +0.000 C 
ATOM     38  C   UNL     1       8.461   9.129  17.770  0.00  0.00    +0.000 C 
ENDBRANCH  31  38
ENDBRANCH  29  34
ENDBRANCH  26  29
ENDBRANCH   1  26
TORSDOF 8
ENDMDL
