MODEL 1
REMARK VINA RESULT:      -8.9      0.000      0.000
REMARK  Name = 
REMARK  11 active torsions:
REMARK  status: ('A' for Active; 'I' for Inactive)
REMARK    1  A    between atoms: C_1  and  C_2
REMARK    2  A    between atoms: C_4  and  N_5
REMARK    3  A    between atoms: N_5  and  C_6
REMARK    4  A    between atoms: C_9  and  O_10
REMARK    5  A    between atoms: C_11  and  C_12
REMARK    6  A    between atoms: N_14  and  CA_15
REMARK    7  A    between atoms: CA_15  and  CB_16
REMARK    8  A    between atoms: CA_15  and  C_17
REMARK    9  A    between atoms: C_17  and  O_18
REMARK   10  A    between atoms: C_21  and  O_22
REMARK   11  A    between atoms: O_22  and  C_23
REMARK                            x       y       z     vdW  Elec       q    Type
REMARK                         _______ _______ _______ _____ _____    ______ ____
ROOT
ATOM      1  N   UNK A   0       2.832   6.127  20.028  0.00  0.00    +0.000 N 
ATOM      2  H   UNK A   0       3.853   6.199  20.079  0.00  0.00    +0.000 HD
ENDROOT
BRANCH   1   6
ATOM      3  C   UNK A   0       0.064   9.961  21.442  0.00  0.00    +0.000 C 
ATOM      4  C   UNK A   0       0.836   9.271  20.352  0.00  0.00    +0.000 A 
ATOM      5  C   UNK A   0       1.515   8.070  20.655  0.00  0.00    +0.000 A 
ATOM      6  C   UNK A   0       2.249   7.370  19.688  0.00  0.00    +0.000 A 
ATOM      7  C   UNK A   0       2.393   7.955  18.428  0.00  0.00    +0.000 A 
ATOM      8  C   UNK A   0       1.775   9.169  18.127  0.00  0.00    +0.000 A 
ATOM      9  C   UNK A   0       0.936   9.800  19.054  0.00  0.00    +0.000 A 
BRANCH   9  10
ATOM     10  O   UNK A   0       0.209  10.939  18.738  0.00  0.00    +0.000 OA
BRANCH  10  11
ATOM     11  C   UNK A   0      -1.103  10.778  18.318  0.00  0.00    +0.000 A 
ATOM     12  C   UNK A   0      -1.430   9.889  17.284  0.00  0.00    +0.000 A 
ATOM     13  C   UNK A   0      -2.722   9.874  16.772  0.00  0.00    +0.000 A 
ATOM     14  F   UNK A   0      -2.997   9.113  15.705  0.00  0.00    +0.000 F 
ATOM     15  C   UNK A   0      -3.723  10.666  17.324  0.00  0.00    +0.000 A 
ATOM     16  C   UNK A   0      -3.429  11.475  18.422  0.00  0.00    +0.000 A 
ATOM     17  C   UNK A   0      -2.121  11.532  18.922  0.00  0.00    +0.000 A 
ATOM     18 CL   UNK A   0      -1.805  12.567  20.265  0.00  0.00    +0.000 Cl
ENDBRANCH  10  11
ENDBRANCH   9  10
ENDBRANCH   1   6
BRANCH   1  19
ATOM     19  C   UNK A   0       2.352   4.903  19.652  0.00  0.00    +0.000 A 
ATOM     20  S   UNK A   0       0.866   4.233  20.258  0.00  0.00    +0.000 S 
ATOM     21  N   UNK A   0       0.931   2.821  19.397  0.00  0.00    +0.000 NA
ATOM     22  C   UNK A   0       2.066   2.835  18.729  0.00  0.00    +0.000 A 
ATOM     23  C   UNK A   0       2.956   3.950  18.824  0.00  0.00    +0.000 A 
BRANCH  23  24
ATOM     24  C   UNK A   0       4.259   4.094  18.169  0.00  0.00    +0.000 C 
ATOM     25  N   UNK A   0       5.187   3.206  18.614  0.00  0.00    +0.000 N 
ATOM     26  N   ALA A   1       4.413   5.028  17.296  0.00  0.00    +0.000 NA
ATOM     27  H   UNK A   0       4.928   2.448  19.241  0.00  0.00    +0.000 HD
ATOM     28  H   UNK A   0       6.130   3.189  18.254  0.00  0.00    +0.000 HD
BRANCH  26  29
ATOM     29  CA  ALA A   1       5.715   5.165  16.614  0.00  0.00    +0.000 C 
ATOM     30  CB  ALA A   1       5.528   4.762  15.154  0.00  0.00    +0.000 C 
BRANCH  29  31
ATOM     31  C   ALA A   1       6.213   6.617  16.702  0.00  0.00    +0.000 C 
BRANCH  31  32
ATOM     32  O   ALA A   1       7.635   6.668  16.617  0.00  0.00    +0.000 OA
ATOM     33  H   ALA A   1       7.851   6.435  15.695  0.00  0.00    +0.000 HD
ENDBRANCH  31  32
ENDBRANCH  29  31
ENDBRANCH  26  29
ENDBRANCH  23  24
BRANCH  22  34
ATOM     34  O   UNK A   0       2.246   1.724  17.997  0.00  0.00    +0.000 OA
ATOM     35  H   UNK A   0       3.170   1.779  17.690  0.00  0.00    +0.000 HD
ENDBRANCH  22  34
ENDBRANCH   1  19
TORSDOF 9
ENDMDL
MODEL 2
REMARK VINA RESULT:      -8.6      0.995      1.346
REMARK  Name = 
REMARK  11 active torsions:
REMARK  status: ('A' for Active; 'I' for Inactive)
REMARK    1  A    between atoms: C_1  and  C_2
REMARK    2  A    between atoms: C_4  and  N_5
REMARK    3  A    between atoms: N_5  and  C_6
REMARK    4  A    between atoms: C_9  and  O_10
REMARK    5  A    between atoms: C_11  and  C_12
REMARK    6  A    between atoms: N_14  and  CA_15
REMARK    7  A    between atoms: CA_15  and  CB_16
REMARK    8  A    between atoms: CA_15  and  C_17
REMARK    9  A    between atoms: C_17  and  O_18
REMARK   10  A    between atoms: C_21  and  O_22
REMARK   11  A    between atoms: O_22  and  C_23
REMARK                            x       y       z     vdW  Elec       q    Type
REMARK                         _______ _______ _______ _____ _____    ______ ____
ROOT
ATOM      1  N   UNK A   0       2.733   6.302  20.178  0.00  0.00    +0.000 N 
ATOM      2  H   UNK A   0       3.697   6.441  20.499  0.00  0.00    +0.000 HD
ENDROOT
BRANCH   1   6
ATOM      3  C   UNK A   0       0.018  10.192  21.540  0.00  0.00    +0.000 C 
ATOM      4  C   UNK A   0       0.747   9.458  20.450  0.00  0.00    +0.000 A 
ATOM      5  C   UNK A   0       1.439   8.270  20.775  0.00  0.00    +0.000 A 
ATOM      6  C   UNK A   0       2.135   7.530  19.810  0.00  0.00    +0.000 A 
ATOM      7  C   UNK A   0       2.227   8.061  18.522  0.00  0.00    +0.000 A 
ATOM      8  C   UNK A   0       1.596   9.261  18.195  0.00  0.00    +0.000 A 
ATOM      9  C   UNK A   0       0.794   9.932  19.128  0.00  0.00    +0.000 A 
BRANCH   9  10
ATOM     10  O   UNK A   0       0.053  11.057  18.794  0.00  0.00    +0.000 OA
BRANCH  10  11
ATOM     11  C   UNK A   0      -1.236  10.869  18.318  0.00  0.00    +0.000 A 
ATOM     12  C   UNK A   0      -1.503   9.962  17.283  0.00  0.00    +0.000 A 
ATOM     13  C   UNK A   0      -2.771   9.920  16.714  0.00  0.00    +0.000 A 
ATOM     14  F   UNK A   0      -2.986   9.141  15.647  0.00  0.00    +0.000 F 
ATOM     15  C   UNK A   0      -3.807  10.702  17.211  0.00  0.00    +0.000 A 
ATOM     16  C   UNK A   0      -3.575  11.529  18.311  0.00  0.00    +0.000 A 
ATOM     17  C   UNK A   0      -2.292  11.614  18.867  0.00  0.00    +0.000 A 
ATOM     18 CL   UNK A   0      -2.052  12.669  20.209  0.00  0.00    +0.000 Cl
ENDBRANCH  10  11
ENDBRANCH   9  10
ENDBRANCH   1   6
BRANCH   1  19
ATOM     19  C   UNK A   0       2.485   5.095  19.583  0.00  0.00    +0.000 A 
ATOM     20  S   UNK A   0       1.152   4.070  20.024  0.00  0.00    +0.000 S 
ATOM     21  N   UNK A   0       1.471   2.867  18.934  0.00  0.00    +0.000 NA
ATOM     22  C   UNK A   0       2.581   3.204  18.310  0.00  0.00    +0.000 A 
ATOM     23  C   UNK A   0       3.250   4.429  18.620  0.00  0.00    +0.000 A 
BRANCH  23  24
ATOM     24  C   UNK A   0       4.500   4.921  18.035  0.00  0.00    +0.000 C 
ATOM     25  N   UNK A   0       4.398   5.216  16.712  0.00  0.00    +0.000 N 
ATOM     26  N   ALA A   1       5.545   4.995  18.783  0.00  0.00    +0.000 NA
ATOM     27  H   UNK A   0       3.495   5.208  16.243  0.00  0.00    +0.000 HD
ATOM     28  H   UNK A   0       5.180   5.564  16.177  0.00  0.00    +0.000 HD
BRANCH  26  29
ATOM     29  CA  ALA A   1       6.803   5.513  18.209  0.00  0.00    +0.000 C 
ATOM     30  CB  ALA A   1       7.724   5.905  19.361  0.00  0.00    +0.000 C 
BRANCH  29  31
ATOM     31  C   ALA A   1       7.474   4.438  17.339  0.00  0.00    +0.000 C 
BRANCH  31  32
ATOM     32  O   ALA A   1       7.473   4.825  15.967  0.00  0.00    +0.000 OA
ATOM     33  H   ALA A   1       6.567   4.655  15.647  0.00  0.00    +0.000 HD
ENDBRANCH  31  32
ENDBRANCH  29  31
ENDBRANCH  26  29
ENDBRANCH  23  24
BRANCH  22  34
ATOM     34  O   UNK A   0       2.959   2.290  17.402  0.00  0.00    +0.000 OA
ATOM     35  H   UNK A   0       3.444   2.800  16.727  0.00  0.00    +0.000 HD
ENDBRANCH  22  34
ENDBRANCH   1  19
TORSDOF 9
ENDMDL
MODEL 3
REMARK VINA RESULT:      -8.5      1.919      3.661
REMARK  Name = 
REMARK  11 active torsions:
REMARK  status: ('A' for Active; 'I' for Inactive)
REMARK    1  A    between atoms: C_1  and  C_2
REMARK    2  A    between atoms: C_4  and  N_5
REMARK    3  A    between atoms: N_5  and  C_6
REMARK    4  A    between atoms: C_9  and  O_10
REMARK    5  A    between atoms: C_11  and  C_12
REMARK    6  A    between atoms: N_14  and  CA_15
REMARK    7  A    between atoms: CA_15  and  CB_16
REMARK    8  A    between atoms: CA_15  and  C_17
REMARK    9  A    between atoms: C_17  and  O_18
REMARK   10  A    between atoms: C_21  and  O_22
REMARK   11  A    between atoms: O_22  and  C_23
REMARK                            x       y       z     vdW  Elec       q    Type
REMARK                         _______ _______ _______ _____ _____    ______ ____
ROOT
ATOM      1  N   UNK A   0       3.068   6.271  17.835  0.00  0.00    +0.000 N 
ATOM      2  H   UNK A   0       2.465   5.455  17.983  0.00  0.00    +0.000 HD
ENDROOT
BRANCH   1   6
ATOM      3  C   UNK A   0       0.979   8.539  21.689  0.00  0.00    +0.000 C 
ATOM      4  C   UNK A   0       1.390   8.586  20.244  0.00  0.00    +0.000 A 
ATOM      5  C   UNK A   0       2.067   7.475  19.693  0.00  0.00    +0.000 A 
ATOM      6  C   UNK A   0       2.475   7.446  18.353  0.00  0.00    +0.000 A 
ATOM      7  C   UNK A   0       2.297   8.602  17.591  0.00  0.00    +0.000 A 
ATOM      8  C   UNK A   0       1.679   9.729  18.134  0.00  0.00    +0.000 A 
ATOM      9  C   UNK A   0       1.156   9.710  19.434  0.00  0.00    +0.000 A 
BRANCH   9  10
ATOM     10  O   UNK A   0       0.426  10.769  19.954  0.00  0.00    +0.000 OA
BRANCH  10  11
ATOM     11  C   UNK A   0      -0.870  10.952  19.496  0.00  0.00    +0.000 A 
ATOM     12  C   UNK A   0      -1.437  10.083  18.554  0.00  0.00    +0.000 A 
ATOM     13  C   UNK A   0      -2.671  10.388  17.990  0.00  0.00    +0.000 A 
ATOM     14  F   UNK A   0      -3.149   9.621  17.003  0.00  0.00    +0.000 F 
ATOM     15  C   UNK A   0      -3.395  11.499  18.406  0.00  0.00    +0.000 A 
ATOM     16  C   UNK A   0      -2.885  12.310  19.420  0.00  0.00    +0.000 A 
ATOM     17  C   UNK A   0      -1.624  12.039  19.968  0.00  0.00    +0.000 A 
ATOM     18 CL   UNK A   0      -1.027  13.086  21.201  0.00  0.00    +0.000 Cl
ENDBRANCH  10  11
ENDBRANCH   9  10
ENDBRANCH   1   6
BRANCH   1  19
ATOM     19  C   UNK A   0       4.410   6.007  17.819  0.00  0.00    +0.000 A 
ATOM     20  S   UNK A   0       5.559   6.958  16.925  0.00  0.00    +0.000 S 
ATOM     21  N   UNK A   0       6.902   6.099  17.370  0.00  0.00    +0.000 NA
ATOM     22  C   UNK A   0       6.482   5.096  18.114  0.00  0.00    +0.000 A 
ATOM     23  C   UNK A   0       5.092   4.935  18.405  0.00  0.00    +0.000 A 
BRANCH  23  24
ATOM     24  C   UNK A   0       4.475   3.859  19.186  0.00  0.00    +0.000 C 
ATOM     25  N   UNK A   0       5.295   2.791  19.374  0.00  0.00    +0.000 N 
ATOM     26  N   ALA A   1       3.257   3.999  19.579  0.00  0.00    +0.000 NA
ATOM     27  H   UNK A   0       6.274   2.828  19.099  0.00  0.00    +0.000 HD
ATOM     28  H   UNK A   0       5.005   1.976  19.893  0.00  0.00    +0.000 HD
BRANCH  26  29
ATOM     29  CA  ALA A   1       2.636   2.931  20.387  0.00  0.00    +0.000 C 
ATOM     30  CB  ALA A   1       2.125   3.555  21.683  0.00  0.00    +0.000 C 
BRANCH  29  31
ATOM     31  C   ALA A   1       1.473   2.287  19.616  0.00  0.00    +0.000 C 
BRANCH  31  32
ATOM     32  O   ALA A   1       1.962   1.385  18.626  0.00  0.00    +0.000 OA
ATOM     33  H   ALA A   1       2.765   1.803  18.264  0.00  0.00    +0.000 HD
ENDBRANCH  31  32
ENDBRANCH  29  31
ENDBRANCH  26  29
ENDBRANCH  23  24
BRANCH  22  34
ATOM     34  O   UNK A   0       7.486   4.307  18.528  0.00  0.00    +0.000 OA
ATOM     35  H   UNK A   0       8.244   4.562  17.971  0.00  0.00    +0.000 HD
ENDBRANCH  22  34
ENDBRANCH   1  19
TORSDOF 9
ENDMDL
MODEL 4
REMARK VINA RESULT:      -8.4      1.235      1.809
REMARK  Name = 
REMARK  11 active torsions:
REMARK  status: ('A' for Active; 'I' for Inactive)
REMARK    1  A    between atoms: C_1  and  C_2
REMARK    2  A    between atoms: C_4  and  N_5
REMARK    3  A    between atoms: N_5  and  C_6
REMARK    4  A    between atoms: C_9  and  O_10
REMARK    5  A    between atoms: C_11  and  C_12
REMARK    6  A    between atoms: N_14  and  CA_15
REMARK    7  A    between atoms: CA_15  and  CB_16
REMARK    8  A    between atoms: CA_15  and  C_17
REMARK    9  A    between atoms: C_17  and  O_18
REMARK   10  A    between atoms: C_21  and  O_22
REMARK   11  A    between atoms: O_22  and  C_23
REMARK                            x       y       z     vdW  Elec       q    Type
REMARK                         _______ _______ _______ _____ _____    ______ ____
ROOT
ATOM      1  N   UNK A   0       2.780   5.657  20.552  0.00  0.00    +0.000 N 
ATOM      2  H   UNK A   0       3.784   5.788  20.713  0.00  0.00    +0.000 HD
ENDROOT
BRANCH   1   6
ATOM      3  C   UNK A   0       2.160   9.432  17.434  0.00  0.00    +0.000 C 
ATOM      4  C   UNK A   0       1.847   8.805  18.764  0.00  0.00    +0.000 A 
ATOM      5  C   UNK A   0       2.385   7.532  19.058  0.00  0.00    +0.000 A 
ATOM      6  C   UNK A   0       2.141   6.889  20.279  0.00  0.00    +0.000 A 
ATOM      7  C   UNK A   0       1.248   7.492  21.167  0.00  0.00    +0.000 A 
ATOM      8  C   UNK A   0       0.664   8.724  20.870  0.00  0.00    +0.000 A 
ATOM      9  C   UNK A   0       1.010   9.424  19.707  0.00  0.00    +0.000 A 
BRANCH   9  10
ATOM     10  O   UNK A   0       0.543  10.705  19.448  0.00  0.00    +0.000 OA
BRANCH  10  11
ATOM     11  C   UNK A   0      -0.795  10.855  19.118  0.00  0.00    +0.000 A 
ATOM     12  C   UNK A   0      -1.380  10.096  18.093  0.00  0.00    +0.000 A 
ATOM     13  C   UNK A   0      -2.672  10.387  17.672  0.00  0.00    +0.000 A 
ATOM     14  F   UNK A   0      -3.179   9.743  16.614  0.00  0.00    +0.000 F 
ATOM     15  C   UNK A   0      -3.431  11.364  18.306  0.00  0.00    +0.000 A 
ATOM     16  C   UNK A   0      -2.893  12.050  19.396  0.00  0.00    +0.000 A 
ATOM     17  C   UNK A   0      -1.577  11.798  19.804  0.00  0.00    +0.000 A 
ATOM     18 CL   UNK A   0      -0.951  12.690  21.140  0.00  0.00    +0.000 Cl
ENDBRANCH  10  11
ENDBRANCH   9  10
ENDBRANCH   1   6
BRANCH   1  19
ATOM     19  C   UNK A   0       2.429   4.451  20.010  0.00  0.00    +0.000 A 
ATOM     20  S   UNK A   0       1.221   3.409  20.702  0.00  0.00    +0.000 S 
ATOM     21  N   UNK A   0       1.327   2.215  19.563  0.00  0.00    +0.000 NA
ATOM     22  C   UNK A   0       2.285   2.567  18.730  0.00  0.00    +0.000 A 
ATOM     23  C   UNK A   0       2.991   3.798  18.908  0.00  0.00    +0.000 A 
BRANCH  23  24
ATOM     24  C   UNK A   0       4.094   4.306  18.089  0.00  0.00    +0.000 C 
ATOM     25  N   UNK A   0       4.034   3.899  16.793  0.00  0.00    +0.000 N 
ATOM     26  N   ALA A   1       4.998   5.031  18.649  0.00  0.00    +0.000 NA
ATOM     27  H   UNK A   0       3.220   3.403  16.437  0.00  0.00    +0.000 HD
ATOM     28  H   UNK A   0       4.728   4.171  16.112  0.00  0.00    +0.000 HD
BRANCH  26  29
ATOM     29  CA  ALA A   1       6.100   5.568  17.825  0.00  0.00    +0.000 C 
ATOM     30  CB  ALA A   1       5.665   6.926  17.281  0.00  0.00    +0.000 C 
BRANCH  29  31
ATOM     31  C   ALA A   1       7.373   5.721  18.672  0.00  0.00    +0.000 C 
BRANCH  31  32
ATOM     32  O   ALA A   1       7.125   5.351  20.027  0.00  0.00    +0.000 OA
ATOM     33  H   ALA A   1       8.003   5.299  20.449  0.00  0.00    +0.000 HD
ENDBRANCH  31  32
ENDBRANCH  29  31
ENDBRANCH  26  29
ENDBRANCH  23  24
BRANCH  22  34
ATOM     34  O   UNK A   0       2.482   1.662  17.758  0.00  0.00    +0.000 OA
ATOM     35  H   UNK A   0       1.725   1.781  17.156  0.00  0.00    +0.000 HD
ENDBRANCH  22  34
ENDBRANCH   1  19
TORSDOF 9
ENDMDL
MODEL 5
REMARK VINA RESULT:      -8.3      2.946      4.559
REMARK  Name = 
REMARK  11 active torsions:
REMARK  status: ('A' for Active; 'I' for Inactive)
REMARK    1  A    between atoms: C_1  and  C_2
REMARK    2  A    between atoms: C_4  and  N_5
REMARK    3  A    between atoms: N_5  and  C_6
REMARK    4  A    between atoms: C_9  and  O_10
REMARK    5  A    between atoms: C_11  and  C_12
REMARK    6  A    between atoms: N_14  and  CA_15
REMARK    7  A    between atoms: CA_15  and  CB_16
REMARK    8  A    between atoms: CA_15  and  C_17
REMARK    9  A    between atoms: C_17  and  O_18
REMARK   10  A    between atoms: C_21  and  O_22
REMARK   11  A    between atoms: O_22  and  C_23
REMARK                            x       y       z     vdW  Elec       q    Type
REMARK                         _______ _______ _______ _____ _____    ______ ____
ROOT
ATOM      1  N   UNK A   0       3.087   6.341  17.883  0.00  0.00    +0.000 N 
ATOM      2  H   UNK A   0       2.515   5.496  17.972  0.00  0.00    +0.000 HD
ENDROOT
BRANCH   1   6
ATOM      3  C   UNK A   0       1.101   8.577  21.809  0.00  0.00    +0.000 C 
ATOM      4  C   UNK A   0       1.376   8.589  20.331  0.00  0.00    +0.000 A 
ATOM      5  C   UNK A   0       2.123   7.530  19.771  0.00  0.00    +0.000 A 
ATOM      6  C   UNK A   0       2.413   7.472  18.401  0.00  0.00    +0.000 A 
ATOM      7  C   UNK A   0       2.040   8.559  17.608  0.00  0.00    +0.000 A 
ATOM      8  C   UNK A   0       1.349   9.641  18.155  0.00  0.00    +0.000 A 
ATOM      9  C   UNK A   0       0.948   9.635  19.497  0.00  0.00    +0.000 A 
BRANCH   9  10
ATOM     10  O   UNK A   0       0.152  10.637  20.035  0.00  0.00    +0.000 OA
BRANCH  10  11
ATOM     11  C   UNK A   0       0.467  11.952  19.731  0.00  0.00    +0.000 A 
ATOM     12  C   UNK A   0       1.569  12.590  20.320  0.00  0.00    +0.000 A 
ATOM     13  C   UNK A   0       1.760  13.953  20.128  0.00  0.00    +0.000 A 
ATOM     14  F   UNK A   0       2.741  14.579  20.791  0.00  0.00    +0.000 F 
ATOM     15  C   UNK A   0       0.926  14.684  19.290  0.00  0.00    +0.000 A 
ATOM     16  C   UNK A   0      -0.109  14.034  18.616  0.00  0.00    +0.000 A 
ATOM     17  C   UNK A   0      -0.340  12.669  18.834  0.00  0.00    +0.000 A 
ATOM     18 CL   UNK A   0      -1.647  11.918  17.996  0.00  0.00    +0.000 Cl
ENDBRANCH  10  11
ENDBRANCH   9  10
ENDBRANCH   1   6
BRANCH   1  19
ATOM     19  C   UNK A   0       4.439   6.137  17.936  0.00  0.00    +0.000 A 
ATOM     20  S   UNK A   0       5.590   7.162  17.131  0.00  0.00    +0.000 S 
ATOM     21  N   UNK A   0       6.944   6.352  17.629  0.00  0.00    +0.000 NA
ATOM     22  C   UNK A   0       6.530   5.311  18.323  0.00  0.00    +0.000 A 
ATOM     23  C   UNK A   0       5.135   5.081  18.533  0.00  0.00    +0.000 A 
BRANCH  23  24
ATOM     24  C   UNK A   0       4.527   3.958  19.251  0.00  0.00    +0.000 C 
ATOM     25  N   UNK A   0       5.335   2.868  19.333  0.00  0.00    +0.000 N 
ATOM     26  N   ALA A   1       3.324   4.085  19.693  0.00  0.00    +0.000 NA
ATOM     27  H   UNK A   0       6.305   2.912  19.029  0.00  0.00    +0.000 HD
ATOM     28  H   UNK A   0       5.048   2.020  19.798  0.00  0.00    +0.000 HD
BRANCH  26  29
ATOM     29  CA  ALA A   1       2.712   2.968  20.439  0.00  0.00    +0.000 C 
ATOM     30  CB  ALA A   1       1.951   3.553  21.626  0.00  0.00    +0.000 C 
BRANCH  29  31
ATOM     31  C   ALA A   1       1.752   2.183  19.532  0.00  0.00    +0.000 C 
BRANCH  31  32
ATOM     32  O   ALA A   1       2.477   1.369  18.613  0.00  0.00    +0.000 OA
ATOM     33  H   ALA A   1       1.985   0.529  18.561  0.00  0.00    +0.000 HD
ENDBRANCH  31  32
ENDBRANCH  29  31
ENDBRANCH  26  29
ENDBRANCH  23  24
BRANCH  22  34
ATOM     34  O   UNK A   0       7.546   4.556  18.773  0.00  0.00    +0.000 OA
ATOM     35  H   UNK A   0       7.192   3.647  18.778  0.00  0.00    +0.000 HD
ENDBRANCH  22  34
ENDBRANCH   1  19
TORSDOF 9
ENDMDL
MODEL 6
REMARK VINA RESULT:      -8.3      2.425      2.953
REMARK  Name = 
REMARK  11 active torsions:
REMARK  status: ('A' for Active; 'I' for Inactive)
REMARK    1  A    between atoms: C_1  and  C_2
REMARK    2  A    between atoms: C_4  and  N_5
REMARK    3  A    between atoms: N_5  and  C_6
REMARK    4  A    between atoms: C_9  and  O_10
REMARK    5  A    between atoms: C_11  and  C_12
REMARK    6  A    between atoms: N_14  and  CA_15
REMARK    7  A    between atoms: CA_15  and  CB_16
REMARK    8  A    between atoms: CA_15  and  C_17
REMARK    9  A    between atoms: C_17  and  O_18
REMARK   10  A    between atoms: C_21  and  O_22
REMARK   11  A    between atoms: O_22  and  C_23
REMARK                            x       y       z     vdW  Elec       q    Type
REMARK                         _______ _______ _______ _____ _____    ______ ____
ROOT
ATOM      1  N   UNK A   0       2.938   6.087  19.999  0.00  0.00    +0.000 N 
ATOM      2  H   UNK A   0       3.950   6.206  20.112  0.00  0.00    +0.000 HD
ENDROOT
BRANCH   1   6
ATOM      3  C   UNK A   0       0.147   9.926  21.354  0.00  0.00    +0.000 C 
ATOM      4  C   UNK A   0       0.894   9.205  20.266  0.00  0.00    +0.000 A 
ATOM      5  C   UNK A   0       1.606   8.030  20.593  0.00  0.00    +0.000 A 
ATOM      6  C   UNK A   0       2.319   7.304  19.629  0.00  0.00    +0.000 A 
ATOM      7  C   UNK A   0       2.406   7.838  18.342  0.00  0.00    +0.000 A 
ATOM      8  C   UNK A   0       1.754   9.026  18.014  0.00  0.00    +0.000 A 
ATOM      9  C   UNK A   0       0.936   9.681  18.944  0.00  0.00    +0.000 A 
BRANCH   9  10
ATOM     10  O   UNK A   0       0.176  10.792  18.608  0.00  0.00    +0.000 OA
BRANCH  10  11
ATOM     11  C   UNK A   0       0.765  12.043  18.726  0.00  0.00    +0.000 A 
ATOM     12  C   UNK A   0       2.057  12.286  18.238  0.00  0.00    +0.000 A 
ATOM     13  C   UNK A   0       2.683  13.495  18.521  0.00  0.00    +0.000 A 
ATOM     14  F   UNK A   0       3.959  13.673  18.158  0.00  0.00    +0.000 F 
ATOM     15  C   UNK A   0       2.019  14.504  19.208  0.00  0.00    +0.000 A 
ATOM     16  C   UNK A   0       0.696  14.308  19.604  0.00  0.00    +0.000 A 
ATOM     17  C   UNK A   0       0.066  13.080  19.364  0.00  0.00    +0.000 A 
ATOM     18 CL   UNK A   0      -1.562  12.879  19.895  0.00  0.00    +0.000 Cl
ENDBRANCH  10  11
ENDBRANCH   9  10
ENDBRANCH   1   6
BRANCH   1  19
ATOM     19  C   UNK A   0       2.540   4.844  19.589  0.00  0.00    +0.000 A 
ATOM     20  S   UNK A   0       1.149   4.026  20.236  0.00  0.00    +0.000 S 
ATOM     21  N   UNK A   0       1.282   2.664  19.306  0.00  0.00    +0.000 NA
ATOM     22  C   UNK A   0       2.374   2.803  18.583  0.00  0.00    +0.000 A 
ATOM     23  C   UNK A   0       3.174   3.983  18.686  0.00  0.00    +0.000 A 
BRANCH  23  24
ATOM     24  C   UNK A   0       4.423   4.265  17.975  0.00  0.00    +0.000 C 
ATOM     25  N   UNK A   0       4.817   3.253  17.156  0.00  0.00    +0.000 N 
ATOM     26  N   ALA A   1       5.027   5.379  18.202  0.00  0.00    +0.000 NA
ATOM     27  H   UNK A   0       4.211   2.455  16.982  0.00  0.00    +0.000 HD
ATOM     28  H   UNK A   0       5.660   3.307  16.604  0.00  0.00    +0.000 HD
BRANCH  26  29
ATOM     29  CA  ALA A   1       6.273   5.682  17.470  0.00  0.00    +0.000 C 
ATOM     30  CB  ALA A   1       6.325   7.188  17.227  0.00  0.00    +0.000 C 
BRANCH  29  31
ATOM     31  C   ALA A   1       7.494   5.238  18.292  0.00  0.00    +0.000 C 
BRANCH  31  32
ATOM     32  O   ALA A   1       7.985   3.983  17.827  0.00  0.00    +0.000 OA
ATOM     33  H   ALA A   1       8.883   3.898  18.198  0.00  0.00    +0.000 HD
ENDBRANCH  31  32
ENDBRANCH  29  31
ENDBRANCH  26  29
ENDBRANCH  23  24
BRANCH  22  34
ATOM     34  O   UNK A   0       2.604   1.744  17.790  0.00  0.00    +0.000 OA
ATOM     35  H   UNK A   0       2.818   2.130  16.921  0.00  0.00    +0.000 HD
ENDBRANCH  22  34
ENDBRANCH   1  19
TORSDOF 9
ENDMDL
MODEL 7
REMARK VINA RESULT:      -8.2      2.271      2.762
REMARK  Name = 
REMARK  11 active torsions:
REMARK  status: ('A' for Active; 'I' for Inactive)
REMARK    1  A    between atoms: C_1  and  C_2
REMARK    2  A    between atoms: C_4  and  N_5
REMARK    3  A    between atoms: N_5  and  C_6
REMARK    4  A    between atoms: C_9  and  O_10
REMARK    5  A    between atoms: C_11  and  C_12
REMARK    6  A    between atoms: N_14  and  CA_15
REMARK    7  A    between atoms: CA_15  and  CB_16
REMARK    8  A    between atoms: CA_15  and  C_17
REMARK    9  A    between atoms: C_17  and  O_18
REMARK   10  A    between atoms: C_21  and  O_22
REMARK   11  A    between atoms: O_22  and  C_23
REMARK                            x       y       z     vdW  Elec       q    Type
REMARK                         _______ _______ _______ _____ _____    ______ ____
ROOT
ATOM      1  N   UNK A   0       3.015   6.135  19.929  0.00  0.00    +0.000 N 
ATOM      2  H   UNK A   0       4.032   6.224  19.844  0.00  0.00    +0.000 HD
ENDROOT
BRANCH   1   6
ATOM      3  C   UNK A   0       0.172   9.927  21.306  0.00  0.00    +0.000 C 
ATOM      4  C   UNK A   0       0.912   9.213  20.210  0.00  0.00    +0.000 A 
ATOM      5  C   UNK A   0       1.655   8.056  20.533  0.00  0.00    +0.000 A 
ATOM      6  C   UNK A   0       2.363   7.335  19.562  0.00  0.00    +0.000 A 
ATOM      7  C   UNK A   0       2.413   7.858  18.269  0.00  0.00    +0.000 A 
ATOM      8  C   UNK A   0       1.730   9.030  17.943  0.00  0.00    +0.000 A 
ATOM      9  C   UNK A   0       0.918   9.677  18.884  0.00  0.00    +0.000 A 
BRANCH   9  10
ATOM     10  O   UNK A   0       0.128  10.769  18.553  0.00  0.00    +0.000 OA
BRANCH  10  11
ATOM     11  C   UNK A   0       0.678  12.034  18.691  0.00  0.00    +0.000 A 
ATOM     12  C   UNK A   0       1.988  12.308  18.269  0.00  0.00    +0.000 A 
ATOM     13  C   UNK A   0       2.568  13.534  18.574  0.00  0.00    +0.000 A 
ATOM     14  F   UNK A   0       3.856  13.742  18.277  0.00  0.00    +0.000 F 
ATOM     15  C   UNK A   0       1.843  14.531  19.218  0.00  0.00    +0.000 A 
ATOM     16  C   UNK A   0       0.506  14.304  19.545  0.00  0.00    +0.000 A 
ATOM     17  C   UNK A   0      -0.079  13.058  19.283  0.00  0.00    +0.000 A 
ATOM     18 CL   UNK A   0      -1.728  12.820  19.730  0.00  0.00    +0.000 Cl
ENDBRANCH  10  11
ENDBRANCH   9  10
ENDBRANCH   1   6
BRANCH   1  19
ATOM     19  C   UNK A   0       2.521   4.875  19.724  0.00  0.00    +0.000 A 
ATOM     20  S   UNK A   0       0.989   4.338  20.344  0.00  0.00    +0.000 S 
ATOM     21  N   UNK A   0       1.059   2.807  19.720  0.00  0.00    +0.000 NA
ATOM     22  C   UNK A   0       2.228   2.694  19.122  0.00  0.00    +0.000 A 
ATOM     23  C   UNK A   0       3.141   3.793  19.090  0.00  0.00    +0.000 A 
BRANCH  23  24
ATOM     24  C   UNK A   0       4.479   3.808  18.494  0.00  0.00    +0.000 C 
ATOM     25  N   UNK A   0       5.380   3.047  19.171  0.00  0.00    +0.000 N 
ATOM     26  N   ALA A   1       4.684   4.533  17.450  0.00  0.00    +0.000 NA
ATOM     27  H   UNK A   0       5.084   2.439  19.931  0.00  0.00    +0.000 HD
ATOM     28  H   UNK A   0       6.342   2.963  18.876  0.00  0.00    +0.000 HD
BRANCH  26  29
ATOM     29  CA  ALA A   1       6.023   4.535  16.829  0.00  0.00    +0.000 C 
ATOM     30  CB  ALA A   1       5.842   4.509  15.313  0.00  0.00    +0.000 C 
BRANCH  29  31
ATOM     31  C   ALA A   1       6.803   5.792  17.245  0.00  0.00    +0.000 C 
BRANCH  31  32
ATOM     32  O   ALA A   1       7.527   6.327  16.140  0.00  0.00    +0.000 OA
ATOM     33  H   ALA A   1       7.459   7.296  16.225  0.00  0.00    +0.000 HD
ENDBRANCH  31  32
ENDBRANCH  29  31
ENDBRANCH  26  29
ENDBRANCH  23  24
BRANCH  22  34
ATOM     34  O   UNK A   0       2.415   1.478  18.584  0.00  0.00    +0.000 OA
ATOM     35  H   UNK A   0       1.795   0.899  19.065  0.00  0.00    +0.000 HD
ENDBRANCH  22  34
ENDBRANCH   1  19
TORSDOF 9
ENDMDL
MODEL 8
REMARK VINA RESULT:      -8.2      2.325      2.810
REMARK  Name = 
REMARK  11 active torsions:
REMARK  status: ('A' for Active; 'I' for Inactive)
REMARK    1  A    between atoms: C_1  and  C_2
REMARK    2  A    between atoms: C_4  and  N_5
REMARK    3  A    between atoms: N_5  and  C_6
REMARK    4  A    between atoms: C_9  and  O_10
REMARK    5  A    between atoms: C_11  and  C_12
REMARK    6  A    between atoms: N_14  and  CA_15
REMARK    7  A    between atoms: CA_15  and  CB_16
REMARK    8  A    between atoms: CA_15  and  C_17
REMARK    9  A    between atoms: C_17  and  O_18
REMARK   10  A    between atoms: C_21  and  O_22
REMARK   11  A    between atoms: O_22  and  C_23
REMARK                            x       y       z     vdW  Elec       q    Type
REMARK                         _______ _______ _______ _____ _____    ______ ____
ROOT
ATOM      1  N   UNK A   0       2.882   6.173  20.097  0.00  0.00    +0.000 N 
ATOM      2  H   UNK A   0       3.865   6.389  19.904  0.00  0.00    +0.000 HD
ENDROOT
BRANCH   1   6
ATOM      3  C   UNK A   0      -0.270   9.143  22.464  0.00  0.00    +0.000 C 
ATOM      4  C   UNK A   0       0.479   8.815  21.203  0.00  0.00    +0.000 A 
ATOM      5  C   UNK A   0       1.360   7.710  21.203  0.00  0.00    +0.000 A 
ATOM      6  C   UNK A   0       2.085   7.341  20.062  0.00  0.00    +0.000 A 
ATOM      7  C   UNK A   0       2.006   8.170  18.942  0.00  0.00    +0.000 A 
ATOM      8  C   UNK A   0       1.184   9.297  18.941  0.00  0.00    +0.000 A 
ATOM      9  C   UNK A   0       0.361   9.590  20.037  0.00  0.00    +0.000 A 
BRANCH   9  10
ATOM     10  O   UNK A   0      -0.559  10.628  20.014  0.00  0.00    +0.000 OA
BRANCH  10  11
ATOM     11  C   UNK A   0      -0.082  11.915  19.811  0.00  0.00    +0.000 A 
ATOM     12  C   UNK A   0       0.881  12.475  20.663  0.00  0.00    +0.000 A 
ATOM     13  C   UNK A   0       1.213  13.819  20.537  0.00  0.00    +0.000 A 
ATOM     14  F   UNK A   0       2.040  14.377  21.430  0.00  0.00    +0.000 F 
ATOM     15  C   UNK A   0       0.669  14.601  19.524  0.00  0.00    +0.000 A 
ATOM     16  C   UNK A   0      -0.209  14.023  18.608  0.00  0.00    +0.000 A 
ATOM     17  C   UNK A   0      -0.586  12.681  18.747  0.00  0.00    +0.000 A 
ATOM     18 CL   UNK A   0      -1.694  12.020  17.603  0.00  0.00    +0.000 Cl
ENDBRANCH  10  11
ENDBRANCH   9  10
ENDBRANCH   1   6
BRANCH   1  19
ATOM     19  C   UNK A   0       2.472   4.927  19.707  0.00  0.00    +0.000 A 
ATOM     20  S   UNK A   0       1.036   4.160  20.318  0.00  0.00    +0.000 S 
ATOM     21  N   UNK A   0       1.176   2.768  19.435  0.00  0.00    +0.000 NA
ATOM     22  C   UNK A   0       2.300   2.861  18.755  0.00  0.00    +0.000 A 
ATOM     23  C   UNK A   0       3.122   4.026  18.858  0.00  0.00    +0.000 A 
BRANCH  23  24
ATOM     24  C   UNK A   0       4.406   4.258  18.191  0.00  0.00    +0.000 C 
ATOM     25  N   UNK A   0       5.371   3.372  18.555  0.00  0.00    +0.000 N 
ATOM     26  N   ALA A   1       4.513   5.255  17.384  0.00  0.00    +0.000 NA
ATOM     27  H   UNK A   0       5.149   2.564  19.133  0.00  0.00    +0.000 HD
ATOM     28  H   UNK A   0       6.306   3.411  18.178  0.00  0.00    +0.000 HD
BRANCH  26  29
ATOM     29  CA  ALA A   1       5.796   5.482  16.689  0.00  0.00    +0.000 C 
ATOM     30  CB  ALA A   1       5.529   5.474  15.187  0.00  0.00    +0.000 C 
BRANCH  29  31
ATOM     31  C   ALA A   1       6.398   6.832  17.111  0.00  0.00    +0.000 C 
BRANCH  31  32
ATOM     32  O   ALA A   1       7.742   6.951  16.649  0.00  0.00    +0.000 OA
ATOM     33  H   ALA A   1       8.245   7.322  17.398  0.00  0.00    +0.000 HD
ENDBRANCH  31  32
ENDBRANCH  29  31
ENDBRANCH  26  29
ENDBRANCH  23  24
BRANCH  22  34
ATOM     34  O   UNK A   0       2.538   1.774  18.003  0.00  0.00    +0.000 OA
ATOM     35  H   UNK A   0       3.288   2.029  17.434  0.00  0.00    +0.000 HD
ENDBRANCH  22  34
ENDBRANCH   1  19
TORSDOF 9
ENDMDL
MODEL 9
REMARK VINA RESULT:      -8.1      1.108      1.781
REMARK  Name = 
REMARK  11 active torsions:
REMARK  status: ('A' for Active; 'I' for Inactive)
REMARK    1  A    between atoms: C_1  and  C_2
REMARK    2  A    between atoms: C_4  and  N_5
REMARK    3  A    between atoms: N_5  and  C_6
REMARK    4  A    between atoms: C_9  and  O_10
REMARK    5  A    between atoms: C_11  and  C_12
REMARK    6  A    between atoms: N_14  and  CA_15
REMARK    7  A    between atoms: CA_15  and  CB_16
REMARK    8  A    between atoms: CA_15  and  C_17
REMARK    9  A    between atoms: C_17  and  O_18
REMARK   10  A    between atoms: C_21  and  O_22
REMARK   11  A    between atoms: O_22  and  C_23
REMARK                            x       y       z     vdW  Elec       q    Type
REMARK                         _______ _______ _______ _____ _____    ______ ____
ROOT
ATOM      1  N   UNK A   0       2.681   5.836  20.609  0.00  0.00    +0.000 N 
ATOM      2  H   UNK A   0       3.667   5.994  20.840  0.00  0.00    +0.000 HD
ENDROOT
BRANCH   1   6
ATOM      3  C   UNK A   0       2.016   9.640  17.535  0.00  0.00    +0.000 C 
ATOM      4  C   UNK A   0       1.699   8.986  18.850  0.00  0.00    +0.000 A 
ATOM      5  C   UNK A   0       2.263   7.723  19.135  0.00  0.00    +0.000 A 
ATOM      6  C   UNK A   0       2.017   7.056  20.343  0.00  0.00    +0.000 A 
ATOM      7  C   UNK A   0       1.095   7.624  21.225  0.00  0.00    +0.000 A 
ATOM      8  C   UNK A   0       0.486   8.845  20.937  0.00  0.00    +0.000 A 
ATOM      9  C   UNK A   0       0.832   9.571  19.789  0.00  0.00    +0.000 A 
BRANCH   9  10
ATOM     10  O   UNK A   0       0.338  10.843  19.541  0.00  0.00    +0.000 OA
BRANCH  10  11
ATOM     11  C   UNK A   0      -1.000  10.966  19.198  0.00  0.00    +0.000 A 
ATOM     12  C   UNK A   0      -1.575  10.150  18.213  0.00  0.00    +0.000 A 
ATOM     13  C   UNK A   0      -2.868  10.409  17.773  0.00  0.00    +0.000 A 
ATOM     14  F   UNK A   0      -3.366   9.706  16.748  0.00  0.00    +0.000 F 
ATOM     15  C   UNK A   0      -3.636  11.413  18.352  0.00  0.00    +0.000 A 
ATOM     16  C   UNK A   0      -3.108  12.159  19.405  0.00  0.00    +0.000 A 
ATOM     17  C   UNK A   0      -1.792  11.938  19.832  0.00  0.00    +0.000 A 
ATOM     18 CL   UNK A   0      -1.177  12.904  21.121  0.00  0.00    +0.000 Cl
ENDBRANCH  10  11
ENDBRANCH   9  10
ENDBRANCH   1   6
BRANCH   1  19
ATOM     19  C   UNK A   0       2.410   4.642  19.999  0.00  0.00    +0.000 A 
ATOM     20  S   UNK A   0       0.910   3.786  20.202  0.00  0.00    +0.000 S 
ATOM     21  N   UNK A   0       1.283   2.514  19.211  0.00  0.00    +0.000 NA
ATOM     22  C   UNK A   0       2.520   2.705  18.798  0.00  0.00    +0.000 A 
ATOM     23  C   UNK A   0       3.256   3.860  19.205  0.00  0.00    +0.000 A 
BRANCH  23  24
ATOM     24  C   UNK A   0       4.640   4.191  18.855  0.00  0.00    +0.000 C 
ATOM     25  N   UNK A   0       5.518   3.187  19.120  0.00  0.00    +0.000 N 
ATOM     26  N   ALA A   1       4.896   5.360  18.380  0.00  0.00    +0.000 NA
ATOM     27  H   UNK A   0       5.190   2.268  19.409  0.00  0.00    +0.000 HD
ATOM     28  H   UNK A   0       6.505   3.273  18.931  0.00  0.00    +0.000 HD
BRANCH  26  29
ATOM     29  CA  ALA A   1       6.284   5.692  18.001  0.00  0.00    +0.000 C 
ATOM     30  CB  ALA A   1       7.146   5.627  19.259  0.00  0.00    +0.000 C 
BRANCH  29  31
ATOM     31  C   ALA A   1       6.803   4.696  16.952  0.00  0.00    +0.000 C 
BRANCH  31  32
ATOM     32  O   ALA A   1       8.036   4.116  17.374  0.00  0.00    +0.000 OA
ATOM     33  H   ALA A   1       8.212   3.389  16.748  0.00  0.00    +0.000 HD
ENDBRANCH  31  32
ENDBRANCH  29  31
ENDBRANCH  26  29
ENDBRANCH  23  24
BRANCH  22  34
ATOM     34  O   UNK A   0       2.950   1.722  17.991  0.00  0.00    +0.000 OA
ATOM     35  H   UNK A   0       3.751   2.083  17.569  0.00  0.00    +0.000 HD
ENDBRANCH  22  34
ENDBRANCH   1  19
TORSDOF 9
ENDMDL
