MODEL 1
REMARK VINA RESULT:      -7.6      0.000      0.000
REMARK  Name = 
REMARK  4 active torsions:
REMARK  status: ('A' for Active; 'I' for Inactive)
REMARK    1  A    between atoms: C_1  and  O_2
REMARK    2  A    between atoms: O_2  and  C_3
REMARK    3  A    between atoms: C_3  and  C_5
REMARK    4  A    between atoms: C_11  and  C_12
REMARK                            x       y       z     vdW  Elec       q    Type
REMARK                         _______ _______ _______ _____ _____    ______ ____
ROOT
ATOM      1  C   UNL     1       3.953   4.192  18.232  0.00  0.00    +0.000 C 
ATOM      2  C   UNL     1       2.764   3.621  17.406  0.00  0.00    +0.000 C 
ATOM      3  C   UNL     1       2.401   2.173  17.785  0.00  0.00    +0.000 C 
ATOM      4  C   UNL     1       1.224   2.309  18.751  0.00  0.00    +0.000 C 
ATOM      5  C   UNL     1       1.239   3.788  19.084  0.00  0.00    +0.000 C 
ATOM      6  C   UNL     1       2.345   4.154  20.103  0.00  0.00    +0.000 C 
ATOM      7  C   UNL     1       3.445   5.025  19.448  0.00  0.00    +0.000 C 
ATOM      8  O   UNL     1       1.570   4.335  17.792  0.00  0.00    +0.000 OA
ENDROOT
BRANCH   7   9
ATOM      9  C   UNL     1       2.912   6.450  19.230  0.00  0.00    +0.000 A 
ATOM     10  C   UNL     1       3.063   7.169  18.035  0.00  0.00    +0.000 A 
ATOM     11  C   UNL     1       2.422   8.396  17.839  0.00  0.00    +0.000 A 
ATOM     12  C   UNL     1       1.615   8.937  18.836  0.00  0.00    +0.000 A 
ATOM     13 CL   UNL     1       0.789  10.415  18.493  0.00  0.00    +0.000 Cl
ATOM     14  C   UNL     1       1.485   8.266  20.053  0.00  0.00    +0.000 A 
ATOM     15 CL   UNL     1       0.499   8.865  21.340  0.00  0.00    +0.000 Cl
ATOM     16  C   UNL     1       2.142   7.046  20.250  0.00  0.00    +0.000 A 
ENDBRANCH   7   9
BRANCH   1  17
ATOM     17  C   UNL     1       4.995   4.907  17.390  0.00  0.00    +0.000 C 
ATOM     18  O   UNL     1       4.914   5.102  16.186  0.00  0.00    +0.000 OA
BRANCH  17  20
ATOM     19  C   UNL     1       7.321   4.727  17.673  0.00  0.00    +0.000 C 
ATOM     20  O   UNL     1       6.078   5.232  18.161  0.00  0.00    +0.000 OA
ENDBRANCH  17  20
ENDBRANCH   1  17
TORSDOF 3
ENDMDL
MODEL 2
REMARK VINA RESULT:      -7.6      0.794      1.090
REMARK  Name = 
REMARK  4 active torsions:
REMARK  status: ('A' for Active; 'I' for Inactive)
REMARK    1  A    between atoms: C_1  and  O_2
REMARK    2  A    between atoms: O_2  and  C_3
REMARK    3  A    between atoms: C_3  and  C_5
REMARK    4  A    between atoms: C_11  and  C_12
REMARK                            x       y       z     vdW  Elec       q    Type
REMARK                         _______ _______ _______ _____ _____    ______ ____
ROOT
ATOM      1  C   UNL     1       4.173   3.932  19.215  0.00  0.00    +0.000 C 
ATOM      2  C   UNL     1       3.453   3.327  17.976  0.00  0.00    +0.000 C 
ATOM      3  C   UNL     1       2.913   1.905  18.222  0.00  0.00    +0.000 C 
ATOM      4  C   UNL     1       1.435   2.106  18.559  0.00  0.00    +0.000 C 
ATOM      5  C   UNL     1       1.350   3.601  18.795  0.00  0.00    +0.000 C 
ATOM      6  C   UNL     1       1.904   4.013  20.180  0.00  0.00    +0.000 C 
ATOM      7  C   UNL     1       3.208   4.837  20.041  0.00  0.00    +0.000 C 
ATOM      8  O   UNL     1       2.236   4.072  17.760  0.00  0.00    +0.000 OA
ENDROOT
BRANCH   7   9
ATOM      9  C   UNL     1       2.873   6.252  19.544  0.00  0.00    +0.000 A 
ATOM     10  C   UNL     1       3.270   6.758  18.296  0.00  0.00    +0.000 A 
ATOM     11  C   UNL     1       2.803   7.992  17.832  0.00  0.00    +0.000 A 
ATOM     12  C   UNL     1       1.931   8.753  18.605  0.00  0.00    +0.000 A 
ATOM     13 CL   UNL     1       1.332  10.227  17.933  0.00  0.00    +0.000 Cl
ATOM     14  C   UNL     1       1.558   8.295  19.870  0.00  0.00    +0.000 A 
ATOM     15 CL   UNL     1       0.476   9.174  20.891  0.00  0.00    +0.000 Cl
ATOM     16  C   UNL     1       2.040   7.067  20.337  0.00  0.00    +0.000 A 
ENDBRANCH   7   9
BRANCH   1  17
ATOM     17  C   UNL     1       5.503   4.590  18.891  0.00  0.00    +0.000 C 
ATOM     18  O   UNL     1       6.219   5.163  19.698  0.00  0.00    +0.000 OA
BRANCH  17  20
ATOM     19  C   UNL     1       7.127   4.610  17.193  0.00  0.00    +0.000 C 
ATOM     20  O   UNL     1       5.747   4.516  17.547  0.00  0.00    +0.000 OA
ENDBRANCH  17  20
ENDBRANCH   1  17
TORSDOF 3
ENDMDL
MODEL 3
REMARK VINA RESULT:      -7.5      1.411      3.973
REMARK  Name = 
REMARK  4 active torsions:
REMARK  status: ('A' for Active; 'I' for Inactive)
REMARK    1  A    between atoms: C_1  and  O_2
REMARK    2  A    between atoms: O_2  and  C_3
REMARK    3  A    between atoms: C_3  and  C_5
REMARK    4  A    between atoms: C_11  and  C_12
REMARK                            x       y       z     vdW  Elec       q    Type
REMARK                         _______ _______ _______ _____ _____    ______ ____
ROOT
ATOM      1  C   UNL     1       4.913   4.033  17.805  0.00  0.00    +0.000 C 
ATOM      2  C   UNL     1       6.208   4.660  18.396  0.00  0.00    +0.000 C 
ATOM      3  C   UNL     1       7.378   4.692  17.394  0.00  0.00    +0.000 C 
ATOM      4  C   UNL     1       7.358   6.110  16.822  0.00  0.00    +0.000 C 
ATOM      5  C   UNL     1       6.015   6.635  17.288  0.00  0.00    +0.000 C 
ATOM      6  C   UNL     1       4.840   6.089  16.442  0.00  0.00    +0.000 C 
ATOM      7  C   UNL     1       3.946   5.135  17.273  0.00  0.00    +0.000 C 
ATOM      8  O   UNL     1       5.965   6.066  18.612  0.00  0.00    +0.000 OA
ENDROOT
BRANCH   7   9
ATOM      9  C   UNL     1       3.101   5.953  18.262  0.00  0.00    +0.000 A 
ATOM     10  C   UNL     1       2.767   5.519  19.554  0.00  0.00    +0.000 A 
ATOM     11  C   UNL     1       2.132   6.369  20.465  0.00  0.00    +0.000 A 
ATOM     12  C   UNL     1       1.810   7.676  20.105  0.00  0.00    +0.000 A 
ATOM     13 CL   UNL     1       1.101   8.693  21.306  0.00  0.00    +0.000 Cl
ATOM     14  C   UNL     1       2.088   8.118  18.811  0.00  0.00    +0.000 A 
ATOM     15 CL   UNL     1       1.727   9.724  18.284  0.00  0.00    +0.000 Cl
ATOM     16  C   UNL     1       2.710   7.258  17.897  0.00  0.00    +0.000 A 
ENDBRANCH   7   9
BRANCH   1  17
ATOM     17  C   UNL     1       4.246   3.024  18.724  0.00  0.00    +0.000 C 
ATOM     18  O   UNL     1       4.633   2.734  19.847  0.00  0.00    +0.000 OA
BRANCH  17  20
ATOM     19  C   UNL     1       2.153   1.982  18.951  0.00  0.00    +0.000 C 
ATOM     20  O   UNL     1       3.195   2.428  18.083  0.00  0.00    +0.000 OA
ENDBRANCH  17  20
ENDBRANCH   1  17
TORSDOF 3
ENDMDL
MODEL 4
REMARK VINA RESULT:      -7.1      1.289      3.776
REMARK  Name = 
REMARK  4 active torsions:
REMARK  status: ('A' for Active; 'I' for Inactive)
REMARK    1  A    between atoms: C_1  and  O_2
REMARK    2  A    between atoms: O_2  and  C_3
REMARK    3  A    between atoms: C_3  and  C_5
REMARK    4  A    between atoms: C_11  and  C_12
REMARK                            x       y       z     vdW  Elec       q    Type
REMARK                         _______ _______ _______ _____ _____    ______ ____
ROOT
ATOM      1  C   UNL     1       4.529   4.425  17.163  0.00  0.00    +0.000 C 
ATOM      2  C   UNL     1       5.747   4.423  18.131  0.00  0.00    +0.000 C 
ATOM      3  C   UNL     1       7.102   4.499  17.403  0.00  0.00    +0.000 C 
ATOM      4  C   UNL     1       7.490   5.977  17.460  0.00  0.00    +0.000 C 
ATOM      5  C   UNL     1       6.202   6.639  17.908  0.00  0.00    +0.000 C 
ATOM      6  C   UNL     1       5.174   6.772  16.758  0.00  0.00    +0.000 C 
ATOM      7  C   UNL     1       3.944   5.861  16.996  0.00  0.00    +0.000 C 
ATOM      8  O   UNL     1       5.736   5.667  18.864  0.00  0.00    +0.000 OA
ENDROOT
BRANCH   7   9
ATOM      9  C   UNL     1       3.066   6.462  18.105  0.00  0.00    +0.000 A 
ATOM     10  C   UNL     1       2.786   5.818  19.320  0.00  0.00    +0.000 A 
ATOM     11  C   UNL     1       2.113   6.477  20.353  0.00  0.00    +0.000 A 
ATOM     12  C   UNL     1       1.698   7.797  20.197  0.00  0.00    +0.000 A 
ATOM     13 CL   UNL     1       0.946   8.573  21.544  0.00  0.00    +0.000 Cl
ATOM     14  C   UNL     1       1.922   8.446  18.982  0.00  0.00    +0.000 A 
ATOM     15 CL   UNL     1       1.445  10.084  18.706  0.00  0.00    +0.000 Cl
ATOM     16  C   UNL     1       2.582   7.777  17.944  0.00  0.00    +0.000 A 
ENDBRANCH   7   9
BRANCH   1  17
ATOM     17  C   UNL     1       3.485   3.372  17.491  0.00  0.00    +0.000 C 
ATOM     18  O   UNL     1       2.409   3.249  16.923  0.00  0.00    +0.000 OA
BRANCH  17  20
ATOM     19  C   UNL     1       2.818   2.106  19.354  0.00  0.00    +0.000 C 
ATOM     20  O   UNL     1       3.888   2.630  18.567  0.00  0.00    +0.000 OA
ENDBRANCH  17  20
ENDBRANCH   1  17
TORSDOF 3
ENDMDL
MODEL 5
REMARK VINA RESULT:      -6.6      0.921      1.672
REMARK  Name = 
REMARK  4 active torsions:
REMARK  status: ('A' for Active; 'I' for Inactive)
REMARK    1  A    between atoms: C_1  and  O_2
REMARK    2  A    between atoms: O_2  and  C_3
REMARK    3  A    between atoms: C_3  and  C_5
REMARK    4  A    between atoms: C_11  and  C_12
REMARK                            x       y       z     vdW  Elec       q    Type
REMARK                         _______ _______ _______ _____ _____    ______ ____
ROOT
ATOM      1  C   UNL     1       3.697   4.537  18.517  0.00  0.00    +0.000 C 
ATOM      2  C   UNL     1       2.593   3.927  17.607  0.00  0.00    +0.000 C 
ATOM      3  C   UNL     1       2.498   2.393  17.711  0.00  0.00    +0.000 C 
ATOM      4  C   UNL     1       1.353   2.142  18.692  0.00  0.00    +0.000 C 
ATOM      5  C   UNL     1       1.127   3.514  19.295  0.00  0.00    +0.000 C 
ATOM      6  C   UNL     1       2.192   3.876  20.358  0.00  0.00    +0.000 C 
ATOM      7  C   UNL     1       3.102   5.032  19.871  0.00  0.00    +0.000 C 
ATOM      8  O   UNL     1       1.310   4.338  18.126  0.00  0.00    +0.000 OA
ENDROOT
BRANCH   7   9
ATOM      9  C   UNL     1       2.324   6.356  19.925  0.00  0.00    +0.000 A 
ATOM     10  C   UNL     1       1.560   6.773  21.027  0.00  0.00    +0.000 A 
ATOM     11  C   UNL     1       1.005   8.055  21.083  0.00  0.00    +0.000 A 
ATOM     12  C   UNL     1       1.195   8.953  20.036  0.00  0.00    +0.000 A 
ATOM     13 CL   UNL     1       0.549  10.545  20.210  0.00  0.00    +0.000 Cl
ATOM     14  C   UNL     1       1.910   8.548  18.908  0.00  0.00    +0.000 A 
ATOM     15 CL   UNL     1       2.197   9.601  17.567  0.00  0.00    +0.000 Cl
ATOM     16  C   UNL     1       2.451   7.258  18.849  0.00  0.00    +0.000 A 
ENDBRANCH   7   9
BRANCH   1  17
ATOM     17  C   UNL     1       4.568   5.566  17.818  0.00  0.00    +0.000 C 
ATOM     18  O   UNL     1       4.384   5.990  16.686  0.00  0.00    +0.000 OA
BRANCH  17  20
ATOM     19  C   UNL     1       6.827   5.160  18.318  0.00  0.00    +0.000 C 
ATOM     20  O   UNL     1       5.636   5.892  18.608  0.00  0.00    +0.000 OA
ENDBRANCH  17  20
ENDBRANCH   1  17
TORSDOF 3
ENDMDL
MODEL 6
REMARK VINA RESULT:      -6.6      1.111      1.977
REMARK  Name = 
REMARK  4 active torsions:
REMARK  status: ('A' for Active; 'I' for Inactive)
REMARK    1  A    between atoms: C_1  and  O_2
REMARK    2  A    between atoms: O_2  and  C_3
REMARK    3  A    between atoms: C_3  and  C_5
REMARK    4  A    between atoms: C_11  and  C_12
REMARK                            x       y       z     vdW  Elec       q    Type
REMARK                         _______ _______ _______ _____ _____    ______ ____
ROOT
ATOM      1  C   UNL     1       3.649   4.291  18.786  0.00  0.00    +0.000 C 
ATOM      2  C   UNL     1       2.609   3.746  17.765  0.00  0.00    +0.000 C 
ATOM      3  C   UNL     1       2.417   2.220  17.850  0.00  0.00    +0.000 C 
ATOM      4  C   UNL     1       1.166   2.034  18.709  0.00  0.00    +0.000 C 
ATOM      5  C   UNL     1       0.959   3.417  19.295  0.00  0.00    +0.000 C 
ATOM      6  C   UNL     1       1.931   3.717  20.462  0.00  0.00    +0.000 C 
ATOM      7  C   UNL     1       2.949   4.818  20.076  0.00  0.00    +0.000 C 
ATOM      8  O   UNL     1       1.306   4.229  18.156  0.00  0.00    +0.000 OA
ENDROOT
BRANCH   7   9
ATOM      9  C   UNL     1       2.247   6.185  20.060  0.00  0.00    +0.000 A 
ATOM     10  C   UNL     1       1.462   6.676  21.115  0.00  0.00    +0.000 A 
ATOM     11  C   UNL     1       0.979   7.988  21.112  0.00  0.00    +0.000 A 
ATOM     12  C   UNL     1       1.265   8.843  20.050  0.00  0.00    +0.000 A 
ATOM     13 CL   UNL     1       0.704  10.473  20.153  0.00  0.00    +0.000 Cl
ATOM     14  C   UNL     1       2.003   8.367  18.966  0.00  0.00    +0.000 A 
ATOM     15 CL   UNL     1       2.408   9.361  17.612  0.00  0.00    +0.000 Cl
ATOM     16  C   UNL     1       2.471   7.047  18.967  0.00  0.00    +0.000 A 
ENDBRANCH   7   9
BRANCH   1  17
ATOM     17  C   UNL     1       4.644   5.268  18.184  0.00  0.00    +0.000 C 
ATOM     18  O   UNL     1       5.536   5.831  18.801  0.00  0.00    +0.000 OA
BRANCH  17  20
ATOM     19  C   UNL     1       5.033   6.598  16.287  0.00  0.00    +0.000 C 
ATOM     20  O   UNL     1       4.346   5.489  16.868  0.00  0.00    +0.000 OA
ENDBRANCH  17  20
ENDBRANCH   1  17
TORSDOF 3
ENDMDL
MODEL 7
REMARK VINA RESULT:      -6.5      2.226      3.710
REMARK  Name = 
REMARK  4 active torsions:
REMARK  status: ('A' for Active; 'I' for Inactive)
REMARK    1  A    between atoms: C_1  and  O_2
REMARK    2  A    between atoms: O_2  and  C_3
REMARK    3  A    between atoms: C_3  and  C_5
REMARK    4  A    between atoms: C_11  and  C_12
REMARK                            x       y       z     vdW  Elec       q    Type
REMARK                         _______ _______ _______ _____ _____    ______ ____
ROOT
ATOM      1  C   UNL     1       6.917   5.280  17.070  0.00  0.00    +0.000 C 
ATOM      2  C   UNL     1       6.744   5.645  15.568  0.00  0.00    +0.000 C 
ATOM      3  C   UNL     1       7.075   4.479  14.617  0.00  0.00    +0.000 C 
ATOM      4  C   UNL     1       5.719   3.862  14.274  0.00  0.00    +0.000 C 
ATOM      5  C   UNL     1       4.797   4.503  15.293  0.00  0.00    +0.000 C 
ATOM      6  C   UNL     1       4.931   3.865  16.697  0.00  0.00    +0.000 C 
ATOM      7  C   UNL     1       5.559   4.856  17.707  0.00  0.00    +0.000 C 
ATOM      8  O   UNL     1       5.336   5.840  15.316  0.00  0.00    +0.000 OA
ENDROOT
BRANCH   7   9
ATOM      9  C   UNL     1       4.525   5.928  18.086  0.00  0.00    +0.000 A 
ATOM     10  C   UNL     1       4.317   7.109  17.358  0.00  0.00    +0.000 A 
ATOM     11  C   UNL     1       3.257   7.970  17.658  0.00  0.00    +0.000 A 
ATOM     12  C   UNL     1       2.380   7.675  18.698  0.00  0.00    +0.000 A 
ATOM     13 CL   UNL     1       1.047   8.742  18.958  0.00  0.00    +0.000 Cl
ATOM     14  C   UNL     1       2.591   6.531  19.469  0.00  0.00    +0.000 A 
ATOM     15 CL   UNL     1       1.548   6.088  20.773  0.00  0.00    +0.000 Cl
ATOM     16  C   UNL     1       3.664   5.680  19.175  0.00  0.00    +0.000 A 
ENDBRANCH   7   9
BRANCH   1  17
ATOM     17  C   UNL     1       7.671   6.327  17.872  0.00  0.00    +0.000 C 
ATOM     18  O   UNL     1       7.923   6.251  19.065  0.00  0.00    +0.000 OA
BRANCH  17  20
ATOM     19  C   UNL     1       7.837   8.667  17.740  0.00  0.00    +0.000 C 
ATOM     20  O   UNL     1       7.958   7.406  17.081  0.00  0.00    +0.000 OA
ENDBRANCH  17  20
ENDBRANCH   1  17
TORSDOF 3
ENDMDL
MODEL 8
REMARK VINA RESULT:      -6.5      2.623      4.486
REMARK  Name = 
REMARK  4 active torsions:
REMARK  status: ('A' for Active; 'I' for Inactive)
REMARK    1  A    between atoms: C_1  and  O_2
REMARK    2  A    between atoms: O_2  and  C_3
REMARK    3  A    between atoms: C_3  and  C_5
REMARK    4  A    between atoms: C_11  and  C_12
REMARK                            x       y       z     vdW  Elec       q    Type
REMARK                         _______ _______ _______ _____ _____    ______ ____
ROOT
ATOM      1  C   UNL     1       7.128   5.386  16.887  0.00  0.00    +0.000 C 
ATOM      2  C   UNL     1       6.395   5.878  15.606  0.00  0.00    +0.000 C 
ATOM      3  C   UNL     1       6.862   5.159  14.326  0.00  0.00    +0.000 C 
ATOM      4  C   UNL     1       5.819   4.066  14.093  0.00  0.00    +0.000 C 
ATOM      5  C   UNL     1       5.062   4.047  15.406  0.00  0.00    +0.000 C 
ATOM      6  C   UNL     1       5.838   3.314  16.527  0.00  0.00    +0.000 C 
ATOM      7  C   UNL     1       6.294   4.299  17.632  0.00  0.00    +0.000 C 
ATOM      8  O   UNL     1       5.017   5.459  15.693  0.00  0.00    +0.000 OA
ENDROOT
BRANCH   7   9
ATOM      9  C   UNL     1       5.083   4.714  18.482  0.00  0.00    +0.000 A 
ATOM     10  C   UNL     1       4.466   5.972  18.406  0.00  0.00    +0.000 A 
ATOM     11  C   UNL     1       3.274   6.238  19.087  0.00  0.00    +0.000 A 
ATOM     12  C   UNL     1       2.671   5.255  19.866  0.00  0.00    +0.000 A 
ATOM     13 CL   UNL     1       1.159   5.629  20.612  0.00  0.00    +0.000 Cl
ATOM     14  C   UNL     1       3.289   4.010  19.998  0.00  0.00    +0.000 A 
ATOM     15 CL   UNL     1       2.606   2.733  20.940  0.00  0.00    +0.000 Cl
ATOM     16  C   UNL     1       4.491   3.753  19.327  0.00  0.00    +0.000 A 
ENDBRANCH   7   9
BRANCH   1  17
ATOM     17  C   UNL     1       7.611   6.511  17.786  0.00  0.00    +0.000 C 
ATOM     18  O   UNL     1       8.019   6.371  18.930  0.00  0.00    +0.000 OA
BRANCH  17  20
ATOM     19  C   UNL     1       8.022   8.823  17.854  0.00  0.00    +0.000 C 
ATOM     20  O   UNL     1       7.449   7.715  17.158  0.00  0.00    +0.000 OA
ENDBRANCH  17  20
ENDBRANCH   1  17
TORSDOF 3
ENDMDL
MODEL 9
REMARK VINA RESULT:      -6.4      1.391      3.708
REMARK  Name = 
REMARK  4 active torsions:
REMARK  status: ('A' for Active; 'I' for Inactive)
REMARK    1  A    between atoms: C_1  and  O_2
REMARK    2  A    between atoms: O_2  and  C_3
REMARK    3  A    between atoms: C_3  and  C_5
REMARK    4  A    between atoms: C_11  and  C_12
REMARK                            x       y       z     vdW  Elec       q    Type
REMARK                         _______ _______ _______ _____ _____    ______ ____
ROOT
ATOM      1  C   UNL     1       3.344   4.125  18.434  0.00  0.00    +0.000 C 
ATOM      2  C   UNL     1       4.682   4.269  19.215  0.00  0.00    +0.000 C 
ATOM      3  C   UNL     1       5.916   3.872  18.383  0.00  0.00    +0.000 C 
ATOM      4  C   UNL     1       6.472   5.196  17.859  0.00  0.00    +0.000 C 
ATOM      5  C   UNL     1       5.346   6.167  18.154  0.00  0.00    +0.000 C 
ATOM      6  C   UNL     1       4.183   6.051  17.140  0.00  0.00    +0.000 C 
ATOM      7  C   UNL     1       2.906   5.486  17.811  0.00  0.00    +0.000 C 
ATOM      8  O   UNL     1       4.918   5.675  19.440  0.00  0.00    +0.000 OA
ENDROOT
BRANCH   7   9
ATOM      9  C   UNL     1       2.272   6.566  18.702  0.00  0.00    +0.000 A 
ATOM     10  C   UNL     1       1.955   6.379  20.056  0.00  0.00    +0.000 A 
ATOM     11  C   UNL     1       1.528   7.443  20.855  0.00  0.00    +0.000 A 
ATOM     12  C   UNL     1       1.402   8.723  20.320  0.00  0.00    +0.000 A 
ATOM     13 CL   UNL     1       0.948  10.003  21.386  0.00  0.00    +0.000 Cl
ATOM     14  C   UNL     1       1.665   8.927  18.965  0.00  0.00    +0.000 A 
ATOM     15 CL   UNL     1       1.539  10.482  18.222  0.00  0.00    +0.000 Cl
ATOM     16  C   UNL     1       2.077   7.855  18.164  0.00  0.00    +0.000 A 
ENDBRANCH   7   9
BRANCH   1  17
ATOM     17  C   UNL     1       2.247   3.430  19.223  0.00  0.00    +0.000 C 
ATOM     18  O   UNL     1       1.093   3.289  18.846  0.00  0.00    +0.000 OA
BRANCH  17  20
ATOM     19  C   UNL     1       1.705   2.888  21.443  0.00  0.00    +0.000 C 
ATOM     20  O   UNL     1       2.718   3.055  20.451  0.00  0.00    +0.000 OA
ENDBRANCH  17  20
ENDBRANCH   1  17
TORSDOF 3
ENDMDL
