MODEL 1
REMARK VINA RESULT:      -7.3      0.000      0.000
REMARK  Name = 
REMARK  12 active torsions:
REMARK  status: ('A' for Active; 'I' for Inactive)
REMARK    1  A    between atoms: C_1  and  C_2
REMARK    2  A    between atoms: C_2  and  N_3
REMARK    3  A    between atoms: N_3  and  C_4
REMARK    4  A    between atoms: N_3  and  S_6
REMARK    5  A    between atoms: C_4  and  C_5
REMARK    6  A    between atoms: S_6  and  C_9
REMARK    7  A    between atoms: C_12  and  N_13
REMARK    8  A    between atoms: C_18  and  N_19
REMARK    9  A    between atoms: C_20  and  C_22
REMARK   10  A    between atoms: C_22  and  C_23
REMARK   11  A    between atoms: C_26  and  O_27
REMARK   12  A    between atoms: O_27  and  C_28
REMARK                            x       y       z     vdW  Elec       q    Type
REMARK                         _______ _______ _______ _____ _____    ______ ____
ROOT
ATOM      1  C   UNL     1       5.712   4.918  17.144  0.00  0.00    +0.000 A 
ATOM      2  C   UNL     1       5.630   3.804  17.975  0.00  0.00    +0.000 A 
ATOM      3  C   UNL     1       4.454   3.564  18.711  0.00  0.00    +0.000 A 
ATOM      4  C   UNL     1       3.341   4.425  18.667  0.00  0.00    +0.000 A 
ATOM      5  C   UNL     1       3.457   5.523  17.770  0.00  0.00    +0.000 A 
ATOM      6  C   UNL     1       4.610   5.751  16.994  0.00  0.00    +0.000 A 
ENDROOT
BRANCH   4   7
ATOM      7  N   UNL     1       2.199   4.215  19.449  0.00  0.00    +0.000 N 
ATOM      8  C   UNL     1       2.206   4.272  20.917  0.00  0.00    +0.000 C 
ATOM      9  C   UNL     1       1.389   3.063  21.363  0.00  0.00    +0.000 C 
ATOM     10  C   UNL     1       0.368   2.911  20.259  0.00  0.00    +0.000 C 
ATOM     11  C   UNL     1       1.143   3.286  18.998  0.00  0.00    +0.000 C 
ENDBRANCH   4   7
BRANCH   5  12
ATOM     12  N   UNL     1       2.466   6.524  17.773  0.00  0.00    +0.000 N 
ATOM     13  C   UNL     1       2.776   7.870  17.855  0.00  0.00    +0.000 C 
ATOM     14  O   UNL     1       3.912   8.329  17.952  0.00  0.00    +0.000 OA
ATOM     15  H   UNL     1       1.617   6.264  17.288  0.00  0.00    +0.000 HD
BRANCH  13  16
ATOM     16  C   UNL     1       1.554   8.778  17.801  0.00  0.00    +0.000 C 
BRANCH  16  17
ATOM     17  C   UNL     1       1.130   9.223  19.176  0.00  0.00    +0.000 A 
ATOM     18  C   UNL     1       0.515  10.469  19.348  0.00  0.00    +0.000 A 
ATOM     19  C   UNL     1       0.181  10.919  20.626  0.00  0.00    +0.000 A 
ATOM     20  C   UNL     1       0.425  10.125  21.743  0.00  0.00    +0.000 A 
ATOM     21  C   UNL     1       1.014   8.875  21.579  0.00  0.00    +0.000 A 
ATOM     22  C   UNL     1       1.365   8.420  20.298  0.00  0.00    +0.000 A 
BRANCH  20  23
ATOM     23  O   UNL     1       0.089  10.697  22.939  0.00  0.00    +0.000 OA
ATOM     24  C   UNL     1      -1.291  10.966  23.139  0.00  0.00    +0.000 C 
ENDBRANCH  20  23
ENDBRANCH  16  17
ENDBRANCH  13  16
ENDBRANCH   5  12
BRANCH   1  25
ATOM     25  S   UNL     1       7.220   5.281  16.267  0.00  0.00    +0.000 S 
ATOM     26  O   UNL     1       8.174   4.248  16.613  0.00  0.00    +0.000 OA
ATOM     27  O   UNL     1       7.530   6.680  16.470  0.00  0.00    +0.000 OA
BRANCH  25  28
ATOM     28  N   UNL     1       6.794   5.091  14.607  0.00  0.00    +0.000 NA
BRANCH  28  30
ATOM     29  C   UNL     1       7.682   4.997  12.253  0.00  0.00    +0.000 C 
ATOM     30  C   UNL     1       7.798   5.624  13.637  0.00  0.00    +0.000 C 
ENDBRANCH  28  30
BRANCH  28  31
ATOM     31  C   UNL     1       6.236   3.744  14.272  0.00  0.00    +0.000 C 
ATOM     32  C   UNL     1       4.904   3.797  13.542  0.00  0.00    +0.000 C 
ENDBRANCH  28  31
ENDBRANCH  25  28
ENDBRANCH   1  25
TORSDOF 9
ENDMDL
MODEL 2
REMARK VINA RESULT:      -7.3      3.148      5.954
REMARK  Name = 
REMARK  12 active torsions:
REMARK  status: ('A' for Active; 'I' for Inactive)
REMARK    1  A    between atoms: C_1  and  C_2
REMARK    2  A    between atoms: C_2  and  N_3
REMARK    3  A    between atoms: N_3  and  C_4
REMARK    4  A    between atoms: N_3  and  S_6
REMARK    5  A    between atoms: C_4  and  C_5
REMARK    6  A    between atoms: S_6  and  C_9
REMARK    7  A    between atoms: C_12  and  N_13
REMARK    8  A    between atoms: C_18  and  N_19
REMARK    9  A    between atoms: C_20  and  C_22
REMARK   10  A    between atoms: C_22  and  C_23
REMARK   11  A    between atoms: C_26  and  O_27
REMARK   12  A    between atoms: O_27  and  C_28
REMARK                            x       y       z     vdW  Elec       q    Type
REMARK                         _______ _______ _______ _____ _____    ______ ____
ROOT
ATOM      1  C   UNL     1       2.382   7.347  18.809  0.00  0.00    +0.000 A 
ATOM      2  C   UNL     1       2.629   8.279  17.804  0.00  0.00    +0.000 A 
ATOM      3  C   UNL     1       2.094   9.577  17.905  0.00  0.00    +0.000 A 
ATOM      4  C   UNL     1       1.285   9.984  18.983  0.00  0.00    +0.000 A 
ATOM      5  C   UNL     1       1.099   9.011  20.005  0.00  0.00    +0.000 A 
ATOM      6  C   UNL     1       1.665   7.722  19.938  0.00  0.00    +0.000 A 
ENDROOT
BRANCH   4   7
ATOM      7  N   UNL     1       0.704  11.255  19.048  0.00  0.00    +0.000 N 
ATOM      8  C   UNL     1      -0.685  11.528  18.653  0.00  0.00    +0.000 C 
ATOM      9  C   UNL     1      -0.616  12.808  17.826  0.00  0.00    +0.000 C 
ATOM     10  C   UNL     1       0.532  13.563  18.456  0.00  0.00    +0.000 C 
ATOM     11  C   UNL     1       1.524  12.465  18.830  0.00  0.00    +0.000 C 
ENDBRANCH   4   7
BRANCH   5  12
ATOM     12  N   UNL     1       0.180   9.265  21.042  0.00  0.00    +0.000 N 
ATOM     13  C   UNL     1       0.584   9.590  22.324  0.00  0.00    +0.000 C 
ATOM     14  O   UNL     1       1.753   9.673  22.697  0.00  0.00    +0.000 OA
ATOM     15  H   UNL     1      -0.711   9.620  20.723  0.00  0.00    +0.000 HD
BRANCH  13  16
ATOM     16  C   UNL     1      -0.575   9.863  23.275  0.00  0.00    +0.000 C 
BRANCH  16  17
ATOM     17  C   UNL     1      -1.196  11.211  23.021  0.00  0.00    +0.000 A 
ATOM     18  C   UNL     1      -2.487  11.484  23.490  0.00  0.00    +0.000 A 
ATOM     19  C   UNL     1      -3.097  12.706  23.200  0.00  0.00    +0.000 A 
ATOM     20  C   UNL     1      -2.421  13.680  22.471  0.00  0.00    +0.000 A 
ATOM     21  C   UNL     1      -1.129  13.426  22.021  0.00  0.00    +0.000 A 
ATOM     22  C   UNL     1      -0.512  12.195  22.297  0.00  0.00    +0.000 A 
BRANCH  20  23
ATOM     23  O   UNL     1      -3.143  14.814  22.220  0.00  0.00    +0.000 OA
ATOM     24  C   UNL     1      -4.557  14.678  22.262  0.00  0.00    +0.000 C 
ENDBRANCH  20  23
ENDBRANCH  16  17
ENDBRANCH  13  16
ENDBRANCH   5  12
BRANCH   1  25
ATOM     25  S   UNL     1       2.983   5.677  18.659  0.00  0.00    +0.000 S 
ATOM     26  O   UNL     1       1.933   4.900  18.035  0.00  0.00    +0.000 OA
ATOM     27  O   UNL     1       3.541   5.286  19.936  0.00  0.00    +0.000 OA
BRANCH  25  28
ATOM     28  N   UNL     1       4.297   5.804  17.548  0.00  0.00    +0.000 NA
BRANCH  28  30
ATOM     29  C   UNL     1       6.515   6.966  17.297  0.00  0.00    +0.000 C 
ATOM     30  C   UNL     1       5.621   6.099  18.175  0.00  0.00    +0.000 C 
ENDBRANCH  28  30
BRANCH  28  31
ATOM     31  C   UNL     1       4.311   4.738  16.498  0.00  0.00    +0.000 C 
ATOM     32  C   UNL     1       4.857   3.407  16.984  0.00  0.00    +0.000 C 
ENDBRANCH  28  31
ENDBRANCH  25  28
ENDBRANCH   1  25
TORSDOF 9
ENDMDL
MODEL 3
REMARK VINA RESULT:      -7.1      1.666      2.325
REMARK  Name = 
REMARK  12 active torsions:
REMARK  status: ('A' for Active; 'I' for Inactive)
REMARK    1  A    between atoms: C_1  and  C_2
REMARK    2  A    between atoms: C_2  and  N_3
REMARK    3  A    between atoms: N_3  and  C_4
REMARK    4  A    between atoms: N_3  and  S_6
REMARK    5  A    between atoms: C_4  and  C_5
REMARK    6  A    between atoms: S_6  and  C_9
REMARK    7  A    between atoms: C_12  and  N_13
REMARK    8  A    between atoms: C_18  and  N_19
REMARK    9  A    between atoms: C_20  and  C_22
REMARK   10  A    between atoms: C_22  and  C_23
REMARK   11  A    between atoms: C_26  and  O_27
REMARK   12  A    between atoms: O_27  and  C_28
REMARK                            x       y       z     vdW  Elec       q    Type
REMARK                         _______ _______ _______ _____ _____    ______ ____
ROOT
ATOM      1  C   UNL     1       5.472   4.839  17.093  0.00  0.00    +0.000 A 
ATOM      2  C   UNL     1       5.363   3.667  17.837  0.00  0.00    +0.000 A 
ATOM      3  C   UNL     1       4.177   3.394  18.545  0.00  0.00    +0.000 A 
ATOM      4  C   UNL     1       3.080   4.276  18.560  0.00  0.00    +0.000 A 
ATOM      5  C   UNL     1       3.223   5.436  17.749  0.00  0.00    +0.000 A 
ATOM      6  C   UNL     1       4.386   5.701  17.000  0.00  0.00    +0.000 A 
ENDROOT
BRANCH   4   7
ATOM      7  N   UNL     1       1.929   4.028  19.316  0.00  0.00    +0.000 N 
ATOM      8  C   UNL     1       1.840   4.293  20.759  0.00  0.00    +0.000 C 
ATOM      9  C   UNL     1       1.156   3.061  21.344  0.00  0.00    +0.000 C 
ATOM     10  C   UNL     1       0.231   2.621  20.234  0.00  0.00    +0.000 C 
ATOM     11  C   UNL     1       1.026   2.913  18.964  0.00  0.00    +0.000 C 
ENDBRANCH   4   7
BRANCH   5  12
ATOM     12  N   UNL     1       2.251   6.453  17.822  0.00  0.00    +0.000 N 
ATOM     13  C   UNL     1       2.586   7.794  17.888  0.00  0.00    +0.000 C 
ATOM     14  O   UNL     1       3.734   8.234  17.910  0.00  0.00    +0.000 OA
ATOM     15  H   UNL     1       1.367   6.208  17.395  0.00  0.00    +0.000 HD
BRANCH  13  16
ATOM     16  C   UNL     1       1.378   8.721  17.919  0.00  0.00    +0.000 C 
BRANCH  16  17
ATOM     17  C   UNL     1       0.993   9.086  19.329  0.00  0.00    +0.000 A 
ATOM     18  C   UNL     1       0.192  10.210  19.565  0.00  0.00    +0.000 A 
ATOM     19  C   UNL     1      -0.113  10.595  20.871  0.00  0.00    +0.000 A 
ATOM     20  C   UNL     1       0.347   9.852  21.955  0.00  0.00    +0.000 A 
ATOM     21  C   UNL     1       1.124   8.720  21.729  0.00  0.00    +0.000 A 
ATOM     22  C   UNL     1       1.446   8.332  20.418  0.00  0.00    +0.000 A 
BRANCH  20  23
ATOM     23  O   UNL     1       0.014  10.357  23.180  0.00  0.00    +0.000 OA
ATOM     24  C   UNL     1      -1.270  10.959  23.282  0.00  0.00    +0.000 C 
ENDBRANCH  20  23
ENDBRANCH  16  17
ENDBRANCH  13  16
ENDBRANCH   5  12
BRANCH   1  25
ATOM     25  S   UNL     1       6.992   5.239  16.256  0.00  0.00    +0.000 S 
ATOM     26  O   UNL     1       6.642   6.005  15.078  0.00  0.00    +0.000 OA
ATOM     27  O   UNL     1       7.777   4.028  16.151  0.00  0.00    +0.000 OA
BRANCH  25  28
ATOM     28  N   UNL     1       7.813   6.283  17.356  0.00  0.00    +0.000 NA
BRANCH  28  30
ATOM     29  C   UNL     1       8.134   8.749  17.750  0.00  0.00    +0.000 C 
ATOM     30  C   UNL     1       7.146   7.601  17.586  0.00  0.00    +0.000 C 
ENDBRANCH  28  30
BRANCH  28  31
ATOM     31  C   UNL     1       8.314   5.598  18.587  0.00  0.00    +0.000 C 
ATOM     32  C   UNL     1       7.424   5.794  19.803  0.00  0.00    +0.000 C 
ENDBRANCH  28  31
ENDBRANCH  25  28
ENDBRANCH   1  25
TORSDOF 9
ENDMDL
MODEL 4
REMARK VINA RESULT:      -7.0      3.208      6.089
REMARK  Name = 
REMARK  12 active torsions:
REMARK  status: ('A' for Active; 'I' for Inactive)
REMARK    1  A    between atoms: C_1  and  C_2
REMARK    2  A    between atoms: C_2  and  N_3
REMARK    3  A    between atoms: N_3  and  C_4
REMARK    4  A    between atoms: N_3  and  S_6
REMARK    5  A    between atoms: C_4  and  C_5
REMARK    6  A    between atoms: S_6  and  C_9
REMARK    7  A    between atoms: C_12  and  N_13
REMARK    8  A    between atoms: C_18  and  N_19
REMARK    9  A    between atoms: C_20  and  C_22
REMARK   10  A    between atoms: C_22  and  C_23
REMARK   11  A    between atoms: C_26  and  O_27
REMARK   12  A    between atoms: O_27  and  C_28
REMARK                            x       y       z     vdW  Elec       q    Type
REMARK                         _______ _______ _______ _____ _____    ______ ____
ROOT
ATOM      1  C   UNL     1       2.305   7.165  18.969  0.00  0.00    +0.000 A 
ATOM      2  C   UNL     1       2.239   7.909  17.794  0.00  0.00    +0.000 A 
ATOM      3  C   UNL     1       1.812   9.250  17.837  0.00  0.00    +0.000 A 
ATOM      4  C   UNL     1       1.418   9.884  19.031  0.00  0.00    +0.000 A 
ATOM      5  C   UNL     1       1.547   9.097  20.209  0.00  0.00    +0.000 A 
ATOM      6  C   UNL     1       2.015   7.768  20.186  0.00  0.00    +0.000 A 
ENDROOT
BRANCH   4   7
ATOM      7  N   UNL     1       0.936  11.198  19.058  0.00  0.00    +0.000 N 
ATOM      8  C   UNL     1      -0.480  11.540  18.861  0.00  0.00    +0.000 C 
ATOM      9  C   UNL     1      -0.468  12.733  17.910  0.00  0.00    +0.000 C 
ATOM     10  C   UNL     1       0.811  13.451  18.274  0.00  0.00    +0.000 C 
ATOM     11  C   UNL     1       1.782  12.317  18.596  0.00  0.00    +0.000 C 
ENDBRANCH   4   7
BRANCH   5  12
ATOM     12  N   UNL     1       1.031   9.584  21.425  0.00  0.00    +0.000 N 
ATOM     13  C   UNL     1      -0.246   9.280  21.861  0.00  0.00    +0.000 C 
ATOM     14  O   UNL     1      -1.055   8.586  21.248  0.00  0.00    +0.000 OA
ATOM     15  H   UNL     1       1.736   9.773  22.125  0.00  0.00    +0.000 HD
BRANCH  13  16
ATOM     16  C   UNL     1      -0.583   9.879  23.221  0.00  0.00    +0.000 C 
BRANCH  16  17
ATOM     17  C   UNL     1      -1.238  11.228  23.087  0.00  0.00    +0.000 A 
ATOM     18  C   UNL     1      -2.525  11.433  23.597  0.00  0.00    +0.000 A 
ATOM     19  C   UNL     1      -3.168  12.659  23.418  0.00  0.00    +0.000 A 
ATOM     20  C   UNL     1      -2.527  13.704  22.758  0.00  0.00    +0.000 A 
ATOM     21  C   UNL     1      -1.238  13.517  22.268  0.00  0.00    +0.000 A 
ATOM     22  C   UNL     1      -0.590  12.283  22.433  0.00  0.00    +0.000 A 
BRANCH  20  23
ATOM     23  O   UNL     1      -3.278  14.837  22.612  0.00  0.00    +0.000 OA
ATOM     24  C   UNL     1      -4.223  15.100  23.641  0.00  0.00    +0.000 C 
ENDBRANCH  20  23
ENDBRANCH  16  17
ENDBRANCH  13  16
ENDBRANCH   5  12
BRANCH   1  25
ATOM     25  S   UNL     1       2.766   5.445  18.923  0.00  0.00    +0.000 S 
ATOM     26  O   UNL     1       1.905   4.798  17.956  0.00  0.00    +0.000 OA
ATOM     27  O   UNL     1       2.846   4.967  20.287  0.00  0.00    +0.000 OA
BRANCH  25  28
ATOM     28  N   UNL     1       4.372   5.459  18.294  0.00  0.00    +0.000 NA
BRANCH  28  30
ATOM     29  C   UNL     1       6.708   5.575  19.226  0.00  0.00    +0.000 C 
ATOM     30  C   UNL     1       5.394   4.806  19.169  0.00  0.00    +0.000 C 
ENDBRANCH  28  30
BRANCH  28  31
ATOM     31  C   UNL     1       4.460   5.112  16.842  0.00  0.00    +0.000 C 
ATOM     32  C   UNL     1       5.141   6.176  15.998  0.00  0.00    +0.000 C 
ENDBRANCH  28  31
ENDBRANCH  25  28
ENDBRANCH   1  25
TORSDOF 9
ENDMDL
MODEL 5
REMARK VINA RESULT:      -7.0      2.359      3.111
REMARK  Name = 
REMARK  12 active torsions:
REMARK  status: ('A' for Active; 'I' for Inactive)
REMARK    1  A    between atoms: C_1  and  C_2
REMARK    2  A    between atoms: C_2  and  N_3
REMARK    3  A    between atoms: N_3  and  C_4
REMARK    4  A    between atoms: N_3  and  S_6
REMARK    5  A    between atoms: C_4  and  C_5
REMARK    6  A    between atoms: S_6  and  C_9
REMARK    7  A    between atoms: C_12  and  N_13
REMARK    8  A    between atoms: C_18  and  N_19
REMARK    9  A    between atoms: C_20  and  C_22
REMARK   10  A    between atoms: C_22  and  C_23
REMARK   11  A    between atoms: C_26  and  O_27
REMARK   12  A    between atoms: O_27  and  C_28
REMARK                            x       y       z     vdW  Elec       q    Type
REMARK                         _______ _______ _______ _____ _____    ______ ____
ROOT
ATOM      1  C   UNL     1       4.675   5.334  16.953  0.00  0.00    +0.000 A 
ATOM      2  C   UNL     1       4.461   3.974  17.165  0.00  0.00    +0.000 A 
ATOM      3  C   UNL     1       3.540   3.554  18.143  0.00  0.00    +0.000 A 
ATOM      4  C   UNL     1       2.825   4.458  18.951  0.00  0.00    +0.000 A 
ATOM      5  C   UNL     1       3.044   5.834  18.665  0.00  0.00    +0.000 A 
ATOM      6  C   UNL     1       3.930   6.269  17.660  0.00  0.00    +0.000 A 
ENDROOT
BRANCH   4   7
ATOM      7  N   UNL     1       1.957   4.034  19.964  0.00  0.00    +0.000 N 
ATOM      8  C   UNL     1       2.254   4.185  21.395  0.00  0.00    +0.000 C 
ATOM      9  C   UNL     1       1.869   2.849  22.022  0.00  0.00    +0.000 C 
ATOM     10  C   UNL     1       0.711   2.389  21.167  0.00  0.00    +0.000 C 
ATOM     11  C   UNL     1       1.091   2.854  19.764  0.00  0.00    +0.000 C 
ENDBRANCH   4   7
BRANCH   5  12
ATOM     12  N   UNL     1       2.500   6.813  19.520  0.00  0.00    +0.000 N 
ATOM     13  C   UNL     1       1.862   7.942  19.040  0.00  0.00    +0.000 C 
ATOM     14  O   UNL     1       1.718   8.220  17.851  0.00  0.00    +0.000 OA
ATOM     15  H   UNL     1       2.215   6.457  20.423  0.00  0.00    +0.000 HD
BRANCH  13  16
ATOM     16  C   UNL     1       1.315   8.845  20.139  0.00  0.00    +0.000 C 
BRANCH  16  17
ATOM     17  C   UNL     1       0.749  10.123  19.578  0.00  0.00    +0.000 A 
ATOM     18  C   UNL     1       1.594  11.209  19.325  0.00  0.00    +0.000 A 
ATOM     19  C   UNL     1       1.068  12.420  18.871  0.00  0.00    +0.000 A 
ATOM     20  C   UNL     1      -0.297  12.554  18.633  0.00  0.00    +0.000 A 
ATOM     21  C   UNL     1      -1.142  11.472  18.860  0.00  0.00    +0.000 A 
ATOM     22  C   UNL     1      -0.623  10.255  19.329  0.00  0.00    +0.000 A 
BRANCH  20  23
ATOM     23  O   UNL     1      -0.689  13.800  18.230  0.00  0.00    +0.000 OA
ATOM     24  C   UNL     1      -0.048  14.896  18.869  0.00  0.00    +0.000 C 
ENDBRANCH  20  23
ENDBRANCH  16  17
ENDBRANCH  13  16
ENDBRANCH   5  12
BRANCH   1  25
ATOM     25  S   UNL     1       5.895   5.883  15.776  0.00  0.00    +0.000 S 
ATOM     26  O   UNL     1       5.323   7.003  15.060  0.00  0.00    +0.000 OA
ATOM     27  O   UNL     1       6.389   4.720  15.069  0.00  0.00    +0.000 OA
BRANCH  25  28
ATOM     28  N   UNL     1       7.188   6.468  16.756  0.00  0.00    +0.000 NA
BRANCH  28  30
ATOM     29  C   UNL     1       8.251   8.560  17.667  0.00  0.00    +0.000 C 
ATOM     30  C   UNL     1       6.957   7.818  17.356  0.00  0.00    +0.000 C 
ENDBRANCH  28  30
BRANCH  28  31
ATOM     31  C   UNL     1       7.758   5.445  17.686  0.00  0.00    +0.000 C 
ATOM     32  C   UNL     1       7.430   5.696  19.148  0.00  0.00    +0.000 C 
ENDBRANCH  28  31
ENDBRANCH  25  28
ENDBRANCH   1  25
TORSDOF 9
ENDMDL
MODEL 6
REMARK VINA RESULT:      -7.0      2.764      4.322
REMARK  Name = 
REMARK  12 active torsions:
REMARK  status: ('A' for Active; 'I' for Inactive)
REMARK    1  A    between atoms: C_1  and  C_2
REMARK    2  A    between atoms: C_2  and  N_3
REMARK    3  A    between atoms: N_3  and  C_4
REMARK    4  A    between atoms: N_3  and  S_6
REMARK    5  A    between atoms: C_4  and  C_5
REMARK    6  A    between atoms: S_6  and  C_9
REMARK    7  A    between atoms: C_12  and  N_13
REMARK    8  A    between atoms: C_18  and  N_19
REMARK    9  A    between atoms: C_20  and  C_22
REMARK   10  A    between atoms: C_22  and  C_23
REMARK   11  A    between atoms: C_26  and  O_27
REMARK   12  A    between atoms: O_27  and  C_28
REMARK                            x       y       z     vdW  Elec       q    Type
REMARK                         _______ _______ _______ _____ _____    ______ ____
ROOT
ATOM      1  C   UNL     1       2.828   5.436  18.964  0.00  0.00    +0.000 A 
ATOM      2  C   UNL     1       2.158   5.161  20.153  0.00  0.00    +0.000 A 
ATOM      3  C   UNL     1       1.528   6.203  20.860  0.00  0.00    +0.000 A 
ATOM      4  C   UNL     1       1.559   7.542  20.428  0.00  0.00    +0.000 A 
ATOM      5  C   UNL     1       2.216   7.764  19.185  0.00  0.00    +0.000 A 
ATOM      6  C   UNL     1       2.813   6.725  18.445  0.00  0.00    +0.000 A 
ENDROOT
BRANCH   4   7
ATOM      7  N   UNL     1       0.984   8.582  21.166  0.00  0.00    +0.000 N 
ATOM      8  C   UNL     1       1.631   9.194  22.335  0.00  0.00    +0.000 C 
ATOM      9  C   UNL     1       0.526   9.317  23.379  0.00  0.00    +0.000 C 
ATOM     10  C   UNL     1      -0.712   9.548  22.543  0.00  0.00    +0.000 C 
ATOM     11  C   UNL     1      -0.483   8.677  21.311  0.00  0.00    +0.000 C 
ENDBRANCH   4   7
BRANCH   5  12
ATOM     12  N   UNL     1       2.439   9.085  18.748  0.00  0.00    +0.000 N 
ATOM     13  C   UNL     1       1.466   9.824  18.099  0.00  0.00    +0.000 C 
ATOM     14  O   UNL     1       0.339   9.418  17.822  0.00  0.00    +0.000 OA
ATOM     15  H   UNL     1       3.129   9.587  19.293  0.00  0.00    +0.000 HD
BRANCH  13  16
ATOM     16  C   UNL     1       1.909  11.239  17.753  0.00  0.00    +0.000 C 
BRANCH  16  17
ATOM     17  C   UNL     1       1.848  12.150  18.951  0.00  0.00    +0.000 A 
ATOM     18  C   UNL     1       0.907  11.913  19.960  0.00  0.00    +0.000 A 
ATOM     19  C   UNL     1       0.797  12.791  21.041  0.00  0.00    +0.000 A 
ATOM     20  C   UNL     1       1.640  13.893  21.146  0.00  0.00    +0.000 A 
ATOM     21  C   UNL     1       2.594  14.123  20.159  0.00  0.00    +0.000 A 
ATOM     22  C   UNL     1       2.703  13.252  19.063  0.00  0.00    +0.000 A 
BRANCH  20  23
ATOM     23  O   UNL     1       1.404  14.696  22.227  0.00  0.00    +0.000 OA
ATOM     24  C   UNL     1       0.040  14.973  22.516  0.00  0.00    +0.000 C 
ENDBRANCH  20  23
ENDBRANCH  16  17
ENDBRANCH  13  16
ENDBRANCH   5  12
BRANCH   1  25
ATOM     25  S   UNL     1       3.698   4.145  18.098  0.00  0.00    +0.000 S 
ATOM     26  O   UNL     1       2.850   3.716  17.007  0.00  0.00    +0.000 OA
ATOM     27  O   UNL     1       4.187   3.200  19.079  0.00  0.00    +0.000 OA
BRANCH  25  28
ATOM     28  N   UNL     1       5.075   4.943  17.432  0.00  0.00    +0.000 NA
BRANCH  28  30
ATOM     29  C   UNL     1       7.505   4.884  18.088  0.00  0.00    +0.000 C 
ATOM     30  C   UNL     1       6.101   5.364  18.434  0.00  0.00    +0.000 C 
ENDBRANCH  28  30
BRANCH  28  31
ATOM     31  C   UNL     1       5.616   4.295  16.198  0.00  0.00    +0.000 C 
ATOM     32  C   UNL     1       5.561   5.182  14.966  0.00  0.00    +0.000 C 
ENDBRANCH  28  31
ENDBRANCH  25  28
ENDBRANCH   1  25
TORSDOF 9
ENDMDL
MODEL 7
REMARK VINA RESULT:      -6.9      3.074      6.459
REMARK  Name = 
REMARK  12 active torsions:
REMARK  status: ('A' for Active; 'I' for Inactive)
REMARK    1  A    between atoms: C_1  and  C_2
REMARK    2  A    between atoms: C_2  and  N_3
REMARK    3  A    between atoms: N_3  and  C_4
REMARK    4  A    between atoms: N_3  and  S_6
REMARK    5  A    between atoms: C_4  and  C_5
REMARK    6  A    between atoms: S_6  and  C_9
REMARK    7  A    between atoms: C_12  and  N_13
REMARK    8  A    between atoms: C_18  and  N_19
REMARK    9  A    between atoms: C_20  and  C_22
REMARK   10  A    between atoms: C_22  and  C_23
REMARK   11  A    between atoms: C_26  and  O_27
REMARK   12  A    between atoms: O_27  and  C_28
REMARK                            x       y       z     vdW  Elec       q    Type
REMARK                         _______ _______ _______ _____ _____    ______ ____
ROOT
ATOM      1  C   UNL     1       2.304   7.572  18.405  0.00  0.00    +0.000 A 
ATOM      2  C   UNL     1       2.645   8.613  17.545  0.00  0.00    +0.000 A 
ATOM      3  C   UNL     1       2.205   9.921  17.820  0.00  0.00    +0.000 A 
ATOM      4  C   UNL     1       1.400  10.235  18.932  0.00  0.00    +0.000 A 
ATOM      5  C   UNL     1       1.116   9.146  19.803  0.00  0.00    +0.000 A 
ATOM      6  C   UNL     1       1.587   7.840  19.564  0.00  0.00    +0.000 A 
ENDROOT
BRANCH   4   7
ATOM      7  N   UNL     1       0.913  11.526  19.165  0.00  0.00    +0.000 N 
ATOM      8  C   UNL     1      -0.386  12.000  18.669  0.00  0.00    +0.000 C 
ATOM      9  C   UNL     1      -0.111  13.393  18.111  0.00  0.00    +0.000 C 
ATOM     10  C   UNL     1       0.996  13.908  19.002  0.00  0.00    +0.000 C 
ATOM     11  C   UNL     1       1.843  12.669  19.277  0.00  0.00    +0.000 C 
ENDBRANCH   4   7
BRANCH   5  12
ATOM     12  N   UNL     1       0.192   9.323  20.851  0.00  0.00    +0.000 N 
ATOM     13  C   UNL     1       0.588   9.565  22.154  0.00  0.00    +0.000 C 
ATOM     14  O   UNL     1       1.755   9.633  22.536  0.00  0.00    +0.000 OA
ATOM     15  H   UNL     1      -0.702   9.692  20.553  0.00  0.00    +0.000 HD
BRANCH  13  16
ATOM     16  C   UNL     1      -0.576   9.765  23.116  0.00  0.00    +0.000 C 
BRANCH  16  17
ATOM     17  C   UNL     1      -1.178  11.139  22.983  0.00  0.00    +0.000 A 
ATOM     18  C   UNL     1      -2.466  11.387  23.470  0.00  0.00    +0.000 A 
ATOM     19  C   UNL     1      -3.058  12.639  23.291  0.00  0.00    +0.000 A 
ATOM     20  C   UNL     1      -2.366  13.665  22.654  0.00  0.00    +0.000 A 
ATOM     21  C   UNL     1      -1.075  13.434  22.187  0.00  0.00    +0.000 A 
ATOM     22  C   UNL     1      -0.477  12.175  22.353  0.00  0.00    +0.000 A 
BRANCH  20  23
ATOM     23  O   UNL     1      -3.071  14.827  22.505  0.00  0.00    +0.000 OA
ATOM     24  C   UNL     1      -4.484  14.698  22.435  0.00  0.00    +0.000 C 
ENDBRANCH  20  23
ENDBRANCH  16  17
ENDBRANCH  13  16
ENDBRANCH   5  12
BRANCH   1  25
ATOM     25  S   UNL     1       2.784   5.898  18.031  0.00  0.00    +0.000 S 
ATOM     26  O   UNL     1       3.729   5.960  16.936  0.00  0.00    +0.000 OA
ATOM     27  O   UNL     1       1.581   5.099  17.933  0.00  0.00    +0.000 OA
BRANCH  25  28
ATOM     28  N   UNL     1       3.626   5.379  19.444  0.00  0.00    +0.000 NA
BRANCH  28  30
ATOM     29  C   UNL     1       2.199   4.294  21.212  0.00  0.00    +0.000 C 
ATOM     30  C   UNL     1       3.136   4.093  20.028  0.00  0.00    +0.000 C 
ENDBRANCH  28  30
BRANCH  28  31
ATOM     31  C   UNL     1       5.112   5.513  19.351  0.00  0.00    +0.000 C 
ATOM     32  C   UNL     1       5.817   4.236  18.923  0.00  0.00    +0.000 C 
ENDBRANCH  28  31
ENDBRANCH  25  28
ENDBRANCH   1  25
TORSDOF 9
ENDMDL
MODEL 8
REMARK VINA RESULT:      -6.9      2.081      2.851
REMARK  Name = 
REMARK  12 active torsions:
REMARK  status: ('A' for Active; 'I' for Inactive)
REMARK    1  A    between atoms: C_1  and  C_2
REMARK    2  A    between atoms: C_2  and  N_3
REMARK    3  A    between atoms: N_3  and  C_4
REMARK    4  A    between atoms: N_3  and  S_6
REMARK    5  A    between atoms: C_4  and  C_5
REMARK    6  A    between atoms: S_6  and  C_9
REMARK    7  A    between atoms: C_12  and  N_13
REMARK    8  A    between atoms: C_18  and  N_19
REMARK    9  A    between atoms: C_20  and  C_22
REMARK   10  A    between atoms: C_22  and  C_23
REMARK   11  A    between atoms: C_26  and  O_27
REMARK   12  A    between atoms: O_27  and  C_28
REMARK                            x       y       z     vdW  Elec       q    Type
REMARK                         _______ _______ _______ _____ _____    ______ ____
ROOT
ATOM      1  C   UNL     1       4.961   5.000  16.861  0.00  0.00    +0.000 A 
ATOM      2  C   UNL     1       4.792   3.624  16.737  0.00  0.00    +0.000 A 
ATOM      3  C   UNL     1       3.953   2.937  17.635  0.00  0.00    +0.000 A 
ATOM      4  C   UNL     1       3.279   3.581  18.689  0.00  0.00    +0.000 A 
ATOM      5  C   UNL     1       3.448   4.993  18.746  0.00  0.00    +0.000 A 
ATOM      6  C   UNL     1       4.249   5.699  17.827  0.00  0.00    +0.000 A 
ENDROOT
BRANCH   4   7
ATOM      7  N   UNL     1       2.496   2.884  19.616  0.00  0.00    +0.000 N 
ATOM      8  C   UNL     1       1.028   2.946  19.639  0.00  0.00    +0.000 C 
ATOM      9  C   UNL     1       0.663   3.110  21.111  0.00  0.00    +0.000 C 
ATOM     10  C   UNL     1       1.757   2.350  21.824  0.00  0.00    +0.000 C 
ATOM     11  C   UNL     1       2.999   2.630  20.982  0.00  0.00    +0.000 C 
ENDBRANCH   4   7
BRANCH   5  12
ATOM     12  N   UNL     1       2.946   5.705  19.853  0.00  0.00    +0.000 N 
ATOM     13  C   UNL     1       2.274   6.906  19.717  0.00  0.00    +0.000 C 
ATOM     14  O   UNL     1       2.060   7.479  18.651  0.00  0.00    +0.000 OA
ATOM     15  H   UNL     1       2.715   5.121  20.647  0.00  0.00    +0.000 HD
BRANCH  13  16
ATOM     16  C   UNL     1       1.784   7.480  21.040  0.00  0.00    +0.000 C 
BRANCH  16  17
ATOM     17  C   UNL     1       0.950   8.718  20.835  0.00  0.00    +0.000 A 
ATOM     18  C   UNL     1       1.031   9.421  19.627  0.00  0.00    +0.000 A 
ATOM     19  C   UNL     1       0.314  10.606  19.453  0.00  0.00    +0.000 A 
ATOM     20  C   UNL     1      -0.513  11.088  20.463  0.00  0.00    +0.000 A 
ATOM     21  C   UNL     1      -0.617  10.384  21.658  0.00  0.00    +0.000 A 
ATOM     22  C   UNL     1       0.110   9.197  21.847  0.00  0.00    +0.000 A 
BRANCH  20  23
ATOM     23  O   UNL     1      -1.126  12.278  20.184  0.00  0.00    +0.000 OA
ATOM     24  C   UNL     1      -0.833  13.355  21.063  0.00  0.00    +0.000 C 
ENDBRANCH  20  23
ENDBRANCH  16  17
ENDBRANCH  13  16
ENDBRANCH   5  12
BRANCH   1  25
ATOM     25  S   UNL     1       6.080   5.873  15.784  0.00  0.00    +0.000 S 
ATOM     26  O   UNL     1       5.358   7.007  15.248  0.00  0.00    +0.000 OA
ATOM     27  O   UNL     1       6.704   4.905  14.908  0.00  0.00    +0.000 OA
BRANCH  25  28
ATOM     28  N   UNL     1       7.306   6.463  16.845  0.00  0.00    +0.000 NA
BRANCH  28  30
ATOM     29  C   UNL     1       8.255   8.635  17.693  0.00  0.00    +0.000 C 
ATOM     30  C   UNL     1       7.009   7.787  17.471  0.00  0.00    +0.000 C 
ENDBRANCH  28  30
BRANCH  28  31
ATOM     31  C   UNL     1       7.858   5.427  17.772  0.00  0.00    +0.000 C 
ATOM     32  C   UNL     1       7.634   5.740  19.242  0.00  0.00    +0.000 C 
ENDBRANCH  28  31
ENDBRANCH  25  28
ENDBRANCH   1  25
TORSDOF 9
ENDMDL
MODEL 9
REMARK VINA RESULT:      -6.9      2.745      4.174
REMARK  Name = 
REMARK  12 active torsions:
REMARK  status: ('A' for Active; 'I' for Inactive)
REMARK    1  A    between atoms: C_1  and  C_2
REMARK    2  A    between atoms: C_2  and  N_3
REMARK    3  A    between atoms: N_3  and  C_4
REMARK    4  A    between atoms: N_3  and  S_6
REMARK    5  A    between atoms: C_4  and  C_5
REMARK    6  A    between atoms: S_6  and  C_9
REMARK    7  A    between atoms: C_12  and  N_13
REMARK    8  A    between atoms: C_18  and  N_19
REMARK    9  A    between atoms: C_20  and  C_22
REMARK   10  A    between atoms: C_22  and  C_23
REMARK   11  A    between atoms: C_26  and  O_27
REMARK   12  A    between atoms: O_27  and  C_28
REMARK                            x       y       z     vdW  Elec       q    Type
REMARK                         _______ _______ _______ _____ _____    ______ ____
ROOT
ATOM      1  C   UNL     1       3.100   5.300  19.098  0.00  0.00    +0.000 A 
ATOM      2  C   UNL     1       2.402   5.024  20.271  0.00  0.00    +0.000 A 
ATOM      3  C   UNL     1       1.689   6.050  20.920  0.00  0.00    +0.000 A 
ATOM      4  C   UNL     1       1.664   7.375  20.447  0.00  0.00    +0.000 A 
ATOM      5  C   UNL     1       2.354   7.596  19.222  0.00  0.00    +0.000 A 
ATOM      6  C   UNL     1       3.035   6.570  18.539  0.00  0.00    +0.000 A 
ENDROOT
BRANCH   4   7
ATOM      7  N   UNL     1       1.005   8.403  21.130  0.00  0.00    +0.000 N 
ATOM      8  C   UNL     1       1.629   9.183  22.208  0.00  0.00    +0.000 C 
ATOM      9  C   UNL     1       0.566   9.270  23.299  0.00  0.00    +0.000 C 
ATOM     10  C   UNL     1      -0.728   9.285  22.518  0.00  0.00    +0.000 C 
ATOM     11  C   UNL     1      -0.455   8.343  21.349  0.00  0.00    +0.000 C 
ENDBRANCH   4   7
BRANCH   5  12
ATOM     12  N   UNL     1       2.522   8.914  18.752  0.00  0.00    +0.000 N 
ATOM     13  C   UNL     1       1.528   9.584  18.063  0.00  0.00    +0.000 C 
ATOM     14  O   UNL     1       0.428   9.115  17.775  0.00  0.00    +0.000 OA
ATOM     15  H   UNL     1       3.174   9.465  19.295  0.00  0.00    +0.000 HD
BRANCH  13  16
ATOM     16  C   UNL     1       1.907  11.010  17.684  0.00  0.00    +0.000 C 
BRANCH  16  17
ATOM     17  C   UNL     1       1.756  11.954  18.849  0.00  0.00    +0.000 A 
ATOM     18  C   UNL     1       2.609  13.057  18.969  0.00  0.00    +0.000 A 
ATOM     19  C   UNL     1       2.522  13.898  20.080  0.00  0.00    +0.000 A 
ATOM     20  C   UNL     1       1.566  13.670  21.067  0.00  0.00    +0.000 A 
ATOM     21  C   UNL     1       0.699  12.589  20.944  0.00  0.00    +0.000 A 
ATOM     22  C   UNL     1       0.788  11.731  19.836  0.00  0.00    +0.000 A 
BRANCH  20  23
ATOM     23  O   UNL     1       1.612  14.539  22.121  0.00  0.00    +0.000 OA
ATOM     24  C   UNL     1       2.734  15.410  22.167  0.00  0.00    +0.000 C 
ENDBRANCH  20  23
ENDBRANCH  16  17
ENDBRANCH  13  16
ENDBRANCH   5  12
BRANCH   1  25
ATOM     25  S   UNL     1       4.073   4.035  18.307  0.00  0.00    +0.000 S 
ATOM     26  O   UNL     1       3.165   3.233  17.513  0.00  0.00    +0.000 OA
ATOM     27  O   UNL     1       4.920   3.428  19.312  0.00  0.00    +0.000 OA
BRANCH  25  28
ATOM     28  N   UNL     1       5.103   4.909  17.234  0.00  0.00    +0.000 NA
BRANCH  28  30
ATOM     29  C   UNL     1       7.544   4.601  17.766  0.00  0.00    +0.000 C 
ATOM     30  C   UNL     1       6.318   5.499  17.874  0.00  0.00    +0.000 C 
ENDBRANCH  28  30
BRANCH  28  31
ATOM     31  C   UNL     1       5.340   4.225  15.925  0.00  0.00    +0.000 C 
ATOM     32  C   UNL     1       5.674   5.176  14.789  0.00  0.00    +0.000 C 
ENDBRANCH  28  31
ENDBRANCH  25  28
ENDBRANCH   1  25
TORSDOF 9
ENDMDL
