MODEL 1
REMARK VINA RESULT:      -7.3      0.000      0.000
REMARK  Name = 
REMARK  8 active torsions:
REMARK  status: ('A' for Active; 'I' for Inactive)
REMARK    1  A    between atoms: C_1  and  O_2
REMARK    2  A    between atoms: O_2  and  C_3
REMARK    3  A    between atoms: C_3  and  C_5
REMARK    4  A    between atoms: C_5  and  N_6
REMARK    5  A    between atoms: C_9  and  C_10
REMARK    6  A    between atoms: N_12  and  C_13
REMARK    7  A    between atoms: C_16  and  C_17
REMARK    8  A    between atoms: C_18  and  C_19
REMARK                            x       y       z     vdW  Elec       q    Type
REMARK                         _______ _______ _______ _____ _____    ______ ____
ROOT
ATOM      1  C   UNL     1       5.904   4.230  16.806  0.00  0.00    +0.000 C 
ATOM      2  O   UNL     1       6.623   4.447  17.780  0.00  0.00    +0.000 OA
ATOM      3  N   UNL     1       4.579   3.805  16.867  0.00  0.00    +0.000 N 
ATOM      4  H   UNL     1       4.176   3.524  15.982  0.00  0.00    +0.000 HD
ENDROOT
BRANCH   3   5
ATOM      5  C   UNL     1       3.851   3.580  18.057  0.00  0.00    +0.000 A 
ATOM      6  C   UNL     1       3.635   2.303  18.571  0.00  0.00    +0.000 A 
ATOM      7  C   UNL     1       2.831   2.106  19.694  0.00  0.00    +0.000 A 
ATOM      8  C   UNL     1       2.219   3.187  20.337  0.00  0.00    +0.000 A 
ATOM      9  C   UNL     1       1.298   2.900  21.491  0.00  0.00    +0.000 C 
ATOM     10  C   UNL     1       2.470   4.490  19.866  0.00  0.00    +0.000 A 
ATOM     11  C   UNL     1       1.849   5.709  20.497  0.00  0.00    +0.000 C 
ATOM     12  C   UNL     1       3.306   4.672  18.739  0.00  0.00    +0.000 A 
ENDBRANCH   3   5
BRANCH   1  16
ATOM     13  N   UNL     1       6.770   4.168  13.377  0.00  0.00    +0.000 N 
ATOM     14  C   UNL     1       7.468   5.254  13.798  0.00  0.00    +0.000 A 
ATOM     15  N   UNL     1       7.282   5.415  15.081  0.00  0.00    +0.000 NA
ATOM     16  C   UNL     1       6.435   4.376  15.434  0.00  0.00    +0.000 A 
ATOM     17  N   UNL     1       6.159   3.537  14.407  0.00  0.00    +0.000 NA
BRANCH  13  18
ATOM     18  C   UNL     1       6.696   3.671  12.023  0.00  0.00    +0.000 C 
BRANCH  18  19
ATOM     19  C   UNL     1       5.385   2.982  11.761  0.00  0.00    +0.000 C 
ATOM     20  O   UNL     1       4.284   3.510  11.725  0.00  0.00    +0.000 OA
BRANCH  19  22
ATOM     21  C   UNL     1       6.923   1.369  11.032  0.00  0.00    +0.000 C 
ATOM     22  O   UNL     1       5.611   1.654  11.526  0.00  0.00    +0.000 OA
ENDBRANCH  19  22
ENDBRANCH  18  19
ENDBRANCH  13  18
ENDBRANCH   1  16
TORSDOF 5
ENDMDL
MODEL 2
REMARK VINA RESULT:      -7.3      0.498      1.119
REMARK  Name = 
REMARK  8 active torsions:
REMARK  status: ('A' for Active; 'I' for Inactive)
REMARK    1  A    between atoms: C_1  and  O_2
REMARK    2  A    between atoms: O_2  and  C_3
REMARK    3  A    between atoms: C_3  and  C_5
REMARK    4  A    between atoms: C_5  and  N_6
REMARK    5  A    between atoms: C_9  and  C_10
REMARK    6  A    between atoms: N_12  and  C_13
REMARK    7  A    between atoms: C_16  and  C_17
REMARK    8  A    between atoms: C_18  and  C_19
REMARK                            x       y       z     vdW  Elec       q    Type
REMARK                         _______ _______ _______ _____ _____    ______ ____
ROOT
ATOM      1  C   UNL     1       5.888   4.254  16.698  0.00  0.00    +0.000 C 
ATOM      2  O   UNL     1       6.555   4.560  17.685  0.00  0.00    +0.000 OA
ATOM      3  N   UNL     1       4.593   3.744  16.733  0.00  0.00    +0.000 N 
ATOM      4  H   UNL     1       4.242   3.399  15.849  0.00  0.00    +0.000 HD
ENDROOT
BRANCH   3   5
ATOM      5  C   UNL     1       3.837   3.522  17.907  0.00  0.00    +0.000 A 
ATOM      6  C   UNL     1       3.519   2.242  18.359  0.00  0.00    +0.000 A 
ATOM      7  C   UNL     1       2.691   2.057  19.466  0.00  0.00    +0.000 A 
ATOM      8  C   UNL     1       2.157   3.151  20.155  0.00  0.00    +0.000 A 
ATOM      9  C   UNL     1       1.205   2.884  21.288  0.00  0.00    +0.000 C 
ATOM     10  C   UNL     1       2.511   4.452  19.747  0.00  0.00    +0.000 A 
ATOM     11  C   UNL     1       1.979   5.684  20.429  0.00  0.00    +0.000 C 
ATOM     12  C   UNL     1       3.370   4.620  18.635  0.00  0.00    +0.000 A 
ENDBRANCH   3   5
BRANCH   1  16
ATOM     13  N   UNL     1       6.826   4.166  13.289  0.00  0.00    +0.000 N 
ATOM     14  C   UNL     1       7.585   5.200  13.737  0.00  0.00    +0.000 A 
ATOM     15  N   UNL     1       7.381   5.361  15.017  0.00  0.00    +0.000 NA
ATOM     16  C   UNL     1       6.459   4.377  15.339  0.00  0.00    +0.000 A 
ATOM     17  N   UNL     1       6.152   3.568  14.298  0.00  0.00    +0.000 NA
BRANCH  13  18
ATOM     18  C   UNL     1       6.750   3.688  11.928  0.00  0.00    +0.000 C 
BRANCH  18  19
ATOM     19  C   UNL     1       5.578   2.766  11.733  0.00  0.00    +0.000 C 
ATOM     20  O   UNL     1       5.628   1.558  11.563  0.00  0.00    +0.000 OA
BRANCH  19  22
ATOM     21  C   UNL     1       3.510   3.241  10.736  0.00  0.00    +0.000 C 
ATOM     22  O   UNL     1       4.418   3.486  11.813  0.00  0.00    +0.000 OA
ENDBRANCH  19  22
ENDBRANCH  18  19
ENDBRANCH  13  18
ENDBRANCH   1  16
TORSDOF 5
ENDMDL
MODEL 3
REMARK VINA RESULT:      -7.1      1.079      1.202
REMARK  Name = 
REMARK  8 active torsions:
REMARK  status: ('A' for Active; 'I' for Inactive)
REMARK    1  A    between atoms: C_1  and  O_2
REMARK    2  A    between atoms: O_2  and  C_3
REMARK    3  A    between atoms: C_3  and  C_5
REMARK    4  A    between atoms: C_5  and  N_6
REMARK    5  A    between atoms: C_9  and  C_10
REMARK    6  A    between atoms: N_12  and  C_13
REMARK    7  A    between atoms: C_16  and  C_17
REMARK    8  A    between atoms: C_18  and  C_19
REMARK                            x       y       z     vdW  Elec       q    Type
REMARK                         _______ _______ _______ _____ _____    ______ ____
ROOT
ATOM      1  C   UNL     1       5.224   4.661  16.514  0.00  0.00    +0.000 C 
ATOM      2  O   UNL     1       5.057   5.753  17.054  0.00  0.00    +0.000 OA
ATOM      3  N   UNL     1       4.755   3.445  17.005  0.00  0.00    +0.000 N 
ATOM      4  H   UNL     1       5.107   2.624  16.530  0.00  0.00    +0.000 HD
ENDROOT
BRANCH   3   5
ATOM      5  C   UNL     1       3.995   3.283  18.186  0.00  0.00    +0.000 A 
ATOM      6  C   UNL     1       4.585   3.127  19.439  0.00  0.00    +0.000 A 
ATOM      7  C   UNL     1       3.811   2.873  20.571  0.00  0.00    +0.000 A 
ATOM      8  C   UNL     1       2.419   2.768  20.481  0.00  0.00    +0.000 A 
ATOM      9  C   UNL     1       1.649   2.411  21.722  0.00  0.00    +0.000 C 
ATOM     10  C   UNL     1       1.800   2.979  19.233  0.00  0.00    +0.000 A 
ATOM     11  C   UNL     1       0.308   2.882  19.047  0.00  0.00    +0.000 C 
ATOM     12  C   UNL     1       2.599   3.257  18.100  0.00  0.00    +0.000 A 
ENDBRANCH   3   5
BRANCH   1  16
ATOM     13  N   UNL     1       6.629   4.102  13.317  0.00  0.00    +0.000 N 
ATOM     14  C   UNL     1       7.512   4.996  13.833  0.00  0.00    +0.000 A 
ATOM     15  N   UNL     1       7.155   5.301  15.051  0.00  0.00    +0.000 NA
ATOM     16  C   UNL     1       6.008   4.553  15.265  0.00  0.00    +0.000 A 
ATOM     17  N   UNL     1       5.698   3.738  14.230  0.00  0.00    +0.000 NA
BRANCH  13  18
ATOM     18  C   UNL     1       6.662   3.537  11.989  0.00  0.00    +0.000 C 
BRANCH  18  19
ATOM     19  C   UNL     1       5.362   2.863  11.645  0.00  0.00    +0.000 C 
ATOM     20  O   UNL     1       4.267   3.399  11.570  0.00  0.00    +0.000 OA
BRANCH  19  22
ATOM     21  C   UNL     1       6.946   1.248  11.028  0.00  0.00    +0.000 C 
ATOM     22  O   UNL     1       5.592   1.540  11.388  0.00  0.00    +0.000 OA
ENDBRANCH  19  22
ENDBRANCH  18  19
ENDBRANCH  13  18
ENDBRANCH   1  16
TORSDOF 5
ENDMDL
MODEL 4
REMARK VINA RESULT:      -7.0      1.200      1.683
REMARK  Name = 
REMARK  8 active torsions:
REMARK  status: ('A' for Active; 'I' for Inactive)
REMARK    1  A    between atoms: C_1  and  O_2
REMARK    2  A    between atoms: O_2  and  C_3
REMARK    3  A    between atoms: C_3  and  C_5
REMARK    4  A    between atoms: C_5  and  N_6
REMARK    5  A    between atoms: C_9  and  C_10
REMARK    6  A    between atoms: N_12  and  C_13
REMARK    7  A    between atoms: C_16  and  C_17
REMARK    8  A    between atoms: C_18  and  C_19
REMARK                            x       y       z     vdW  Elec       q    Type
REMARK                         _______ _______ _______ _____ _____    ______ ____
ROOT
ATOM      1  C   UNL     1       5.120   4.709  16.410  0.00  0.00    +0.000 C 
ATOM      2  O   UNL     1       4.768   5.808  16.834  0.00  0.00    +0.000 OA
ATOM      3  N   UNL     1       4.813   3.486  17.001  0.00  0.00    +0.000 N 
ATOM      4  H   UNL     1       5.305   2.688  16.620  0.00  0.00    +0.000 HD
ENDROOT
BRANCH   3   5
ATOM      5  C   UNL     1       4.029   3.320  18.166  0.00  0.00    +0.000 A 
ATOM      6  C   UNL     1       4.589   3.250  19.440  0.00  0.00    +0.000 A 
ATOM      7  C   UNL     1       3.799   2.988  20.558  0.00  0.00    +0.000 A 
ATOM      8  C   UNL     1       2.420   2.790  20.434  0.00  0.00    +0.000 A 
ATOM      9  C   UNL     1       1.637   2.430  21.666  0.00  0.00    +0.000 C 
ATOM     10  C   UNL     1       1.827   2.912  19.162  0.00  0.00    +0.000 A 
ATOM     11  C   UNL     1       0.351   2.711  18.937  0.00  0.00    +0.000 C 
ATOM     12  C   UNL     1       2.641   3.199  18.042  0.00  0.00    +0.000 A 
ENDBRANCH   3   5
BRANCH   1  16
ATOM     13  N   UNL     1       6.707   4.147  13.300  0.00  0.00    +0.000 N 
ATOM     14  C   UNL     1       7.533   5.077  13.844  0.00  0.00    +0.000 A 
ATOM     15  N   UNL     1       7.103   5.390  15.037  0.00  0.00    +0.000 NA
ATOM     16  C   UNL     1       5.971   4.607  15.205  0.00  0.00    +0.000 A 
ATOM     17  N   UNL     1       5.742   3.766  14.169  0.00  0.00    +0.000 NA
BRANCH  13  18
ATOM     18  C   UNL     1       6.827   3.562  11.984  0.00  0.00    +0.000 C 
BRANCH  18  19
ATOM     19  C   UNL     1       5.615   2.743  11.634  0.00  0.00    +0.000 C 
ATOM     20  O   UNL     1       5.589   1.538  11.437  0.00  0.00    +0.000 OA
BRANCH  19  22
ATOM     21  C   UNL     1       3.503   3.121  10.689  0.00  0.00    +0.000 C 
ATOM     22  O   UNL     1       4.514   3.553  11.603  0.00  0.00    +0.000 OA
ENDBRANCH  19  22
ENDBRANCH  18  19
ENDBRANCH  13  18
ENDBRANCH   1  16
TORSDOF 5
ENDMDL
MODEL 5
REMARK VINA RESULT:      -6.9      0.954      1.791
REMARK  Name = 
REMARK  8 active torsions:
REMARK  status: ('A' for Active; 'I' for Inactive)
REMARK    1  A    between atoms: C_1  and  O_2
REMARK    2  A    between atoms: O_2  and  C_3
REMARK    3  A    between atoms: C_3  and  C_5
REMARK    4  A    between atoms: C_5  and  N_6
REMARK    5  A    between atoms: C_9  and  C_10
REMARK    6  A    between atoms: N_12  and  C_13
REMARK    7  A    between atoms: C_16  and  C_17
REMARK    8  A    between atoms: C_18  and  C_19
REMARK                            x       y       z     vdW  Elec       q    Type
REMARK                         _______ _______ _______ _____ _____    ______ ____
ROOT
ATOM      1  C   UNL     1       5.951   4.396  16.468  0.00  0.00    +0.000 C 
ATOM      2  O   UNL     1       6.674   4.307  17.459  0.00  0.00    +0.000 OA
ATOM      3  N   UNL     1       4.558   4.417  16.493  0.00  0.00    +0.000 N 
ATOM      4  H   UNL     1       4.110   4.339  15.589  0.00  0.00    +0.000 HD
ENDROOT
BRANCH   3   5
ATOM      5  C   UNL     1       3.764   4.363  17.661  0.00  0.00    +0.000 A 
ATOM      6  C   UNL     1       4.054   5.118  18.796  0.00  0.00    +0.000 A 
ATOM      7  C   UNL     1       3.309   4.971  19.966  0.00  0.00    +0.000 A 
ATOM      8  C   UNL     1       2.248   4.061  20.033  0.00  0.00    +0.000 A 
ATOM      9  C   UNL     1       1.538   3.890  21.347  0.00  0.00    +0.000 C 
ATOM     10  C   UNL     1       1.905   3.330  18.879  0.00  0.00    +0.000 A 
ATOM     11  C   UNL     1       0.781   2.328  18.864  0.00  0.00    +0.000 C 
ATOM     12  C   UNL     1       2.658   3.509  17.695  0.00  0.00    +0.000 A 
ENDBRANCH   3   5
BRANCH   1  16
ATOM     13  N   UNL     1       6.923   4.145  13.078  0.00  0.00    +0.000 N 
ATOM     14  C   UNL     1       7.692   5.187  13.488  0.00  0.00    +0.000 A 
ATOM     15  N   UNL     1       7.476   5.407  14.757  0.00  0.00    +0.000 NA
ATOM     16  C   UNL     1       6.537   4.451  15.112  0.00  0.00    +0.000 A 
ATOM     17  N   UNL     1       6.230   3.601  14.105  0.00  0.00    +0.000 NA
BRANCH  13  18
ATOM     18  C   UNL     1       6.855   3.607  11.738  0.00  0.00    +0.000 C 
BRANCH  18  19
ATOM     19  C   UNL     1       5.633   2.751  11.551  0.00  0.00    +0.000 C 
ATOM     20  O   UNL     1       5.615   1.538  11.406  0.00  0.00    +0.000 OA
BRANCH  19  22
ATOM     21  C   UNL     1       3.484   3.139  10.696  0.00  0.00    +0.000 C 
ATOM     22  O   UNL     1       4.517   3.539  11.602  0.00  0.00    +0.000 OA
ENDBRANCH  19  22
ENDBRANCH  18  19
ENDBRANCH  13  18
ENDBRANCH   1  16
TORSDOF 5
ENDMDL
MODEL 6
REMARK VINA RESULT:      -6.7      6.444      8.290
REMARK  Name = 
REMARK  8 active torsions:
REMARK  status: ('A' for Active; 'I' for Inactive)
REMARK    1  A    between atoms: C_1  and  O_2
REMARK    2  A    between atoms: O_2  and  C_3
REMARK    3  A    between atoms: C_3  and  C_5
REMARK    4  A    between atoms: C_5  and  N_6
REMARK    5  A    between atoms: C_9  and  C_10
REMARK    6  A    between atoms: N_12  and  C_13
REMARK    7  A    between atoms: C_16  and  C_17
REMARK    8  A    between atoms: C_18  and  C_19
REMARK                            x       y       z     vdW  Elec       q    Type
REMARK                         _______ _______ _______ _____ _____    ______ ____
ROOT
ATOM      1  C   UNL     1       8.109   8.851  18.090  0.00  0.00    +0.000 C 
ATOM      2  O   UNL     1       7.550   9.683  17.377  0.00  0.00    +0.000 OA
ATOM      3  N   UNL     1       9.070   9.139  19.056  0.00  0.00    +0.000 N 
ATOM      4  H   UNL     1       9.543   8.334  19.446  0.00  0.00    +0.000 HD
ENDROOT
BRANCH   3   5
ATOM      5  C   UNL     1       9.533  10.434  19.382  0.00  0.00    +0.000 A 
ATOM      6  C   UNL     1       9.431  10.962  20.668  0.00  0.00    +0.000 A 
ATOM      7  C   UNL     1       9.808  12.278  20.936  0.00  0.00    +0.000 A 
ATOM      8  C   UNL     1      10.301  13.105  19.921  0.00  0.00    +0.000 A 
ATOM      9  C   UNL     1      10.611  14.537  20.258  0.00  0.00    +0.000 C 
ATOM     10  C   UNL     1      10.464  12.573  18.628  0.00  0.00    +0.000 A 
ATOM     11  C   UNL     1      10.984  13.393  17.477  0.00  0.00    +0.000 C 
ATOM     12  C   UNL     1      10.097  11.229  18.379  0.00  0.00    +0.000 A 
ENDBRANCH   3   5
BRANCH   1  16
ATOM     13  N   UNL     1       7.410   5.518  17.136  0.00  0.00    +0.000 N 
ATOM     14  C   UNL     1       7.654   5.359  18.463  0.00  0.00    +0.000 A 
ATOM     15  N   UNL     1       7.910   6.523  18.996  0.00  0.00    +0.000 NA
ATOM     16  C   UNL     1       7.812   7.410  17.935  0.00  0.00    +0.000 A 
ATOM     17  N   UNL     1       7.428   6.823  16.778  0.00  0.00    +0.000 NA
BRANCH  13  18
ATOM     18  C   UNL     1       7.111   4.468  16.190  0.00  0.00    +0.000 C 
BRANCH  18  19
ATOM     19  C   UNL     1       5.702   4.575  15.677  0.00  0.00    +0.000 C 
ATOM     20  O   UNL     1       5.331   5.223  14.709  0.00  0.00    +0.000 OA
BRANCH  19  22
ATOM     21  C   UNL     1       4.001   4.543  17.291  0.00  0.00    +0.000 C 
ATOM     22  O   UNL     1       4.880   3.797  16.444  0.00  0.00    +0.000 OA
ENDBRANCH  19  22
ENDBRANCH  18  19
ENDBRANCH  13  18
ENDBRANCH   1  16
TORSDOF 5
ENDMDL
MODEL 7
REMARK VINA RESULT:      -6.6      3.888      6.408
REMARK  Name = 
REMARK  8 active torsions:
REMARK  status: ('A' for Active; 'I' for Inactive)
REMARK    1  A    between atoms: C_1  and  O_2
REMARK    2  A    between atoms: O_2  and  C_3
REMARK    3  A    between atoms: C_3  and  C_5
REMARK    4  A    between atoms: C_5  and  N_6
REMARK    5  A    between atoms: C_9  and  C_10
REMARK    6  A    between atoms: N_12  and  C_13
REMARK    7  A    between atoms: C_16  and  C_17
REMARK    8  A    between atoms: C_18  and  C_19
REMARK                            x       y       z     vdW  Elec       q    Type
REMARK                         _______ _______ _______ _____ _____    ______ ____
ROOT
ATOM      1  C   UNL     1       2.112   6.333  19.864  0.00  0.00    +0.000 C 
ATOM      2  O   UNL     1       1.462   5.702  20.696  0.00  0.00    +0.000 OA
ATOM      3  N   UNL     1       2.098   7.718  19.720  0.00  0.00    +0.000 N 
ATOM      4  H   UNL     1       2.565   8.070  18.894  0.00  0.00    +0.000 HD
ENDROOT
BRANCH   3   5
ATOM      5  C   UNL     1       1.353   8.612  20.523  0.00  0.00    +0.000 A 
ATOM      6  C   UNL     1       1.353   8.544  21.914  0.00  0.00    +0.000 A 
ATOM      7  C   UNL     1       0.533   9.377  22.674  0.00  0.00    +0.000 A 
ATOM      8  C   UNL     1      -0.313  10.306  22.061  0.00  0.00    +0.000 A 
ATOM      9  C   UNL     1      -1.233  11.116  22.932  0.00  0.00    +0.000 C 
ATOM     10  C   UNL     1      -0.287  10.429  20.658  0.00  0.00    +0.000 A 
ATOM     11  C   UNL     1      -1.166  11.401  19.917  0.00  0.00    +0.000 C 
ATOM     12  C   UNL     1       0.568   9.591  19.905  0.00  0.00    +0.000 A 
ENDBRANCH   3   5
BRANCH   1  16
ATOM     13  N   UNL     1       4.600   4.959  17.760  0.00  0.00    +0.000 N 
ATOM     14  C   UNL     1       3.552   4.140  17.485  0.00  0.00    +0.000 A 
ATOM     15  N   UNL     1       2.511   4.528  18.173  0.00  0.00    +0.000 NA
ATOM     16  C   UNL     1       2.966   5.627  18.886  0.00  0.00    +0.000 A 
ATOM     17  N   UNL     1       4.243   5.966  18.591  0.00  0.00    +0.000 NA
BRANCH  13  18
ATOM     18  C   UNL     1       5.935   4.849  17.219  0.00  0.00    +0.000 C 
BRANCH  18  19
ATOM     19  C   UNL     1       6.235   5.970  16.262  0.00  0.00    +0.000 C 
ATOM     20  O   UNL     1       5.476   6.425  15.420  0.00  0.00    +0.000 OA
BRANCH  19  22
ATOM     21  C   UNL     1       7.558   7.444  17.518  0.00  0.00    +0.000 C 
ATOM     22  O   UNL     1       7.496   6.442  16.499  0.00  0.00    +0.000 OA
ENDBRANCH  19  22
ENDBRANCH  18  19
ENDBRANCH  13  18
ENDBRANCH   1  16
TORSDOF 5
ENDMDL
MODEL 8
REMARK VINA RESULT:      -6.5      3.414      5.465
REMARK  Name = 
REMARK  8 active torsions:
REMARK  status: ('A' for Active; 'I' for Inactive)
REMARK    1  A    between atoms: C_1  and  O_2
REMARK    2  A    between atoms: O_2  and  C_3
REMARK    3  A    between atoms: C_3  and  C_5
REMARK    4  A    between atoms: C_5  and  N_6
REMARK    5  A    between atoms: C_9  and  C_10
REMARK    6  A    between atoms: N_12  and  C_13
REMARK    7  A    between atoms: C_16  and  C_17
REMARK    8  A    between atoms: C_18  and  C_19
REMARK                            x       y       z     vdW  Elec       q    Type
REMARK                         _______ _______ _______ _____ _____    ______ ____
ROOT
ATOM      1  C   UNL     1       2.745   5.967  18.588  0.00  0.00    +0.000 C 
ATOM      2  O   UNL     1       1.654   5.410  18.473  0.00  0.00    +0.000 OA
ATOM      3  N   UNL     1       2.928   7.315  18.886  0.00  0.00    +0.000 N 
ATOM      4  H   UNL     1       3.878   7.651  18.792  0.00  0.00    +0.000 HD
ENDROOT
BRANCH   3   5
ATOM      5  C   UNL     1       1.890   8.244  19.126  0.00  0.00    +0.000 A 
ATOM      6  C   UNL     1       1.419   9.108  18.139  0.00  0.00    +0.000 A 
ATOM      7  C   UNL     1       0.461  10.079  18.433  0.00  0.00    +0.000 A 
ATOM      8  C   UNL     1      -0.054  10.212  19.727  0.00  0.00    +0.000 A 
ATOM      9  C   UNL     1      -1.021  11.331  19.997  0.00  0.00    +0.000 C 
ATOM     10  C   UNL     1       0.369   9.312  20.724  0.00  0.00    +0.000 A 
ATOM     11  C   UNL     1      -0.132   9.386  22.142  0.00  0.00    +0.000 C 
ATOM     12  C   UNL     1       1.325   8.319  20.402  0.00  0.00    +0.000 A 
ENDBRANCH   3   5
BRANCH   1  16
ATOM     13  N   UNL     1       5.927   4.656  17.775  0.00  0.00    +0.000 N 
ATOM     14  C   UNL     1       5.478   3.716  18.647  0.00  0.00    +0.000 A 
ATOM     15  N   UNL     1       4.273   4.033  19.039  0.00  0.00    +0.000 NA
ATOM     16  C   UNL     1       3.998   5.214  18.367  0.00  0.00    +0.000 A 
ATOM     17  N   UNL     1       4.981   5.587  17.514  0.00  0.00    +0.000 NA
BRANCH  13  18
ATOM     18  C   UNL     1       7.222   4.679  17.135  0.00  0.00    +0.000 C 
BRANCH  18  19
ATOM     19  C   UNL     1       7.095   4.788  15.640  0.00  0.00    +0.000 C 
ATOM     20  O   UNL     1       7.615   5.633  14.930  0.00  0.00    +0.000 OA
BRANCH  19  22
ATOM     21  C   UNL     1       5.999   3.859  13.787  0.00  0.00    +0.000 C 
ATOM     22  O   UNL     1       6.324   3.758  15.176  0.00  0.00    +0.000 OA
ENDBRANCH  19  22
ENDBRANCH  18  19
ENDBRANCH  13  18
ENDBRANCH   1  16
TORSDOF 5
ENDMDL
MODEL 9
REMARK VINA RESULT:      -6.5      3.589      6.160
REMARK  Name = 
REMARK  8 active torsions:
REMARK  status: ('A' for Active; 'I' for Inactive)
REMARK    1  A    between atoms: C_1  and  O_2
REMARK    2  A    between atoms: O_2  and  C_3
REMARK    3  A    between atoms: C_3  and  C_5
REMARK    4  A    between atoms: C_5  and  N_6
REMARK    5  A    between atoms: C_9  and  C_10
REMARK    6  A    between atoms: N_12  and  C_13
REMARK    7  A    between atoms: C_16  and  C_17
REMARK    8  A    between atoms: C_18  and  C_19
REMARK                            x       y       z     vdW  Elec       q    Type
REMARK                         _______ _______ _______ _____ _____    ______ ____
ROOT
ATOM      1  C   UNL     1       2.416   6.015  19.926  0.00  0.00    +0.000 C 
ATOM      2  O   UNL     1       1.439   5.454  20.420  0.00  0.00    +0.000 OA
ATOM      3  N   UNL     1       2.545   7.390  19.747  0.00  0.00    +0.000 N 
ATOM      4  H   UNL     1       3.338   7.679  19.189  0.00  0.00    +0.000 HD
ENDROOT
BRANCH   3   5
ATOM      5  C   UNL     1       1.583   8.353  20.126  0.00  0.00    +0.000 A 
ATOM      6  C   UNL     1       1.044   9.267  19.222  0.00  0.00    +0.000 A 
ATOM      7  C   UNL     1       0.170  10.267  19.647  0.00  0.00    +0.000 A 
ATOM      8  C   UNL     1      -0.192  10.381  20.993  0.00  0.00    +0.000 A 
ATOM      9  C   UNL     1      -1.072  11.531  21.400  0.00  0.00    +0.000 C 
ATOM     10  C   UNL     1       0.298   9.433  21.913  0.00  0.00    +0.000 A 
ATOM     11  C   UNL     1      -0.038   9.484  23.380  0.00  0.00    +0.000 C 
ATOM     12  C   UNL     1       1.167   8.412  21.460  0.00  0.00    +0.000 A 
ENDBRANCH   3   5
BRANCH   1  16
ATOM     13  N   UNL     1       5.401   4.652  18.606  0.00  0.00    +0.000 N 
ATOM     14  C   UNL     1       4.842   3.549  19.166  0.00  0.00    +0.000 A 
ATOM     15  N   UNL     1       3.689   3.869  19.691  0.00  0.00    +0.000 NA
ATOM     16  C   UNL     1       3.563   5.225  19.428  0.00  0.00    +0.000 A 
ATOM     17  N   UNL     1       4.579   5.725  18.687  0.00  0.00    +0.000 NA
BRANCH  13  18
ATOM     18  C   UNL     1       6.685   4.720  17.947  0.00  0.00    +0.000 C 
BRANCH  18  19
ATOM     19  C   UNL     1       6.674   5.719  16.823  0.00  0.00    +0.000 C 
ATOM     20  O   UNL     1       7.241   6.801  16.811  0.00  0.00    +0.000 OA
BRANCH  19  22
ATOM     21  C   UNL     1       6.736   4.485  14.830  0.00  0.00    +0.000 C 
ATOM     22  O   UNL     1       5.951   5.216  15.777  0.00  0.00    +0.000 OA
ENDBRANCH  19  22
ENDBRANCH  18  19
ENDBRANCH  13  18
ENDBRANCH   1  16
TORSDOF 5
ENDMDL
