MODEL 1
REMARK VINA RESULT:      -8.1      0.000      0.000
REMARK  Name = 
REMARK  3 active torsions:
REMARK  status: ('A' for Active; 'I' for Inactive)
REMARK    1  A    between atoms: C_1  and  C_2
REMARK    2  A    between atoms: C_6  and  C_7
REMARK    3  A    between atoms: C_13  and  C_14
REMARK                            x       y       z     vdW  Elec       q    Type
REMARK                         _______ _______ _______ _____ _____    ______ ____
ROOT
ATOM      1  C   UNL     1       8.167   6.834  18.619  0.00  0.00    +0.000 C 
ATOM      2  C   UNL     1       7.137   5.754  18.836  0.00  0.00    +0.000 C 
ATOM      3  O   UNL     1       6.744   5.461  19.965  0.00  0.00    +0.000 OA
ATOM      4  N   UNL     1       6.646   5.168  17.685  0.00  0.00    +0.000 N 
ATOM      5  N   UNL     1       7.170   5.425  16.446  0.00  0.00    +0.000 NA
ATOM      6  C   UNL     1       6.560   4.635  15.615  0.00  0.00    +0.000 C 
ATOM      7  C   UNL     1       5.536   3.715  16.215  0.00  0.00    +0.000 C 
ATOM      8  C   UNL     1       5.573   4.176  17.665  0.00  0.00    +0.000 C 
ENDROOT
BRANCH   8   9
ATOM      9  C   UNL     1       4.278   4.801  18.070  0.00  0.00    +0.000 A 
ATOM     10  C   UNL     1       3.638   5.983  17.754  0.00  0.00    +0.000 A 
ATOM     11  C   UNL     1       2.438   6.002  18.504  0.00  0.00    +0.000 A 
ATOM     12  C   UNL     1       2.406   4.826  19.221  0.00  0.00    +0.000 A 
ATOM     13 CL   UNL     1       1.174   4.321  20.306  0.00  0.00    +0.000 Cl
ATOM     14  O   UNL     1       3.517   4.085  18.951  0.00  0.00    +0.000 OA
ENDBRANCH   8   9
BRANCH   6  15
ATOM     15  C   UNL     1       6.857   4.625  14.216  0.00  0.00    +0.000 A 
ATOM     16  C   UNL     1       6.384   3.835  13.185  0.00  0.00    +0.000 A 
ATOM     17  C   UNL     1       7.041   4.266  12.008  0.00  0.00    +0.000 A 
ATOM     18  C   UNL     1       7.868   5.294  12.389  0.00  0.00    +0.000 A 
ATOM     19  O   UNL     1       7.763   5.522  13.724  0.00  0.00    +0.000 OA
ENDBRANCH   6  15
TORSDOF 2
ENDMDL
MODEL 2
REMARK VINA RESULT:      -7.9      2.781      6.026
REMARK  Name = 
REMARK  3 active torsions:
REMARK  status: ('A' for Active; 'I' for Inactive)
REMARK    1  A    between atoms: C_1  and  C_2
REMARK    2  A    between atoms: C_6  and  C_7
REMARK    3  A    between atoms: C_13  and  C_14
REMARK                            x       y       z     vdW  Elec       q    Type
REMARK                         _______ _______ _______ _____ _____    ______ ____
ROOT
ATOM      1  C   UNL     1       8.036   5.766  19.539  0.00  0.00    +0.000 C 
ATOM      2  C   UNL     1       7.321   6.200  18.285  0.00  0.00    +0.000 C 
ATOM      3  O   UNL     1       7.899   6.837  17.405  0.00  0.00    +0.000 OA
ATOM      4  N   UNL     1       6.005   5.789  18.184  0.00  0.00    +0.000 N 
ATOM      5  N   UNL     1       5.344   5.178  19.216  0.00  0.00    +0.000 NA
ATOM      6  C   UNL     1       4.112   5.032  18.829  0.00  0.00    +0.000 C 
ATOM      7  C   UNL     1       3.785   5.557  17.462  0.00  0.00    +0.000 C 
ATOM      8  C   UNL     1       5.164   6.015  17.010  0.00  0.00    +0.000 C 
ENDROOT
BRANCH   8   9
ATOM      9  C   UNL     1       5.656   5.204  15.855  0.00  0.00    +0.000 A 
ATOM     10  C   UNL     1       5.487   3.892  15.457  0.00  0.00    +0.000 A 
ATOM     11  C   UNL     1       6.249   3.732  14.275  0.00  0.00    +0.000 A 
ATOM     12  C   UNL     1       6.824   4.955  14.010  0.00  0.00    +0.000 A 
ATOM     13 CL   UNL     1       7.856   5.338  12.692  0.00  0.00    +0.000 Cl
ATOM     14  O   UNL     1       6.455   5.859  14.961  0.00  0.00    +0.000 OA
ENDBRANCH   8   9
BRANCH   6  15
ATOM     15  C   UNL     1       3.120   4.426  19.664  0.00  0.00    +0.000 A 
ATOM     16  C   UNL     1       1.878   4.869  20.078  0.00  0.00    +0.000 A 
ATOM     17  C   UNL     1       1.340   3.854  20.906  0.00  0.00    +0.000 A 
ATOM     18  C   UNL     1       2.280   2.855  20.942  0.00  0.00    +0.000 A 
ATOM     19  O   UNL     1       3.361   3.188  20.189  0.00  0.00    +0.000 OA
ENDBRANCH   6  15
TORSDOF 2
ENDMDL
MODEL 3
REMARK VINA RESULT:      -7.8      1.181      1.317
REMARK  Name = 
REMARK  3 active torsions:
REMARK  status: ('A' for Active; 'I' for Inactive)
REMARK    1  A    between atoms: C_1  and  C_2
REMARK    2  A    between atoms: C_6  and  C_7
REMARK    3  A    between atoms: C_13  and  C_14
REMARK                            x       y       z     vdW  Elec       q    Type
REMARK                         _______ _______ _______ _____ _____    ______ ____
ROOT
ATOM      1  C   UNL     1       8.144   6.927  18.557  0.00  0.00    +0.000 C 
ATOM      2  C   UNL     1       7.183   5.786  18.782  0.00  0.00    +0.000 C 
ATOM      3  O   UNL     1       6.823   5.467  19.915  0.00  0.00    +0.000 OA
ATOM      4  N   UNL     1       6.712   5.177  17.635  0.00  0.00    +0.000 N 
ATOM      5  N   UNL     1       7.204   5.469  16.391  0.00  0.00    +0.000 NA
ATOM      6  C   UNL     1       6.630   4.647  15.564  0.00  0.00    +0.000 C 
ATOM      7  C   UNL     1       5.671   3.666  16.173  0.00  0.00    +0.000 C 
ATOM      8  C   UNL     1       5.699   4.123  17.624  0.00  0.00    +0.000 C 
ENDROOT
BRANCH   8   9
ATOM      9  C   UNL     1       4.376   4.669  18.050  0.00  0.00    +0.000 A 
ATOM     10  C   UNL     1       3.286   4.145  18.717  0.00  0.00    +0.000 A 
ATOM     11  C   UNL     1       2.322   5.178  18.783  0.00  0.00    +0.000 A 
ATOM     12  C   UNL     1       2.882   6.277  18.169  0.00  0.00    +0.000 A 
ATOM     13 CL   UNL     1       2.152   7.817  17.960  0.00  0.00    +0.000 Cl
ATOM     14  O   UNL     1       4.138   5.977  17.733  0.00  0.00    +0.000 OA
ENDBRANCH   8   9
BRANCH   6  15
ATOM     15  C   UNL     1       6.909   4.661  14.161  0.00  0.00    +0.000 A 
ATOM     16  C   UNL     1       6.463   3.853  13.132  0.00  0.00    +0.000 A 
ATOM     17  C   UNL     1       7.082   4.324  11.949  0.00  0.00    +0.000 A 
ATOM     18  C   UNL     1       7.860   5.391  12.325  0.00  0.00    +0.000 A 
ATOM     19  O   UNL     1       7.760   5.606  13.663  0.00  0.00    +0.000 OA
ENDBRANCH   6  15
TORSDOF 2
ENDMDL
MODEL 4
REMARK VINA RESULT:      -7.6      2.280      3.430
REMARK  Name = 
REMARK  3 active torsions:
REMARK  status: ('A' for Active; 'I' for Inactive)
REMARK    1  A    between atoms: C_1  and  C_2
REMARK    2  A    between atoms: C_6  and  C_7
REMARK    3  A    between atoms: C_13  and  C_14
REMARK                            x       y       z     vdW  Elec       q    Type
REMARK                         _______ _______ _______ _____ _____    ______ ____
ROOT
ATOM      1  C   UNL     1       1.977   8.447  17.762  0.00  0.00    +0.000 C 
ATOM      2  C   UNL     1       2.478   7.609  18.910  0.00  0.00    +0.000 C 
ATOM      3  O   UNL     1       2.072   7.786  20.058  0.00  0.00    +0.000 OA
ATOM      4  N   UNL     1       3.375   6.615  18.567  0.00  0.00    +0.000 N 
ATOM      5  N   UNL     1       3.901   6.501  17.308  0.00  0.00    +0.000 NA
ATOM      6  C   UNL     1       4.781   5.546  17.361  0.00  0.00    +0.000 C 
ATOM      7  C   UNL     1       4.968   4.898  18.701  0.00  0.00    +0.000 C 
ATOM      8  C   UNL     1       3.904   5.629  19.508  0.00  0.00    +0.000 C 
ENDROOT
BRANCH   8   9
ATOM      9  C   UNL     1       2.822   4.699  19.950  0.00  0.00    +0.000 A 
ATOM     10  C   UNL     1       2.236   4.412  21.167  0.00  0.00    +0.000 A 
ATOM     11  C   UNL     1       1.276   3.401  20.921  0.00  0.00    +0.000 A 
ATOM     12  C   UNL     1       1.319   3.141  19.569  0.00  0.00    +0.000 A 
ATOM     13 CL   UNL     1       0.365   1.997  18.715  0.00  0.00    +0.000 Cl
ATOM     14  O   UNL     1       2.249   3.938  18.970  0.00  0.00    +0.000 OA
ENDBRANCH   8   9
BRANCH   6  15
ATOM     15  C   UNL     1       5.541   5.148  16.215  0.00  0.00    +0.000 A 
ATOM     16  C   UNL     1       5.288   4.212  15.230  0.00  0.00    +0.000 A 
ATOM     17  C   UNL     1       6.400   4.235  14.353  0.00  0.00    +0.000 A 
ATOM     18  C   UNL     1       7.257   5.184  14.852  0.00  0.00    +0.000 A 
ATOM     19  O   UNL     1       6.746   5.747  15.978  0.00  0.00    +0.000 OA
ENDBRANCH   6  15
TORSDOF 2
ENDMDL
MODEL 5
REMARK VINA RESULT:      -7.3      1.085      1.166
REMARK  Name = 
REMARK  3 active torsions:
REMARK  status: ('A' for Active; 'I' for Inactive)
REMARK    1  A    between atoms: C_1  and  C_2
REMARK    2  A    between atoms: C_6  and  C_7
REMARK    3  A    between atoms: C_13  and  C_14
REMARK                            x       y       z     vdW  Elec       q    Type
REMARK                         _______ _______ _______ _____ _____    ______ ____
ROOT
ATOM      1  C   UNL     1       8.230   5.679  18.972  0.00  0.00    +0.000 C 
ATOM      2  C   UNL     1       6.792   5.226  19.008  0.00  0.00    +0.000 C 
ATOM      3  O   UNL     1       6.180   5.119  20.070  0.00  0.00    +0.000 OA
ATOM      4  N   UNL     1       6.216   4.994  17.773  0.00  0.00    +0.000 N 
ATOM      5  N   UNL     1       6.938   5.009  16.609  0.00  0.00    +0.000 NA
ATOM      6  C   UNL     1       6.123   4.644  15.665  0.00  0.00    +0.000 C 
ATOM      7  C   UNL     1       4.723   4.314  16.095  0.00  0.00    +0.000 C 
ATOM      8  C   UNL     1       4.809   4.647  17.578  0.00  0.00    +0.000 C 
ENDROOT
BRANCH   8   9
ATOM      9  C   UNL     1       3.934   5.806  17.927  0.00  0.00    +0.000 A 
ATOM     10  C   UNL     1       3.656   7.018  17.328  0.00  0.00    +0.000 A 
ATOM     11  C   UNL     1       2.756   7.693  18.187  0.00  0.00    +0.000 A 
ATOM     12  C   UNL     1       2.524   6.849  19.252  0.00  0.00    +0.000 A 
ATOM     13 CL   UNL     1       1.509   7.158  20.602  0.00  0.00    +0.000 Cl
ATOM     14  O   UNL     1       3.228   5.693  19.092  0.00  0.00    +0.000 OA
ENDBRANCH   8   9
BRANCH   6  15
ATOM     15  C   UNL     1       6.538   4.542  14.299  0.00  0.00    +0.000 A 
ATOM     16  C   UNL     1       6.135   3.698  13.281  0.00  0.00    +0.000 A 
ATOM     17  C   UNL     1       6.900   4.043  12.141  0.00  0.00    +0.000 A 
ATOM     18  C   UNL     1       7.717   5.077  12.530  0.00  0.00    +0.000 A 
ATOM     19  O   UNL     1       7.503   5.390  13.834  0.00  0.00    +0.000 OA
ENDBRANCH   6  15
TORSDOF 2
ENDMDL
MODEL 6
REMARK VINA RESULT:      -7.3      0.853      1.027
REMARK  Name = 
REMARK  3 active torsions:
REMARK  status: ('A' for Active; 'I' for Inactive)
REMARK    1  A    between atoms: C_1  and  C_2
REMARK    2  A    between atoms: C_6  and  C_7
REMARK    3  A    between atoms: C_13  and  C_14
REMARK                            x       y       z     vdW  Elec       q    Type
REMARK                         _______ _______ _______ _____ _____    ______ ____
ROOT
ATOM      1  C   UNL     1       8.069   7.445  18.075  0.00  0.00    +0.000 C 
ATOM      2  C   UNL     1       7.255   6.251  18.505  0.00  0.00    +0.000 C 
ATOM      3  O   UNL     1       7.000   6.043  19.691  0.00  0.00    +0.000 OA
ATOM      4  N   UNL     1       6.788   5.455  17.476  0.00  0.00    +0.000 N 
ATOM      5  N   UNL     1       7.172   5.634  16.174  0.00  0.00    +0.000 NA
ATOM      6  C   UNL     1       6.645   4.659  15.496  0.00  0.00    +0.000 C 
ATOM      7  C   UNL     1       5.838   3.670  16.286  0.00  0.00    +0.000 C 
ATOM      8  C   UNL     1       5.900   4.309  17.666  0.00  0.00    +0.000 C 
ENDROOT
BRANCH   8   9
ATOM      9  C   UNL     1       4.551   4.766  18.116  0.00  0.00    +0.000 A 
ATOM     10  C   UNL     1       3.563   5.552  17.556  0.00  0.00    +0.000 A 
ATOM     11  C   UNL     1       2.525   5.633  18.514  0.00  0.00    +0.000 A 
ATOM     12  C   UNL     1       2.929   4.880  19.595  0.00  0.00    +0.000 A 
ATOM     13 CL   UNL     1       2.056   4.628  21.052  0.00  0.00    +0.000 Cl
ATOM     14  O   UNL     1       4.156   4.339  19.352  0.00  0.00    +0.000 OA
ENDBRANCH   8   9
BRANCH   6  15
ATOM     15  C   UNL     1       6.839   4.521  14.085  0.00  0.00    +0.000 A 
ATOM     16  C   UNL     1       7.637   5.220  13.199  0.00  0.00    +0.000 A 
ATOM     17  C   UNL     1       7.415   4.655  11.920  0.00  0.00    +0.000 A 
ATOM     18  C   UNL     1       6.503   3.646  12.104  0.00  0.00    +0.000 A 
ATOM     19  O   UNL     1       6.149   3.553  13.412  0.00  0.00    +0.000 OA
ENDBRANCH   6  15
TORSDOF 2
ENDMDL
MODEL 7
REMARK VINA RESULT:      -7.2      2.269      3.237
REMARK  Name = 
REMARK  3 active torsions:
REMARK  status: ('A' for Active; 'I' for Inactive)
REMARK    1  A    between atoms: C_1  and  C_2
REMARK    2  A    between atoms: C_6  and  C_7
REMARK    3  A    between atoms: C_13  and  C_14
REMARK                            x       y       z     vdW  Elec       q    Type
REMARK                         _______ _______ _______ _____ _____    ______ ____
ROOT
ATOM      1  C   UNL     1       2.212   8.423  17.766  0.00  0.00    +0.000 C 
ATOM      2  C   UNL     1       2.613   7.429  18.827  0.00  0.00    +0.000 C 
ATOM      3  O   UNL     1       2.186   7.514  19.978  0.00  0.00    +0.000 OA
ATOM      4  N   UNL     1       3.441   6.409  18.397  0.00  0.00    +0.000 N 
ATOM      5  N   UNL     1       3.995   6.390  17.145  0.00  0.00    +0.000 NA
ATOM      6  C   UNL     1       4.798   5.368  17.113  0.00  0.00    +0.000 C 
ATOM      7  C   UNL     1       4.894   4.568  18.379  0.00  0.00    +0.000 C 
ATOM      8  C   UNL     1       3.865   5.290  19.236  0.00  0.00    +0.000 C 
ENDROOT
BRANCH   8   9
ATOM      9  C   UNL     1       2.702   4.406  19.550  0.00  0.00    +0.000 A 
ATOM     10  C   UNL     1       1.603   3.970  18.837  0.00  0.00    +0.000 A 
ATOM     11  C   UNL     1       0.846   3.166  19.722  0.00  0.00    +0.000 A 
ATOM     12  C   UNL     1       1.532   3.144  20.917  0.00  0.00    +0.000 A 
ATOM     13 CL   UNL     1       1.068   2.319  22.350  0.00  0.00    +0.000 Cl
ATOM     14  O   UNL     1       2.670   3.886  20.814  0.00  0.00    +0.000 OA
ENDBRANCH   8   9
BRANCH   6  15
ATOM     15  C   UNL     1       5.560   5.036  15.948  0.00  0.00    +0.000 A 
ATOM     16  C   UNL     1       5.201   4.417  14.766  0.00  0.00    +0.000 A 
ATOM     17  C   UNL     1       6.373   4.339  13.976  0.00  0.00    +0.000 A 
ATOM     18  C   UNL     1       7.371   4.920  14.718  0.00  0.00    +0.000 A 
ATOM     19  O   UNL     1       6.890   5.349  15.914  0.00  0.00    +0.000 OA
ENDBRANCH   6  15
TORSDOF 2
ENDMDL
MODEL 8
REMARK VINA RESULT:      -7.1      2.686      5.848
REMARK  Name = 
REMARK  3 active torsions:
REMARK  status: ('A' for Active; 'I' for Inactive)
REMARK    1  A    between atoms: C_1  and  C_2
REMARK    2  A    between atoms: C_6  and  C_7
REMARK    3  A    between atoms: C_13  and  C_14
REMARK                            x       y       z     vdW  Elec       q    Type
REMARK                         _______ _______ _______ _____ _____    ______ ____
ROOT
ATOM      1  C   UNL     1       8.137   6.467  19.079  0.00  0.00    +0.000 C 
ATOM      2  C   UNL     1       7.301   6.640  17.836  0.00  0.00    +0.000 C 
ATOM      3  O   UNL     1       7.731   7.242  16.853  0.00  0.00    +0.000 OA
ATOM      4  N   UNL     1       6.058   6.036  17.874  0.00  0.00    +0.000 N 
ATOM      5  N   UNL     1       5.550   5.466  19.011  0.00  0.00    +0.000 NA
ATOM      6  C   UNL     1       4.336   5.101  18.729  0.00  0.00    +0.000 C 
ATOM      7  C   UNL     1       3.863   5.404  17.337  0.00  0.00    +0.000 C 
ATOM      8  C   UNL     1       5.133   5.996  16.742  0.00  0.00    +0.000 C 
ENDROOT
BRANCH   8   9
ATOM      9  C   UNL     1       5.680   5.130  15.655  0.00  0.00    +0.000 A 
ATOM     10  C   UNL     1       6.889   4.497  15.442  0.00  0.00    +0.000 A 
ATOM     11  C   UNL     1       6.785   3.847  14.190  0.00  0.00    +0.000 A 
ATOM     12  C   UNL     1       5.517   4.104  13.717  0.00  0.00    +0.000 A 
ATOM     13 CL   UNL     1       4.846   3.561  12.233  0.00  0.00    +0.000 Cl
ATOM     14  O   UNL     1       4.835   4.873  14.612  0.00  0.00    +0.000 OA
ENDBRANCH   8   9
BRANCH   6  15
ATOM     15  C   UNL     1       3.490   4.465  19.693  0.00  0.00    +0.000 A 
ATOM     16  C   UNL     1       2.401   4.932  20.404  0.00  0.00    +0.000 A 
ATOM     17  C   UNL     1       1.964   3.864  21.225  0.00  0.00    +0.000 A 
ATOM     18  C   UNL     1       2.806   2.813  20.961  0.00  0.00    +0.000 A 
ATOM     19  O   UNL     1       3.733   3.163  20.032  0.00  0.00    +0.000 OA
ENDBRANCH   6  15
TORSDOF 2
ENDMDL
MODEL 9
REMARK VINA RESULT:      -7.0      2.772      5.862
REMARK  Name = 
REMARK  3 active torsions:
REMARK  status: ('A' for Active; 'I' for Inactive)
REMARK    1  A    between atoms: C_1  and  C_2
REMARK    2  A    between atoms: C_6  and  C_7
REMARK    3  A    between atoms: C_13  and  C_14
REMARK                            x       y       z     vdW  Elec       q    Type
REMARK                         _______ _______ _______ _____ _____    ______ ____
ROOT
ATOM      1  C   UNL     1       5.734   4.048  14.283  0.00  0.00    +0.000 C 
ATOM      2  C   UNL     1       6.653   4.471  15.402  0.00  0.00    +0.000 C 
ATOM      3  O   UNL     1       7.818   4.800  15.184  0.00  0.00    +0.000 OA
ATOM      4  N   UNL     1       6.075   4.506  16.657  0.00  0.00    +0.000 N 
ATOM      5  N   UNL     1       4.813   4.032  16.900  0.00  0.00    +0.000 NA
ATOM      6  C   UNL     1       4.632   4.111  18.185  0.00  0.00    +0.000 C 
ATOM      7  C   UNL     1       5.786   4.644  18.981  0.00  0.00    +0.000 C 
ATOM      8  C   UNL     1       6.757   4.982  17.859  0.00  0.00    +0.000 C 
ENDROOT
BRANCH   8   9
ATOM      9  C   UNL     1       6.998   6.454  17.772  0.00  0.00    +0.000 A 
ATOM     10  C   UNL     1       6.411   7.486  17.067  0.00  0.00    +0.000 A 
ATOM     11  C   UNL     1       7.127   8.659  17.403  0.00  0.00    +0.000 A 
ATOM     12  C   UNL     1       8.098   8.280  18.304  0.00  0.00    +0.000 A 
ATOM     13 CL   UNL     1       9.262   9.302  19.047  0.00  0.00    +0.000 Cl
ATOM     14  O   UNL     1       8.015   6.941  18.543  0.00  0.00    +0.000 OA
ENDBRANCH   8   9
BRANCH   6  15
ATOM     15  C   UNL     1       3.412   3.695  18.807  0.00  0.00    +0.000 A 
ATOM     16  C   UNL     1       2.097   3.776  18.387  0.00  0.00    +0.000 A 
ATOM     17  C   UNL     1       1.306   3.216  19.419  0.00  0.00    +0.000 A 
ATOM     18  C   UNL     1       2.184   2.824  20.400  0.00  0.00    +0.000 A 
ATOM     19  O   UNL     1       3.462   3.105  20.038  0.00  0.00    +0.000 OA
ENDBRANCH   6  15
TORSDOF 2
ENDMDL
