MODEL 1
REMARK VINA RESULT:      -7.9      0.000      0.000
REMARK  Name = 
REMARK  9 active torsions:
REMARK  status: ('A' for Active; 'I' for Inactive)
REMARK    1  A    between atoms: P_2  and  O_3
REMARK    2  A    between atoms: P_2  and  O_4
REMARK    3  A    between atoms: P_2  and  O_5
REMARK    4  A    between atoms: O_5  and  C_6
REMARK    5  A    between atoms: C_6  and  C_7
REMARK    6  A    between atoms: C_9  and  N_10
REMARK    7  A    between atoms: C_14  and  C_15
REMARK    8  A    between atoms: C_25  and  O_26
REMARK    9  A    between atoms: C_27  and  O_28
REMARK                            x       y       z     vdW  Elec       q    Type
REMARK                         _______ _______ _______ _____ _____    ______ ____
ROOT
ATOM      1  C   UNL     1       5.110   4.340  17.705  0.00  0.00    +0.000 C 
ATOM      2  O   UNL     1       4.907   5.708  18.134  0.00  0.00    +0.000 OA
ATOM      3  C   UNL     1       3.790   5.745  19.039  0.00  0.00    +0.000 C 
ATOM      4  C   UNL     1       3.044   4.420  18.914  0.00  0.00    +0.000 C 
ATOM      5  C   UNL     1       4.188   3.477  18.575  0.00  0.00    +0.000 C 
ENDROOT
BRANCH   3   6
ATOM      6  N   UNL     1       2.986   6.918  18.779  0.00  0.00    +0.000 N 
ATOM      7  C   UNL     1       3.076   7.674  17.641  0.00  0.00    +0.000 A 
ATOM      8  N   UNL     1       2.333   8.754  17.711  0.00  0.00    +0.000 NA
ATOM      9  C   UNL     1       1.726   8.694  18.954  0.00  0.00    +0.000 A 
ATOM     10  C   UNL     1       0.870   9.570  19.638  0.00  0.00    +0.000 A 
ATOM     11  N   UNL     1       0.457   9.223  20.895  0.00  0.00    +0.000 NA
ATOM     12  C   UNL     1       0.886   8.053  21.407  0.00  0.00    +0.000 A 
ATOM     13  N   UNL     1       1.719   7.149  20.853  0.00  0.00    +0.000 NA
ATOM     14  C   UNL     1       2.104   7.538  19.624  0.00  0.00    +0.000 A 
BRANCH  10  15
ATOM     15  C   UNL     1       0.475  10.874  19.092  0.00  0.00    +0.000 A 
ATOM     16  C   UNL     1       1.355  11.972  19.079  0.00  0.00    +0.000 A 
ATOM     17  C   UNL     1       0.950  13.234  18.637  0.00  0.00    +0.000 A 
ATOM     18  C   UNL     1      -0.351  13.422  18.178  0.00  0.00    +0.000 A 
ATOM     19  C   UNL     1      -1.235  12.348  18.152  0.00  0.00    +0.000 A 
ATOM     20  C   UNL     1      -0.825  11.087  18.599  0.00  0.00    +0.000 A 
ENDBRANCH  10  15
ENDBRANCH   3   6
BRANCH   4  21
ATOM     21  O   UNL     1       2.384   4.042  20.121  0.00  0.00    +0.000 OA
ATOM     22  H   UNL     1       1.536   3.629  19.851  0.00  0.00    +0.000 HD
ENDBRANCH   4  21
BRANCH   5  23
ATOM     23  O   UNL     1       4.808   3.090  19.816  0.00  0.00    +0.000 OA
ATOM     24  H   UNL     1       5.139   2.176  19.738  0.00  0.00    +0.000 HD
ENDBRANCH   5  23
BRANCH   1  25
ATOM     25  C   UNL     1       4.792   4.200  16.213  0.00  0.00    +0.000 C 
BRANCH  25  26
ATOM     26  O   UNL     1       5.847   3.522  15.531  0.00  0.00    +0.000 OA
BRANCH  26  28
ATOM     27  O   UNL     1       7.810   5.608  13.936  0.00  0.00    +0.000 OA
ATOM     28  P   UNL     1       6.883   4.623  14.689  0.00  0.00    +0.000 P 
BRANCH  28  29
ATOM     29  O   UNL     1       7.835   4.641  16.019  0.00  0.00    +0.000 OA
ATOM     30  H   UNL     1       7.264   4.418  16.779  0.00  0.00    +0.000 HD
ENDBRANCH  28  29
BRANCH  28  31
ATOM     31  O   UNL     1       5.865   5.810  15.152  0.00  0.00    +0.000 OA
ATOM     32  H   UNL     1       6.167   6.138  16.019  0.00  0.00    +0.000 HD
ENDBRANCH  28  31
ENDBRANCH  26  28
ENDBRANCH  25  26
ENDBRANCH   1  25
TORSDOF 9
ENDMDL
MODEL 2
REMARK VINA RESULT:      -7.9      1.544      2.596
REMARK  Name = 
REMARK  9 active torsions:
REMARK  status: ('A' for Active; 'I' for Inactive)
REMARK    1  A    between atoms: P_2  and  O_3
REMARK    2  A    between atoms: P_2  and  O_4
REMARK    3  A    between atoms: P_2  and  O_5
REMARK    4  A    between atoms: O_5  and  C_6
REMARK    5  A    between atoms: C_6  and  C_7
REMARK    6  A    between atoms: C_9  and  N_10
REMARK    7  A    between atoms: C_14  and  C_15
REMARK    8  A    between atoms: C_25  and  O_26
REMARK    9  A    between atoms: C_27  and  O_28
REMARK                            x       y       z     vdW  Elec       q    Type
REMARK                         _______ _______ _______ _____ _____    ______ ____
ROOT
ATOM      1  C   UNL     1       4.446   3.136  17.729  0.00  0.00    +0.000 C 
ATOM      2  O   UNL     1       4.308   3.999  18.883  0.00  0.00    +0.000 OA
ATOM      3  C   UNL     1       2.958   3.904  19.370  0.00  0.00    +0.000 C 
ATOM      4  C   UNL     1       2.119   3.227  18.290  0.00  0.00    +0.000 C 
ATOM      5  C   UNL     1       3.154   2.312  17.654  0.00  0.00    +0.000 C 
ENDROOT
BRANCH   3   6
ATOM      6  N   UNL     1       2.487   5.210  19.772  0.00  0.00    +0.000 N 
ATOM      7  C   UNL     1       1.747   5.447  20.899  0.00  0.00    +0.000 A 
ATOM      8  N   UNL     1       1.340   6.692  20.963  0.00  0.00    +0.000 NA
ATOM      9  C   UNL     1       1.844   7.298  19.825  0.00  0.00    +0.000 A 
ATOM     10  C   UNL     1       1.711   8.589  19.295  0.00  0.00    +0.000 A 
ATOM     11  N   UNL     1       2.329   8.869  18.107  0.00  0.00    +0.000 NA
ATOM     12  C   UNL     1       3.041   7.892  17.513  0.00  0.00    +0.000 A 
ATOM     13  N   UNL     1       3.219   6.618  17.916  0.00  0.00    +0.000 NA
ATOM     14  C   UNL     1       2.586   6.389  19.082  0.00  0.00    +0.000 A 
BRANCH  10  15
ATOM     15  C   UNL     1       0.870   9.617  19.921  0.00  0.00    +0.000 A 
ATOM     16  C   UNL     1       0.861   9.824  21.312  0.00  0.00    +0.000 A 
ATOM     17  C   UNL     1      -0.002  10.745  21.912  0.00  0.00    +0.000 A 
ATOM     18  C   UNL     1      -0.869  11.496  21.124  0.00  0.00    +0.000 A 
ATOM     19  C   UNL     1      -0.862  11.333  19.742  0.00  0.00    +0.000 A 
ATOM     20  C   UNL     1       0.002  10.408  19.147  0.00  0.00    +0.000 A 
ENDBRANCH  10  15
ENDBRANCH   3   6
BRANCH   4  21
ATOM     21  O   UNL     1       1.019   2.493  18.826  0.00  0.00    +0.000 OA
ATOM     22  H   UNL     1       1.223   1.545  18.673  0.00  0.00    +0.000 HD
ENDBRANCH   4  21
BRANCH   5  23
ATOM     23  O   UNL     1       3.218   1.114  18.451  0.00  0.00    +0.000 OA
ATOM     24  H   UNL     1       4.151   0.850  18.559  0.00  0.00    +0.000 HD
ENDBRANCH   5  23
BRANCH   1  25
ATOM     25  C   UNL     1       4.672   3.971  16.466  0.00  0.00    +0.000 C 
BRANCH  25  26
ATOM     26  O   UNL     1       6.035   3.900  16.047  0.00  0.00    +0.000 OA
BRANCH  26  28
ATOM     27  O   UNL     1       7.650   6.686  16.657  0.00  0.00    +0.000 OA
ATOM     28  P   UNL     1       6.887   5.371  16.369  0.00  0.00    +0.000 P 
BRANCH  28  29
ATOM     29  O   UNL     1       7.523   5.254  14.867  0.00  0.00    +0.000 OA
ATOM     30  H   UNL     1       7.179   6.008  14.354  0.00  0.00    +0.000 HD
ENDBRANCH  28  29
BRANCH  28  31
ATOM     31  O   UNL     1       8.005   4.462  17.134  0.00  0.00    +0.000 OA
ATOM     32  H   UNL     1       8.615   4.112  16.459  0.00  0.00    +0.000 HD
ENDBRANCH  28  31
ENDBRANCH  26  28
ENDBRANCH  25  26
ENDBRANCH   1  25
TORSDOF 9
ENDMDL
MODEL 3
REMARK VINA RESULT:      -7.8      1.403      2.347
REMARK  Name = 
REMARK  9 active torsions:
REMARK  status: ('A' for Active; 'I' for Inactive)
REMARK    1  A    between atoms: P_2  and  O_3
REMARK    2  A    between atoms: P_2  and  O_4
REMARK    3  A    between atoms: P_2  and  O_5
REMARK    4  A    between atoms: O_5  and  C_6
REMARK    5  A    between atoms: C_6  and  C_7
REMARK    6  A    between atoms: C_9  and  N_10
REMARK    7  A    between atoms: C_14  and  C_15
REMARK    8  A    between atoms: C_25  and  O_26
REMARK    9  A    between atoms: C_27  and  O_28
REMARK                            x       y       z     vdW  Elec       q    Type
REMARK                         _______ _______ _______ _____ _____    ______ ____
ROOT
ATOM      1  C   UNL     1       4.858   3.406  18.365  0.00  0.00    +0.000 C 
ATOM      2  O   UNL     1       4.324   4.132  19.498  0.00  0.00    +0.000 OA
ATOM      3  C   UNL     1       2.889   4.159  19.391  0.00  0.00    +0.000 C 
ATOM      4  C   UNL     1       2.519   3.739  17.972  0.00  0.00    +0.000 C 
ATOM      5  C   UNL     1       3.654   2.779  17.651  0.00  0.00    +0.000 C 
ENDROOT
BRANCH   3   6
ATOM      6  N   UNL     1       2.393   5.458  19.787  0.00  0.00    +0.000 N 
ATOM      7  C   UNL     1       1.624   5.680  20.898  0.00  0.00    +0.000 A 
ATOM      8  N   UNL     1       1.198   6.920  20.958  0.00  0.00    +0.000 NA
ATOM      9  C   UNL     1       1.720   7.536  19.834  0.00  0.00    +0.000 A 
ATOM     10  C   UNL     1       1.583   8.828  19.306  0.00  0.00    +0.000 A 
ATOM     11  N   UNL     1       2.224   9.121  18.134  0.00  0.00    +0.000 NA
ATOM     12  C   UNL     1       2.962   8.156  17.552  0.00  0.00    +0.000 A 
ATOM     13  N   UNL     1       3.147   6.883  17.954  0.00  0.00    +0.000 NA
ATOM     14  C   UNL     1       2.492   6.641  19.104  0.00  0.00    +0.000 A 
BRANCH  10  15
ATOM     15  C   UNL     1       0.714   9.842  19.916  0.00  0.00    +0.000 A 
ATOM     16  C   UNL     1       0.796  10.167  21.283  0.00  0.00    +0.000 A 
ATOM     17  C   UNL     1      -0.088  11.070  21.878  0.00  0.00    +0.000 A 
ATOM     18  C   UNL     1      -1.071  11.686  21.108  0.00  0.00    +0.000 A 
ATOM     19  C   UNL     1      -1.157  11.407  19.748  0.00  0.00    +0.000 A 
ATOM     20  C   UNL     1      -0.272  10.499  19.158  0.00  0.00    +0.000 A 
ENDBRANCH  10  15
ENDBRANCH   3   6
BRANCH   4  21
ATOM     21  O   UNL     1       1.246   3.099  17.901  0.00  0.00    +0.000 OA
ATOM     22  H   UNL     1       1.389   2.262  17.410  0.00  0.00    +0.000 HD
ENDBRANCH   4  21
BRANCH   5  23
ATOM     23  O   UNL     1       3.299   1.495  18.197  0.00  0.00    +0.000 OA
ATOM     24  H   UNL     1       2.327   1.406  18.204  0.00  0.00    +0.000 HD
ENDBRANCH   5  23
BRANCH   1  25
ATOM     25  C   UNL     1       5.642   4.352  17.451  0.00  0.00    +0.000 C 
BRANCH  25  26
ATOM     26  O   UNL     1       5.544   3.939  16.088  0.00  0.00    +0.000 OA
BRANCH  26  28
ATOM     27  O   UNL     1       7.740   5.462  14.189  0.00  0.00    +0.000 OA
ATOM     28  P   UNL     1       6.702   4.742  15.085  0.00  0.00    +0.000 P 
BRANCH  28  29
ATOM     29  O   UNL     1       7.792   4.529  16.286  0.00  0.00    +0.000 OA
ATOM     30  H   UNL     1       8.225   3.669  16.126  0.00  0.00    +0.000 HD
ENDBRANCH  28  29
BRANCH  28  31
ATOM     31  O   UNL     1       6.077   6.148  15.626  0.00  0.00    +0.000 OA
ATOM     32  H   UNL     1       5.356   6.405  15.023  0.00  0.00    +0.000 HD
ENDBRANCH  28  31
ENDBRANCH  26  28
ENDBRANCH  25  26
ENDBRANCH   1  25
TORSDOF 9
ENDMDL
MODEL 4
REMARK VINA RESULT:      -7.7      0.856      1.101
REMARK  Name = 
REMARK  9 active torsions:
REMARK  status: ('A' for Active; 'I' for Inactive)
REMARK    1  A    between atoms: P_2  and  O_3
REMARK    2  A    between atoms: P_2  and  O_4
REMARK    3  A    between atoms: P_2  and  O_5
REMARK    4  A    between atoms: O_5  and  C_6
REMARK    5  A    between atoms: C_6  and  C_7
REMARK    6  A    between atoms: C_9  and  N_10
REMARK    7  A    between atoms: C_14  and  C_15
REMARK    8  A    between atoms: C_25  and  O_26
REMARK    9  A    between atoms: C_27  and  O_28
REMARK                            x       y       z     vdW  Elec       q    Type
REMARK                         _______ _______ _______ _____ _____    ______ ____
ROOT
ATOM      1  C   UNL     1       4.580   4.263  18.226  0.00  0.00    +0.000 C 
ATOM      2  O   UNL     1       4.432   5.615  18.723  0.00  0.00    +0.000 OA
ATOM      3  C   UNL     1       3.168   5.719  19.401  0.00  0.00    +0.000 C 
ATOM      4  C   UNL     1       2.335   4.497  19.026  0.00  0.00    +0.000 C 
ATOM      5  C   UNL     1       3.425   3.455  18.831  0.00  0.00    +0.000 C 
ENDROOT
BRANCH   3   6
ATOM      6  N   UNL     1       2.550   6.989  19.095  0.00  0.00    +0.000 N 
ATOM      7  C   UNL     1       2.751   7.680  17.930  0.00  0.00    +0.000 A 
ATOM      8  N   UNL     1       2.179   8.861  17.957  0.00  0.00    +0.000 NA
ATOM      9  C   UNL     1       1.571   8.940  19.198  0.00  0.00    +0.000 A 
ATOM     10  C   UNL     1       0.858   9.960  19.845  0.00  0.00    +0.000 A 
ATOM     11  N   UNL     1       0.399   9.725  21.113  0.00  0.00    +0.000 NA
ATOM     12  C   UNL     1       0.647   8.524  21.669  0.00  0.00    +0.000 A 
ATOM     13  N   UNL     1       1.335   7.485  21.153  0.00  0.00    +0.000 NA
ATOM     14  C   UNL     1       1.772   7.766  19.912  0.00  0.00    +0.000 A 
BRANCH  10  15
ATOM     15  C   UNL     1       0.663  11.287  19.251  0.00  0.00    +0.000 A 
ATOM     16  C   UNL     1       1.702  12.234  19.189  0.00  0.00    +0.000 A 
ATOM     17  C   UNL     1       1.492  13.525  18.699  0.00  0.00    +0.000 A 
ATOM     18  C   UNL     1       0.231  13.894  18.240  0.00  0.00    +0.000 A 
ATOM     19  C   UNL     1      -0.809  12.970  18.262  0.00  0.00    +0.000 A 
ATOM     20  C   UNL     1      -0.594  11.680  18.756  0.00  0.00    +0.000 A 
ENDBRANCH  10  15
ENDBRANCH   3   6
BRANCH   4  21
ATOM     21  O   UNL     1       1.417   4.119  20.051  0.00  0.00    +0.000 OA
ATOM     22  H   UNL     1       1.917   3.541  20.666  0.00  0.00    +0.000 HD
ENDBRANCH   4  21
BRANCH   5  23
ATOM     23  O   UNL     1       3.748   2.922  20.129  0.00  0.00    +0.000 OA
ATOM     24  H   UNL     1       4.204   3.606  20.653  0.00  0.00    +0.000 HD
ENDBRANCH   5  23
BRANCH   1  25
ATOM     25  C   UNL     1       4.549   4.255  16.695  0.00  0.00    +0.000 C 
BRANCH  25  26
ATOM     26  O   UNL     1       5.856   4.044  16.161  0.00  0.00    +0.000 OA
BRANCH  26  28
ATOM     27  O   UNL     1       7.777   6.672  16.551  0.00  0.00    +0.000 OA
ATOM     28  P   UNL     1       6.869   5.431  16.368  0.00  0.00    +0.000 P 
BRANCH  28  29
ATOM     29  O   UNL     1       7.345   5.232  14.816  0.00  0.00    +0.000 OA
ATOM     30  H   UNL     1       7.154   4.305  14.577  0.00  0.00    +0.000 HD
ENDBRANCH  28  29
BRANCH  28  31
ATOM     31  O   UNL     1       7.966   4.431  17.045  0.00  0.00    +0.000 OA
ATOM     32  H   UNL     1       7.858   3.552  16.637  0.00  0.00    +0.000 HD
ENDBRANCH  28  31
ENDBRANCH  26  28
ENDBRANCH  25  26
ENDBRANCH   1  25
TORSDOF 9
ENDMDL
MODEL 5
REMARK VINA RESULT:      -7.6      0.469      1.173
REMARK  Name = 
REMARK  9 active torsions:
REMARK  status: ('A' for Active; 'I' for Inactive)
REMARK    1  A    between atoms: P_2  and  O_3
REMARK    2  A    between atoms: P_2  and  O_4
REMARK    3  A    between atoms: P_2  and  O_5
REMARK    4  A    between atoms: O_5  and  C_6
REMARK    5  A    between atoms: C_6  and  C_7
REMARK    6  A    between atoms: C_9  and  N_10
REMARK    7  A    between atoms: C_14  and  C_15
REMARK    8  A    between atoms: C_25  and  O_26
REMARK    9  A    between atoms: C_27  and  O_28
REMARK                            x       y       z     vdW  Elec       q    Type
REMARK                         _______ _______ _______ _____ _____    ______ ____
ROOT
ATOM      1  C   UNL     1       5.235   4.441  17.570  0.00  0.00    +0.000 C 
ATOM      2  O   UNL     1       4.998   5.794  18.027  0.00  0.00    +0.000 OA
ATOM      3  C   UNL     1       3.903   5.779  18.960  0.00  0.00    +0.000 C 
ATOM      4  C   UNL     1       3.199   4.432  18.831  0.00  0.00    +0.000 C 
ATOM      5  C   UNL     1       4.365   3.533  18.448  0.00  0.00    +0.000 C 
ENDROOT
BRANCH   3   6
ATOM      6  N   UNL     1       3.055   6.928  18.741  0.00  0.00    +0.000 N 
ATOM      7  C   UNL     1       3.119   7.730  17.633  0.00  0.00    +0.000 A 
ATOM      8  N   UNL     1       2.334   8.776  17.740  0.00  0.00    +0.000 NA
ATOM      9  C   UNL     1       1.723   8.645  18.976  0.00  0.00    +0.000 A 
ATOM     10  C   UNL     1       0.830   9.459  19.687  0.00  0.00    +0.000 A 
ATOM     11  N   UNL     1       0.426   9.047  20.928  0.00  0.00    +0.000 NA
ATOM     12  C   UNL     1       0.899   7.876  21.397  0.00  0.00    +0.000 A 
ATOM     13  N   UNL     1       1.770   7.029  20.814  0.00  0.00    +0.000 NA
ATOM     14  C   UNL     1       2.145   7.480  19.603  0.00  0.00    +0.000 A 
BRANCH  10  15
ATOM     15  C   UNL     1       0.386  10.766  19.190  0.00  0.00    +0.000 A 
ATOM     16  C   UNL     1      -0.896  10.958  18.644  0.00  0.00    +0.000 A 
ATOM     17  C   UNL     1      -1.286  12.182  18.095  0.00  0.00    +0.000 A 
ATOM     18  C   UNL     1      -0.400  13.255  18.097  0.00  0.00    +0.000 A 
ATOM     19  C   UNL     1       0.865  13.104  18.657  0.00  0.00    +0.000 A 
ATOM     20  C   UNL     1       1.251  11.876  19.203  0.00  0.00    +0.000 A 
ENDBRANCH  10  15
ENDBRANCH   3   6
BRANCH   4  21
ATOM     21  O   UNL     1       2.583   4.012  20.048  0.00  0.00    +0.000 OA
ATOM     22  H   UNL     1       2.681   3.036  20.081  0.00  0.00    +0.000 HD
ENDBRANCH   4  21
BRANCH   5  23
ATOM     23  O   UNL     1       5.029   3.147  19.667  0.00  0.00    +0.000 OA
ATOM     24  H   UNL     1       4.666   2.295  19.973  0.00  0.00    +0.000 HD
ENDBRANCH   5  23
BRANCH   1  25
ATOM     25  C   UNL     1       4.884   4.315  16.085  0.00  0.00    +0.000 C 
BRANCH  25  26
ATOM     26  O   UNL     1       5.903   3.603  15.381  0.00  0.00    +0.000 OA
BRANCH  26  28
ATOM     27  O   UNL     1       7.954   5.630  13.821  0.00  0.00    +0.000 OA
ATOM     28  P   UNL     1       6.986   4.672  14.558  0.00  0.00    +0.000 P 
BRANCH  28  29
ATOM     29  O   UNL     1       5.839   5.830  14.691  0.00  0.00    +0.000 OA
ATOM     30  H   UNL     1       5.337   5.830  13.854  0.00  0.00    +0.000 HD
ENDBRANCH  28  29
BRANCH  28  31
ATOM     31  O   UNL     1       6.449   4.015  13.165  0.00  0.00    +0.000 OA
ATOM     32  H   UNL     1       6.620   3.056  13.204  0.00  0.00    +0.000 HD
ENDBRANCH  28  31
ENDBRANCH  26  28
ENDBRANCH  25  26
ENDBRANCH   1  25
TORSDOF 9
ENDMDL
MODEL 6
REMARK VINA RESULT:      -7.6      2.443      4.552
REMARK  Name = 
REMARK  9 active torsions:
REMARK  status: ('A' for Active; 'I' for Inactive)
REMARK    1  A    between atoms: P_2  and  O_3
REMARK    2  A    between atoms: P_2  and  O_4
REMARK    3  A    between atoms: P_2  and  O_5
REMARK    4  A    between atoms: O_5  and  C_6
REMARK    5  A    between atoms: C_6  and  C_7
REMARK    6  A    between atoms: C_9  and  N_10
REMARK    7  A    between atoms: C_14  and  C_15
REMARK    8  A    between atoms: C_25  and  O_26
REMARK    9  A    between atoms: C_27  and  O_28
REMARK                            x       y       z     vdW  Elec       q    Type
REMARK                         _______ _______ _______ _____ _____    ______ ____
ROOT
ATOM      1  C   UNL     1       3.513   3.587  17.700  0.00  0.00    +0.000 C 
ATOM      2  O   UNL     1       2.515   4.628  17.833  0.00  0.00    +0.000 OA
ATOM      3  C   UNL     1       3.178   5.905  17.815  0.00  0.00    +0.000 C 
ATOM      4  C   UNL     1       4.669   5.660  18.025  0.00  0.00    +0.000 C 
ATOM      5  C   UNL     1       4.832   4.297  17.369  0.00  0.00    +0.000 C 
ENDROOT
BRANCH   3   6
ATOM      6  N   UNL     1       2.567   6.788  18.782  0.00  0.00    +0.000 N 
ATOM      7  C   UNL     1       2.152   6.395  20.026  0.00  0.00    +0.000 A 
ATOM      8  N   UNL     1       1.515   7.355  20.655  0.00  0.00    +0.000 NA
ATOM      9  C   UNL     1       1.523   8.428  19.780  0.00  0.00    +0.000 A 
ATOM     10  C   UNL     1       0.962   9.712  19.842  0.00  0.00    +0.000 A 
ATOM     11  N   UNL     1       1.133  10.547  18.772  0.00  0.00    +0.000 NA
ATOM     12  C   UNL     1       1.840  10.096  17.718  0.00  0.00    +0.000 A 
ATOM     13  N   UNL     1       2.402   8.883  17.540  0.00  0.00    +0.000 NA
ATOM     14  C   UNL     1       2.201   8.097  18.613  0.00  0.00    +0.000 A 
BRANCH  10  15
ATOM     15  C   UNL     1       0.132  10.157  20.968  0.00  0.00    +0.000 A 
ATOM     16  C   UNL     1      -0.656  11.320  20.897  0.00  0.00    +0.000 A 
ATOM     17  C   UNL     1      -1.378  11.787  21.998  0.00  0.00    +0.000 A 
ATOM     18  C   UNL     1      -1.342  11.083  23.199  0.00  0.00    +0.000 A 
ATOM     19  C   UNL     1      -0.595   9.913  23.290  0.00  0.00    +0.000 A 
ATOM     20  C   UNL     1       0.129   9.452  22.186  0.00  0.00    +0.000 A 
ENDBRANCH  10  15
ENDBRANCH   3   6
BRANCH   4  21
ATOM     21  O   UNL     1       5.484   6.650  17.401  0.00  0.00    +0.000 OA
ATOM     22  H   UNL     1       6.408   6.329  17.474  0.00  0.00    +0.000 HD
ENDBRANCH   4  21
BRANCH   5  23
ATOM     23  O   UNL     1       4.998   4.517  15.955  0.00  0.00    +0.000 OA
ATOM     24  H   UNL     1       5.760   5.107  15.810  0.00  0.00    +0.000 HD
ENDBRANCH   5  23
BRANCH   1  25
ATOM     25  C   UNL     1       3.606   2.774  18.995  0.00  0.00    +0.000 C 
BRANCH  25  26
ATOM     26  O   UNL     1       2.382   2.084  19.250  0.00  0.00    +0.000 OA
BRANCH  26  28
ATOM     27  O   UNL     1       1.231   2.706  22.256  0.00  0.00    +0.000 OA
ATOM     28  P   UNL     1       1.775   2.412  20.837  0.00  0.00    +0.000 P 
BRANCH  28  29
ATOM     29  O   UNL     1       0.638   3.354  20.135  0.00  0.00    +0.000 OA
ATOM     30  H   UNL     1       0.728   4.245  20.523  0.00  0.00    +0.000 HD
ENDBRANCH  28  29
BRANCH  28  31
ATOM     31  O   UNL     1       2.935   3.551  20.959  0.00  0.00    +0.000 OA
ATOM     32  H   UNL     1       2.525   4.414  20.766  0.00  0.00    +0.000 HD
ENDBRANCH  28  31
ENDBRANCH  26  28
ENDBRANCH  25  26
ENDBRANCH   1  25
TORSDOF 9
ENDMDL
MODEL 7
REMARK VINA RESULT:      -7.6      1.444      2.338
REMARK  Name = 
REMARK  9 active torsions:
REMARK  status: ('A' for Active; 'I' for Inactive)
REMARK    1  A    between atoms: P_2  and  O_3
REMARK    2  A    between atoms: P_2  and  O_4
REMARK    3  A    between atoms: P_2  and  O_5
REMARK    4  A    between atoms: O_5  and  C_6
REMARK    5  A    between atoms: C_6  and  C_7
REMARK    6  A    between atoms: C_9  and  N_10
REMARK    7  A    between atoms: C_14  and  C_15
REMARK    8  A    between atoms: C_25  and  O_26
REMARK    9  A    between atoms: C_27  and  O_28
REMARK                            x       y       z     vdW  Elec       q    Type
REMARK                         _______ _______ _______ _____ _____    ______ ____
ROOT
ATOM      1  C   UNL     1       4.920   3.972  18.635  0.00  0.00    +0.000 C 
ATOM      2  O   UNL     1       4.393   4.787  19.709  0.00  0.00    +0.000 OA
ATOM      3  C   UNL     1       2.957   4.707  19.685  0.00  0.00    +0.000 C 
ATOM      4  C   UNL     1       2.546   4.103  18.346  0.00  0.00    +0.000 C 
ATOM      5  C   UNL     1       3.730   3.189  18.067  0.00  0.00    +0.000 C 
ENDROOT
BRANCH   3   6
ATOM      6  N   UNL     1       2.388   6.006  19.962  0.00  0.00    +0.000 N 
ATOM      7  C   UNL     1       1.610   6.287  21.053  0.00  0.00    +0.000 A 
ATOM      8  N   UNL     1       1.115   7.501  21.001  0.00  0.00    +0.000 NA
ATOM      9  C   UNL     1       1.600   8.039  19.822  0.00  0.00    +0.000 A 
ATOM     10  C   UNL     1       1.390   9.268  19.178  0.00  0.00    +0.000 A 
ATOM     11  N   UNL     1       2.012   9.486  17.980  0.00  0.00    +0.000 NA
ATOM     12  C   UNL     1       2.803   8.514  17.484  0.00  0.00    +0.000 A 
ATOM     13  N   UNL     1       3.060   7.296  18.002  0.00  0.00    +0.000 NA
ATOM     14  C   UNL     1       2.420   7.125  19.173  0.00  0.00    +0.000 A 
BRANCH  10  15
ATOM     15  C   UNL     1       0.466  10.283  19.697  0.00  0.00    +0.000 A 
ATOM     16  C   UNL     1      -0.786  10.523  19.102  0.00  0.00    +0.000 A 
ATOM     17  C   UNL     1      -1.627  11.546  19.546  0.00  0.00    +0.000 A 
ATOM     18  C   UNL     1      -1.238  12.346  20.617  0.00  0.00    +0.000 A 
ATOM     19  C   UNL     1      -0.018  12.114  21.244  0.00  0.00    +0.000 A 
ATOM     20  C   UNL     1       0.822  11.090  20.794  0.00  0.00    +0.000 A 
ENDBRANCH  10  15
ENDBRANCH   3   6
BRANCH   4  21
ATOM     21  O   UNL     1       1.320   3.376  18.421  0.00  0.00    +0.000 OA
ATOM     22  H   UNL     1       1.434   2.725  19.146  0.00  0.00    +0.000 HD
ENDBRANCH   4  21
BRANCH   5  23
ATOM     23  O   UNL     1       3.496   1.955  18.773  0.00  0.00    +0.000 OA
ATOM     24  H   UNL     1       3.126   2.154  19.653  0.00  0.00    +0.000 HD
ENDBRANCH   5  23
BRANCH   1  25
ATOM     25  C   UNL     1       5.585   4.857  17.576  0.00  0.00    +0.000 C 
BRANCH  25  26
ATOM     26  O   UNL     1       5.462   4.276  16.278  0.00  0.00    +0.000 OA
BRANCH  26  28
ATOM     27  O   UNL     1       7.703   5.450  14.194  0.00  0.00    +0.000 OA
ATOM     28  P   UNL     1       6.645   4.897  15.178  0.00  0.00    +0.000 P 
BRANCH  28  29
ATOM     29  O   UNL     1       6.485   3.509  14.328  0.00  0.00    +0.000 OA
ATOM     30  H   UNL     1       7.375   3.117  14.253  0.00  0.00    +0.000 HD
ENDBRANCH  28  29
BRANCH  28  31
ATOM     31  O   UNL     1       7.779   4.364  16.222  0.00  0.00    +0.000 OA
ATOM     32  H   UNL     1       8.367   3.756  15.737  0.00  0.00    +0.000 HD
ENDBRANCH  28  31
ENDBRANCH  26  28
ENDBRANCH  25  26
ENDBRANCH   1  25
TORSDOF 9
ENDMDL
MODEL 8
REMARK VINA RESULT:      -7.6      5.310      8.156
REMARK  Name = 
REMARK  9 active torsions:
REMARK  status: ('A' for Active; 'I' for Inactive)
REMARK    1  A    between atoms: P_2  and  O_3
REMARK    2  A    between atoms: P_2  and  O_4
REMARK    3  A    between atoms: P_2  and  O_5
REMARK    4  A    between atoms: O_5  and  C_6
REMARK    5  A    between atoms: C_6  and  C_7
REMARK    6  A    between atoms: C_9  and  N_10
REMARK    7  A    between atoms: C_14  and  C_15
REMARK    8  A    between atoms: C_25  and  O_26
REMARK    9  A    between atoms: C_27  and  O_28
REMARK                            x       y       z     vdW  Elec       q    Type
REMARK                         _______ _______ _______ _____ _____    ______ ____
ROOT
ATOM      1  C   UNL     1      -1.666  11.329  19.261  0.00  0.00    +0.000 C 
ATOM      2  O   UNL     1      -1.040  10.024  19.267  0.00  0.00    +0.000 OA
ATOM      3  C   UNL     1       0.226  10.125  19.942  0.00  0.00    +0.000 C 
ATOM      4  C   UNL     1       0.574  11.605  20.063  0.00  0.00    +0.000 C 
ATOM      5  C   UNL     1      -0.814  12.218  20.176  0.00  0.00    +0.000 C 
ENDROOT
BRANCH   3   6
ATOM      6  N   UNL     1       1.214   9.326  19.253  0.00  0.00    +0.000 N 
ATOM      7  C   UNL     1       1.729   9.636  18.023  0.00  0.00    +0.000 A 
ATOM      8  N   UNL     1       2.508   8.683  17.565  0.00  0.00    +0.000 NA
ATOM      9  C   UNL     1       2.504   7.709  18.549  0.00  0.00    +0.000 A 
ATOM     10  C   UNL     1       3.089   6.437  18.631  0.00  0.00    +0.000 A 
ATOM     11  N   UNL     1       2.866   5.693  19.757  0.00  0.00    +0.000 NA
ATOM     12  C   UNL     1       2.103   6.224  20.732  0.00  0.00    +0.000 A 
ATOM     13  N   UNL     1       1.477   7.418  20.752  0.00  0.00    +0.000 NA
ATOM     14  C   UNL     1       1.719   8.108  19.623  0.00  0.00    +0.000 A 
BRANCH  10  15
ATOM     15  C   UNL     1       3.855   5.847  17.527  0.00  0.00    +0.000 A 
ATOM     16  C   UNL     1       3.852   4.463  17.276  0.00  0.00    +0.000 A 
ATOM     17  C   UNL     1       4.647   3.895  16.278  0.00  0.00    +0.000 A 
ATOM     18  C   UNL     1       5.455   4.709  15.489  0.00  0.00    +0.000 A 
ATOM     19  C   UNL     1       5.456   6.085  15.694  0.00  0.00    +0.000 A 
ATOM     20  C   UNL     1       4.661   6.648  16.697  0.00  0.00    +0.000 A 
ENDBRANCH  10  15
ENDBRANCH   3   6
BRANCH   4  21
ATOM     21  O   UNL     1       1.375  11.891  21.209  0.00  0.00    +0.000 OA
ATOM     22  H   UNL     1       2.256  12.154  20.867  0.00  0.00    +0.000 HD
ENDBRANCH   4  21
BRANCH   5  23
ATOM     23  O   UNL     1      -1.214  12.128  21.557  0.00  0.00    +0.000 OA
ATOM     24  H   UNL     1      -0.878  12.906  22.040  0.00  0.00    +0.000 HD
ENDBRANCH   5  23
BRANCH   1  25
ATOM     25  C   UNL     1      -1.738  11.875  17.832  0.00  0.00    +0.000 C 
BRANCH  25  26
ATOM     26  O   UNL     1      -3.034  11.663  17.271  0.00  0.00    +0.000 OA
BRANCH  26  28
ATOM     27  O   UNL     1      -2.881  10.096  14.396  0.00  0.00    +0.000 OA
ATOM     28  P   UNL     1      -2.953  10.836  15.754  0.00  0.00    +0.000 P 
BRANCH  28  29
ATOM     29  O   UNL     1      -4.573  10.635  15.852  0.00  0.00    +0.000 OA
ATOM     30  H   UNL     1      -4.814   9.951  15.198  0.00  0.00    +0.000 HD
ENDBRANCH  28  29
BRANCH  28  31
ATOM     31  O   UNL     1      -2.532   9.502  16.593  0.00  0.00    +0.000 OA
ATOM     32  H   UNL     1      -1.691   9.174  16.225  0.00  0.00    +0.000 HD
ENDBRANCH  28  31
ENDBRANCH  26  28
ENDBRANCH  25  26
ENDBRANCH   1  25
TORSDOF 9
ENDMDL
MODEL 9
REMARK VINA RESULT:      -7.5      1.882      2.596
REMARK  Name = 
REMARK  9 active torsions:
REMARK  status: ('A' for Active; 'I' for Inactive)
REMARK    1  A    between atoms: P_2  and  O_3
REMARK    2  A    between atoms: P_2  and  O_4
REMARK    3  A    between atoms: P_2  and  O_5
REMARK    4  A    between atoms: O_5  and  C_6
REMARK    5  A    between atoms: C_6  and  C_7
REMARK    6  A    between atoms: C_9  and  N_10
REMARK    7  A    between atoms: C_14  and  C_15
REMARK    8  A    between atoms: C_25  and  O_26
REMARK    9  A    between atoms: C_27  and  O_28
REMARK                            x       y       z     vdW  Elec       q    Type
REMARK                         _______ _______ _______ _____ _____    ______ ____
ROOT
ATOM      1  C   UNL     1       4.520   5.336  17.586  0.00  0.00    +0.000 C 
ATOM      2  O   UNL     1       4.220   5.954  18.861  0.00  0.00    +0.000 OA
ATOM      3  C   UNL     1       2.869   5.620  19.226  0.00  0.00    +0.000 C 
ATOM      4  C   UNL     1       2.175   5.063  17.987  0.00  0.00    +0.000 C 
ATOM      5  C   UNL     1       3.345   4.402  17.275  0.00  0.00    +0.000 C 
ENDROOT
BRANCH   3   6
ATOM      6  N   UNL     1       2.222   6.770  19.816  0.00  0.00    +0.000 N 
ATOM      7  C   UNL     1       1.595   6.758  21.033  0.00  0.00    +0.000 A 
ATOM      8  N   UNL     1       0.979   7.891  21.277  0.00  0.00    +0.000 NA
ATOM      9  C   UNL     1       1.223   8.681  20.167  0.00  0.00    +0.000 A 
ATOM     10  C   UNL     1       0.795   9.966  19.800  0.00  0.00    +0.000 A 
ATOM     11  N   UNL     1       1.203  10.465  18.594  0.00  0.00    +0.000 NA
ATOM     12  C   UNL     1       2.002   9.700  17.824  0.00  0.00    +0.000 A 
ATOM     13  N   UNL     1       2.455   8.453  18.063  0.00  0.00    +0.000 NA
ATOM     14  C   UNL     1       2.021   8.003  19.255  0.00  0.00    +0.000 A 
BRANCH  10  15
ATOM     15  C   UNL     1      -0.136  10.751  20.619  0.00  0.00    +0.000 A 
ATOM     16  C   UNL     1      -0.062  10.764  22.024  0.00  0.00    +0.000 A 
ATOM     17  C   UNL     1      -1.001  11.445  22.803  0.00  0.00    +0.000 A 
ATOM     18  C   UNL     1      -2.031  12.149  22.187  0.00  0.00    +0.000 A 
ATOM     19  C   UNL     1      -2.113  12.179  20.799  0.00  0.00    +0.000 A 
ATOM     20  C   UNL     1      -1.172  11.493  20.023  0.00  0.00    +0.000 A 
ENDBRANCH  10  15
ENDBRANCH   3   6
BRANCH   4  21
ATOM     21  O   UNL     1       1.148   4.125  18.305  0.00  0.00    +0.000 OA
ATOM     22  H   UNL     1       0.474   4.621  18.818  0.00  0.00    +0.000 HD
ENDBRANCH   4  21
BRANCH   5  23
ATOM     23  O   UNL     1       3.516   3.093  17.852  0.00  0.00    +0.000 OA
ATOM     24  H   UNL     1       3.202   3.106  18.775  0.00  0.00    +0.000 HD
ENDBRANCH   5  23
BRANCH   1  25
ATOM     25  C   UNL     1       4.705   6.409  16.508  0.00  0.00    +0.000 C 
BRANCH  25  26
ATOM     26  O   UNL     1       5.660   5.990  15.533  0.00  0.00    +0.000 OA
BRANCH  26  28
ATOM     27  O   UNL     1       8.109   4.276  16.879  0.00  0.00    +0.000 OA
ATOM     28  P   UNL     1       6.952   5.085  16.243  0.00  0.00    +0.000 P 
BRANCH  28  29
ATOM     29  O   UNL     1       7.688   6.510  16.561  0.00  0.00    +0.000 OA
ATOM     30  H   UNL     1       7.424   6.771  17.464  0.00  0.00    +0.000 HD
ENDBRANCH  28  29
BRANCH  28  31
ATOM     31  O   UNL     1       7.537   4.887  14.734  0.00  0.00    +0.000 OA
ATOM     32  H   UNL     1       7.741   3.941  14.616  0.00  0.00    +0.000 HD
ENDBRANCH  28  31
ENDBRANCH  26  28
ENDBRANCH  25  26
ENDBRANCH   1  25
TORSDOF 9
ENDMDL
