MODEL 1
REMARK VINA RESULT:      -8.9      0.000      0.000
REMARK  Name = 
REMARK  3 active torsions:
REMARK  status: ('A' for Active; 'I' for Inactive)
REMARK    1  A    between atoms: C_1  and  C_2
REMARK    2  A    between atoms: C_5  and  C_6
REMARK    3  A    between atoms: C_12  and  C_13
REMARK                            x       y       z     vdW  Elec       q    Type
REMARK                         _______ _______ _______ _____ _____    ______ ____
ROOT
ATOM      1  C   UNL     1       5.599   4.308  16.054  0.00  0.00    +0.000 C 
ATOM      2  O   UNL     1       4.810   3.395  16.315  0.00  0.00    +0.000 OA
ATOM      3  N   UNL     1       6.030   5.159  17.068  0.00  0.00    +0.000 N 
ATOM      4  C   UNL     1       7.092   6.150  17.006  0.00  0.00    +0.000 C 
ATOM      5  C   UNL     1       7.836   5.984  18.320  0.00  0.00    +0.000 C 
ATOM      6  C   UNL     1       6.746   5.587  19.305  0.00  0.00    +0.000 C 
ATOM      7  C   UNL     1       5.720   4.822  18.454  0.00  0.00    +0.000 C 
ENDROOT
BRANCH   7   8
ATOM      8  C   UNL     1       4.315   5.197  18.822  0.00  0.00    +0.000 A 
ATOM      9  N   UNL     1       3.767   6.385  18.652  0.00  0.00    +0.000 NA
ATOM     10  N   UNL     1       2.523   6.371  19.219  0.00  0.00    +0.000 NA
ATOM     11  C   UNL     1       2.305   5.172  19.720  0.00  0.00    +0.000 A 
ATOM     12  N   UNL     1       3.405   4.385  19.465  0.00  0.00    +0.000 N 
ATOM     13  C   UNL     1       3.572   2.993  19.832  0.00  0.00    +0.000 C 
ATOM     14  C   UNL     1       3.117   2.688  21.253  0.00  0.00    +0.000 C 
ATOM     15  C   UNL     1       1.615   2.448  21.377  0.00  0.00    +0.000 C 
ATOM     16  C   UNL     1       0.734   3.307  20.467  0.00  0.00    +0.000 C 
ATOM     17  C   UNL     1       1.084   4.789  20.493  0.00  0.00    +0.000 C 
ENDBRANCH   7   8
BRANCH   1  22
ATOM     18  C   UNL     1       8.675   5.955  12.651  0.00  0.00    +0.000 C 
ATOM     19  C   UNL     1       7.576   5.108  13.160  0.00  0.00    +0.000 A 
ATOM     20  C   UNL     1       6.819   4.109  12.592  0.00  0.00    +0.000 A 
ATOM     21  C   UNL     1       5.910   3.690  13.590  0.00  0.00    +0.000 A 
ATOM     22  C   UNL     1       6.197   4.416  14.733  0.00  0.00    +0.000 A 
ATOM     23  O   UNL     1       7.197   5.312  14.453  0.00  0.00    +0.000 OA
ENDBRANCH   1  22
TORSDOF 2
ENDMDL
MODEL 2
REMARK VINA RESULT:      -8.6      0.668      1.132
REMARK  Name = 
REMARK  3 active torsions:
REMARK  status: ('A' for Active; 'I' for Inactive)
REMARK    1  A    between atoms: C_1  and  C_2
REMARK    2  A    between atoms: C_5  and  C_6
REMARK    3  A    between atoms: C_12  and  C_13
REMARK                            x       y       z     vdW  Elec       q    Type
REMARK                         _______ _______ _______ _____ _____    ______ ____
ROOT
ATOM      1  C   UNL     1       5.662   4.243  16.226  0.00  0.00    +0.000 C 
ATOM      2  O   UNL     1       4.859   3.348  16.506  0.00  0.00    +0.000 OA
ATOM      3  N   UNL     1       6.097   5.116  17.220  0.00  0.00    +0.000 N 
ATOM      4  C   UNL     1       7.172   6.091  17.139  0.00  0.00    +0.000 C 
ATOM      5  C   UNL     1       7.902   5.951  18.464  0.00  0.00    +0.000 C 
ATOM      6  C   UNL     1       6.800   5.596  19.450  0.00  0.00    +0.000 C 
ATOM      7  C   UNL     1       5.771   4.822  18.612  0.00  0.00    +0.000 C 
ENDROOT
BRANCH   7   8
ATOM      8  C   UNL     1       4.368   5.224  18.958  0.00  0.00    +0.000 A 
ATOM      9  N   UNL     1       3.856   6.432  18.809  0.00  0.00    +0.000 NA
ATOM     10  N   UNL     1       2.600   6.436  19.346  0.00  0.00    +0.000 NA
ATOM     11  C   UNL     1       2.337   5.231  19.808  0.00  0.00    +0.000 A 
ATOM     12  N   UNL     1       3.422   4.421  19.557  0.00  0.00    +0.000 N 
ATOM     13  C   UNL     1       3.542   3.015  19.889  0.00  0.00    +0.000 C 
ATOM     14  C   UNL     1       3.045   2.684  21.290  0.00  0.00    +0.000 C 
ATOM     15  C   UNL     1       1.535   2.483  21.372  0.00  0.00    +0.000 C 
ATOM     16  C   UNL     1       0.700   3.390  20.467  0.00  0.00    +0.000 C 
ATOM     17  C   UNL     1       1.089   4.860  20.542  0.00  0.00    +0.000 C 
ENDBRANCH   7   8
BRANCH   1  22
ATOM     18  C   UNL     1       6.452   2.960  11.591  0.00  0.00    +0.000 C 
ATOM     19  C   UNL     1       6.654   3.783  12.801  0.00  0.00    +0.000 A 
ATOM     20  C   UNL     1       7.410   4.904  13.060  0.00  0.00    +0.000 A 
ATOM     21  C   UNL     1       7.193   5.217  14.422  0.00  0.00    +0.000 A 
ATOM     22  C   UNL     1       6.272   4.306  14.908  0.00  0.00    +0.000 A 
ATOM     23  O   UNL     1       5.972   3.404  13.919  0.00  0.00    +0.000 OA
ENDBRANCH   1  22
TORSDOF 2
ENDMDL
MODEL 3
REMARK VINA RESULT:      -7.6      1.700      2.632
REMARK  Name = 
REMARK  3 active torsions:
REMARK  status: ('A' for Active; 'I' for Inactive)
REMARK    1  A    between atoms: C_1  and  C_2
REMARK    2  A    between atoms: C_5  and  C_6
REMARK    3  A    between atoms: C_12  and  C_13
REMARK                            x       y       z     vdW  Elec       q    Type
REMARK                         _______ _______ _______ _____ _____    ______ ____
ROOT
ATOM      1  C   UNL     1       6.675   4.614  15.831  0.00  0.00    +0.000 C 
ATOM      2  O   UNL     1       7.498   4.177  16.640  0.00  0.00    +0.000 OA
ATOM      3  N   UNL     1       5.618   5.402  16.279  0.00  0.00    +0.000 N 
ATOM      4  C   UNL     1       4.674   6.163  15.476  0.00  0.00    +0.000 C 
ATOM      5  C   UNL     1       4.542   7.486  16.212  0.00  0.00    +0.000 C 
ATOM      6  C   UNL     1       4.696   7.103  17.676  0.00  0.00    +0.000 C 
ATOM      7  C   UNL     1       5.627   5.881  17.657  0.00  0.00    +0.000 C 
ENDROOT
BRANCH   7   8
ATOM      8  C   UNL     1       5.169   4.828  18.622  0.00  0.00    +0.000 A 
ATOM      9  N   UNL     1       5.954   4.102  19.396  0.00  0.00    +0.000 NA
ATOM     10  N   UNL     1       5.184   3.174  20.039  0.00  0.00    +0.000 NA
ATOM     11  C   UNL     1       3.930   3.341  19.671  0.00  0.00    +0.000 A 
ATOM     12  N   UNL     1       3.871   4.401  18.793  0.00  0.00    +0.000 N 
ATOM     13  C   UNL     1       2.678   4.929  18.162  0.00  0.00    +0.000 C 
ATOM     14  C   UNL     1       1.752   3.845  17.626  0.00  0.00    +0.000 C 
ATOM     15  C   UNL     1       0.823   3.257  18.683  0.00  0.00    +0.000 C 
ATOM     16  C   UNL     1       1.424   3.115  20.083  0.00  0.00    +0.000 C 
ATOM     17  C   UNL     1       2.799   2.462  20.098  0.00  0.00    +0.000 C 
ENDBRANCH   7   8
BRANCH   1  22
ATOM     18  C   UNL     1       6.014   2.638  11.425  0.00  0.00    +0.000 C 
ATOM     19  C   UNL     1       6.601   3.597  12.383  0.00  0.00    +0.000 A 
ATOM     20  C   UNL     1       7.452   4.668  12.238  0.00  0.00    +0.000 A 
ATOM     21  C   UNL     1       7.658   5.185  13.538  0.00  0.00    +0.000 A 
ATOM     22  C   UNL     1       6.875   4.438  14.402  0.00  0.00    +0.000 A 
ATOM     23  O   UNL     1       6.256   3.440  13.693  0.00  0.00    +0.000 OA
ENDBRANCH   1  22
TORSDOF 2
ENDMDL
MODEL 4
REMARK VINA RESULT:      -7.6      1.577      1.843
REMARK  Name = 
REMARK  3 active torsions:
REMARK  status: ('A' for Active; 'I' for Inactive)
REMARK    1  A    between atoms: C_1  and  C_2
REMARK    2  A    between atoms: C_5  and  C_6
REMARK    3  A    between atoms: C_12  and  C_13
REMARK                            x       y       z     vdW  Elec       q    Type
REMARK                         _______ _______ _______ _____ _____    ______ ____
ROOT
ATOM      1  C   UNL     1       5.699   4.025  15.354  0.00  0.00    +0.000 C 
ATOM      2  O   UNL     1       5.779   2.918  15.896  0.00  0.00    +0.000 OA
ATOM      3  N   UNL     1       5.101   5.084  16.031  0.00  0.00    +0.000 N 
ATOM      4  C   UNL     1       5.089   6.487  15.652  0.00  0.00    +0.000 C 
ATOM      5  C   UNL     1       5.344   7.227  16.955  0.00  0.00    +0.000 C 
ATOM      6  C   UNL     1       4.670   6.355  18.004  0.00  0.00    +0.000 C 
ATOM      7  C   UNL     1       4.780   4.928  17.446  0.00  0.00    +0.000 C 
ENDROOT
BRANCH   7   8
ATOM      8  C   UNL     1       3.510   4.158  17.654  0.00  0.00    +0.000 A 
ATOM      9  N   UNL     1       2.662   3.805  16.706  0.00  0.00    +0.000 NA
ATOM     10  N   UNL     1       1.573   3.229  17.296  0.00  0.00    +0.000 NA
ATOM     11  C   UNL     1       1.760   3.215  18.600  0.00  0.00    +0.000 A 
ATOM     12  N   UNL     1       2.991   3.770  18.870  0.00  0.00    +0.000 N 
ATOM     13  C   UNL     1       3.594   3.933  20.178  0.00  0.00    +0.000 C 
ATOM     14  C   UNL     1       2.622   4.458  21.226  0.00  0.00    +0.000 C 
ATOM     15  C   UNL     1       1.758   3.371  21.858  0.00  0.00    +0.000 C 
ATOM     16  C   UNL     1       1.323   2.246  20.918  0.00  0.00    +0.000 C 
ATOM     17  C   UNL     1       0.751   2.737  19.594  0.00  0.00    +0.000 C 
ENDBRANCH   7   8
BRANCH   1  22
ATOM     18  C   UNL     1       8.804   6.141  12.250  0.00  0.00    +0.000 C 
ATOM     19  C   UNL     1       7.751   5.181  12.637  0.00  0.00    +0.000 A 
ATOM     20  C   UNL     1       7.103   4.173  11.960  0.00  0.00    +0.000 A 
ATOM     21  C   UNL     1       6.180   3.616  12.874  0.00  0.00    +0.000 A 
ATOM     22  C   UNL     1       6.353   4.273  14.079  0.00  0.00    +0.000 A 
ATOM     23  O   UNL     1       7.293   5.260  13.918  0.00  0.00    +0.000 OA
ENDBRANCH   1  22
TORSDOF 2
ENDMDL
MODEL 5
REMARK VINA RESULT:      -7.5      1.538      2.314
REMARK  Name = 
REMARK  3 active torsions:
REMARK  status: ('A' for Active; 'I' for Inactive)
REMARK    1  A    between atoms: C_1  and  C_2
REMARK    2  A    between atoms: C_5  and  C_6
REMARK    3  A    between atoms: C_12  and  C_13
REMARK                            x       y       z     vdW  Elec       q    Type
REMARK                         _______ _______ _______ _____ _____    ______ ____
ROOT
ATOM      1  C   UNL     1       6.561   4.662  16.179  0.00  0.00    +0.000 C 
ATOM      2  O   UNL     1       7.340   4.109  16.961  0.00  0.00    +0.000 OA
ATOM      3  N   UNL     1       5.496   5.407  16.678  0.00  0.00    +0.000 N 
ATOM      4  C   UNL     1       4.601   6.283  15.939  0.00  0.00    +0.000 C 
ATOM      5  C   UNL     1       4.453   7.503  16.833  0.00  0.00    +0.000 C 
ATOM      6  C   UNL     1       4.533   6.932  18.241  0.00  0.00    +0.000 C 
ATOM      7  C   UNL     1       5.448   5.705  18.106  0.00  0.00    +0.000 C 
ENDROOT
BRANCH   7   8
ATOM      8  C   UNL     1       4.931   4.546  18.905  0.00  0.00    +0.000 A 
ATOM      9  N   UNL     1       5.672   3.679  19.569  0.00  0.00    +0.000 NA
ATOM     10  N   UNL     1       4.853   2.705  20.066  0.00  0.00    +0.000 NA
ATOM     11  C   UNL     1       3.613   2.983  19.721  0.00  0.00    +0.000 A 
ATOM     12  N   UNL     1       3.612   4.160  19.007  0.00  0.00    +0.000 N 
ATOM     13  C   UNL     1       2.452   4.830  18.453  0.00  0.00    +0.000 C 
ATOM     14  C   UNL     1       1.483   3.880  17.761  0.00  0.00    +0.000 C 
ATOM     15  C   UNL     1       0.516   3.189  18.717  0.00  0.00    +0.000 C 
ATOM     16  C   UNL     1       1.093   2.818  20.084  0.00  0.00    +0.000 C 
ATOM     17  C   UNL     1       2.437   2.105  20.011  0.00  0.00    +0.000 C 
ENDBRANCH   7   8
BRANCH   1  22
ATOM     18  C   UNL     1       8.608   6.136  12.010  0.00  0.00    +0.000 C 
ATOM     19  C   UNL     1       7.737   5.278  12.838  0.00  0.00    +0.000 A 
ATOM     20  C   UNL     1       6.961   4.177  12.557  0.00  0.00    +0.000 A 
ATOM     21  C   UNL     1       6.348   3.808  13.776  0.00  0.00    +0.000 A 
ATOM     22  C   UNL     1       6.826   4.667  14.750  0.00  0.00    +0.000 A 
ATOM     23  O   UNL     1       7.650   5.593  14.162  0.00  0.00    +0.000 OA
ENDBRANCH   1  22
TORSDOF 2
ENDMDL
MODEL 6
REMARK VINA RESULT:      -7.1      6.617      9.286
REMARK  Name = 
REMARK  3 active torsions:
REMARK  status: ('A' for Active; 'I' for Inactive)
REMARK    1  A    between atoms: C_1  and  C_2
REMARK    2  A    between atoms: C_5  and  C_6
REMARK    3  A    between atoms: C_12  and  C_13
REMARK                            x       y       z     vdW  Elec       q    Type
REMARK                         _______ _______ _______ _____ _____    ______ ____
ROOT
ATOM      1  C   UNL     1      -1.574  10.321  17.833  0.00  0.00    +0.000 C 
ATOM      2  O   UNL     1      -0.998   9.427  17.205  0.00  0.00    +0.000 OA
ATOM      3  N   UNL     1      -0.886  11.028  18.815  0.00  0.00    +0.000 N 
ATOM      4  C   UNL     1      -1.317  12.228  19.513  0.00  0.00    +0.000 C 
ATOM      5  C   UNL     1      -0.075  13.102  19.553  0.00  0.00    +0.000 C 
ATOM      6  C   UNL     1       1.067  12.104  19.666  0.00  0.00    +0.000 C 
ATOM      7  C   UNL     1       0.559  10.854  18.931  0.00  0.00    +0.000 C 
ENDROOT
BRANCH   7   8
ATOM      8  C   UNL     1       0.917   9.600  19.671  0.00  0.00    +0.000 A 
ATOM      9  N   UNL     1       0.715   9.383  20.957  0.00  0.00    +0.000 NA
ATOM     10  N   UNL     1       1.281   8.183  21.285  0.00  0.00    +0.000 NA
ATOM     11  C   UNL     1       1.813   7.660  20.199  0.00  0.00    +0.000 A 
ATOM     12  N   UNL     1       1.580   8.513  19.144  0.00  0.00    +0.000 N 
ATOM     13  C   UNL     1       1.984   8.310  17.767  0.00  0.00    +0.000 C 
ATOM     14  C   UNL     1       3.413   7.800  17.629  0.00  0.00    +0.000 C 
ATOM     15  C   UNL     1       3.542   6.289  17.796  0.00  0.00    +0.000 C 
ATOM     16  C   UNL     1       2.610   5.659  18.832  0.00  0.00    +0.000 C 
ATOM     17  C   UNL     1       2.597   6.387  20.171  0.00  0.00    +0.000 C 
ENDBRANCH   7   8
BRANCH   1  22
ATOM     18  C   UNL     1      -6.372  10.990  18.369  0.00  0.00    +0.000 C 
ATOM     19  C   UNL     1      -5.081  11.090  17.656  0.00  0.00    +0.000 A 
ATOM     20  C   UNL     1      -4.708  11.669  16.465  0.00  0.00    +0.000 A 
ATOM     21  C   UNL     1      -3.325  11.414  16.321  0.00  0.00    +0.000 A 
ATOM     22  C   UNL     1      -2.914  10.743  17.459  0.00  0.00    +0.000 A 
ATOM     23  O   UNL     1      -4.004  10.513  18.260  0.00  0.00    +0.000 OA
ENDBRANCH   1  22
TORSDOF 2
ENDMDL
MODEL 7
REMARK VINA RESULT:      -7.0      3.081      7.212
REMARK  Name = 
REMARK  3 active torsions:
REMARK  status: ('A' for Active; 'I' for Inactive)
REMARK    1  A    between atoms: C_1  and  C_2
REMARK    2  A    between atoms: C_5  and  C_6
REMARK    3  A    between atoms: C_12  and  C_13
REMARK                            x       y       z     vdW  Elec       q    Type
REMARK                         _______ _______ _______ _____ _____    ______ ____
ROOT
ATOM      1  C   UNL     1       2.561   6.917  19.648  0.00  0.00    +0.000 C 
ATOM      2  O   UNL     1       3.614   7.270  19.109  0.00  0.00    +0.000 OA
ATOM      3  N   UNL     1       2.327   5.565  19.886  0.00  0.00    +0.000 N 
ATOM      4  C   UNL     1       1.259   4.973  20.675  0.00  0.00    +0.000 C 
ATOM      5  C   UNL     1       1.947   3.875  21.469  0.00  0.00    +0.000 C 
ATOM      6  C   UNL     1       3.038   3.380  20.532  0.00  0.00    +0.000 C 
ATOM      7  C   UNL     1       3.419   4.614  19.700  0.00  0.00    +0.000 C 
ENDROOT
BRANCH   7   8
ATOM      8  C   UNL     1       3.618   4.262  18.256  0.00  0.00    +0.000 A 
ATOM      9  N   UNL     1       2.776   3.569  17.512  0.00  0.00    +0.000 NA
ATOM     10  N   UNL     1       3.358   3.350  16.294  0.00  0.00    +0.000 NA
ATOM     11  C   UNL     1       4.545   3.921  16.288  0.00  0.00    +0.000 A 
ATOM     12  N   UNL     1       4.739   4.538  17.504  0.00  0.00    +0.000 N 
ATOM     13  C   UNL     1       5.907   5.294  17.909  0.00  0.00    +0.000 C 
ATOM     14  C   UNL     1       7.220   4.623  17.528  0.00  0.00    +0.000 C 
ATOM     15  C   UNL     1       7.652   4.896  16.090  0.00  0.00    +0.000 C 
ATOM     16  C   UNL     1       6.518   4.979  15.067  0.00  0.00    +0.000 C 
ATOM     17  C   UNL     1       5.521   3.832  15.159  0.00  0.00    +0.000 C 
ENDBRANCH   7   8
BRANCH   1  22
ATOM     18  C   UNL     1       0.060   9.357  23.045  0.00  0.00    +0.000 C 
ATOM     19  C   UNL     1       0.489   9.053  21.664  0.00  0.00    +0.000 A 
ATOM     20  C   UNL     1       0.218   9.634  20.446  0.00  0.00    +0.000 A 
ATOM     21  C   UNL     1       0.919   8.873  19.484  0.00  0.00    +0.000 A 
ATOM     22  C   UNL     1       1.629   7.902  20.170  0.00  0.00    +0.000 A 
ATOM     23  O   UNL     1       1.332   7.994  21.506  0.00  0.00    +0.000 OA
ENDBRANCH   1  22
TORSDOF 2
ENDMDL
MODEL 8
REMARK VINA RESULT:      -6.9      3.078      7.088
REMARK  Name = 
REMARK  3 active torsions:
REMARK  status: ('A' for Active; 'I' for Inactive)
REMARK    1  A    between atoms: C_1  and  C_2
REMARK    2  A    between atoms: C_5  and  C_6
REMARK    3  A    between atoms: C_12  and  C_13
REMARK                            x       y       z     vdW  Elec       q    Type
REMARK                         _______ _______ _______ _____ _____    ______ ____
ROOT
ATOM      1  C   UNL     1       2.551   6.933  19.643  0.00  0.00    +0.000 C 
ATOM      2  O   UNL     1       3.593   7.298  19.091  0.00  0.00    +0.000 OA
ATOM      3  N   UNL     1       2.335   5.579  19.884  0.00  0.00    +0.000 N 
ATOM      4  C   UNL     1       1.284   4.975  20.686  0.00  0.00    +0.000 C 
ATOM      5  C   UNL     1       1.994   3.885  21.471  0.00  0.00    +0.000 C 
ATOM      6  C   UNL     1       3.079   3.402  20.521  0.00  0.00    +0.000 C 
ATOM      7  C   UNL     1       3.436   4.641  19.685  0.00  0.00    +0.000 C 
ENDROOT
BRANCH   7   8
ATOM      8  C   UNL     1       3.621   4.291  18.238  0.00  0.00    +0.000 A 
ATOM      9  N   UNL     1       2.769   3.606  17.498  0.00  0.00    +0.000 NA
ATOM     10  N   UNL     1       3.341   3.386  16.276  0.00  0.00    +0.000 NA
ATOM     11  C   UNL     1       4.532   3.948  16.263  0.00  0.00    +0.000 A 
ATOM     12  N   UNL     1       4.740   4.559  17.480  0.00  0.00    +0.000 N 
ATOM     13  C   UNL     1       5.917   5.305  17.878  0.00  0.00    +0.000 C 
ATOM     14  C   UNL     1       7.222   4.624  17.486  0.00  0.00    +0.000 C 
ATOM     15  C   UNL     1       7.646   4.898  16.046  0.00  0.00    +0.000 C 
ATOM     16  C   UNL     1       6.505   4.993  15.031  0.00  0.00    +0.000 C 
ATOM     17  C   UNL     1       5.499   3.853  15.127  0.00  0.00    +0.000 C 
ENDBRANCH   7   8
BRANCH   1  22
ATOM     18  C   UNL     1      -0.542  10.697  19.530  0.00  0.00    +0.000 C 
ATOM     19  C   UNL     1       0.189   9.590  20.179  0.00  0.00    +0.000 A 
ATOM     20  C   UNL     1       0.174   9.073  21.454  0.00  0.00    +0.000 A 
ATOM     21  C   UNL     1       1.115   8.018  21.462  0.00  0.00    +0.000 A 
ATOM     22  C   UNL     1       1.613   7.908  20.176  0.00  0.00    +0.000 A 
ATOM     23  O   UNL     1       1.070   8.900  19.400  0.00  0.00    +0.000 OA
ENDBRANCH   1  22
TORSDOF 2
ENDMDL
MODEL 9
REMARK VINA RESULT:      -6.6      9.828     11.988
REMARK  Name = 
REMARK  3 active torsions:
REMARK  status: ('A' for Active; 'I' for Inactive)
REMARK    1  A    between atoms: C_1  and  C_2
REMARK    2  A    between atoms: C_5  and  C_6
REMARK    3  A    between atoms: C_12  and  C_13
REMARK                            x       y       z     vdW  Elec       q    Type
REMARK                         _______ _______ _______ _____ _____    ______ ____
ROOT
ATOM      1  C   UNL     1       5.149  15.494  18.624  0.00  0.00    +0.000 C 
ATOM      2  O   UNL     1       5.574  14.605  17.880  0.00  0.00    +0.000 OA
ATOM      3  N   UNL     1       6.023  16.149  19.487  0.00  0.00    +0.000 N 
ATOM      4  C   UNL     1       5.763  17.337  20.283  0.00  0.00    +0.000 C 
ATOM      5  C   UNL     1       7.020  18.175  20.124  0.00  0.00    +0.000 C 
ATOM      6  C   UNL     1       8.131  17.142  20.004  0.00  0.00    +0.000 C 
ATOM      7  C   UNL     1       7.459  15.932  19.338  0.00  0.00    +0.000 C 
ENDROOT
BRANCH   7   8
ATOM      8  C   UNL     1       7.901  14.644  19.968  0.00  0.00    +0.000 A 
ATOM      9  N   UNL     1       7.762  14.325  21.241  0.00  0.00    +0.000 NA
ATOM     10  N   UNL     1       8.392  13.131  21.456  0.00  0.00    +0.000 NA
ATOM     11  C   UNL     1       8.902  12.714  20.316  0.00  0.00    +0.000 A 
ATOM     12  N   UNL     1       8.589  13.631  19.337  0.00  0.00    +0.000 N 
ATOM     13  C   UNL     1       8.944  13.548  17.934  0.00  0.00    +0.000 C 
ATOM     14  C   UNL     1      10.387  13.116  17.704  0.00  0.00    +0.000 C 
ATOM     15  C   UNL     1      10.588  11.605  17.753  0.00  0.00    +0.000 C 
ATOM     16  C   UNL     1       9.728  10.858  18.774  0.00  0.00    +0.000 C 
ATOM     17  C   UNL     1       9.738  11.485  20.162  0.00  0.00    +0.000 C 
ENDBRANCH   7   8
BRANCH   1  22
ATOM     18  C   UNL     1       1.461  18.146  16.859  0.00  0.00    +0.000 C 
ATOM     19  C   UNL     1       2.070  17.122  17.732  0.00  0.00    +0.000 A 
ATOM     20  C   UNL     1       1.549  16.238  18.650  0.00  0.00    +0.000 A 
ATOM     21  C   UNL     1       2.649  15.522  19.174  0.00  0.00    +0.000 A 
ATOM     22  C   UNL     1       3.778  15.965  18.507  0.00  0.00    +0.000 A 
ATOM     23  O   UNL     1       3.423  16.975  17.649  0.00  0.00    +0.000 OA
ENDBRANCH   1  22
TORSDOF 2
ENDMDL
