MODEL 1
REMARK VINA RESULT:      -8.1      0.000      0.000
REMARK  Name = 
REMARK  10 active torsions:
REMARK  status: ('A' for Active; 'I' for Inactive)
REMARK    1  A    between atoms: C_1  and  C_2
REMARK    2  A    between atoms: C_4  and  C_5
REMARK    3  A    between atoms: C_7  and  C_8
REMARK    4  A    between atoms: C_8  and  S_9
REMARK    5  A    between atoms: N_10  and  C_11
REMARK    6  A    between atoms: C_11  and  C_12
REMARK    7  A    between atoms: C_12  and  C_13
REMARK    8  A    between atoms: C_15  and  O_16
REMARK    9  A    between atoms: C_18  and  C_19
REMARK   10  A    between atoms: C_18  and  C_20
REMARK                            x       y       z     vdW  Elec       q    Type
REMARK                         _______ _______ _______ _____ _____    ______ ____
ROOT
ATOM      1  C   UNL     1       6.029   4.632  16.539  0.00  0.00    +0.000 C 
ATOM      2  N   UNL     1       4.791   4.690  16.915  0.00  0.00    +0.000 NA
ENDROOT
BRANCH   1   9
ATOM      3  C   UNL     1       8.851   5.990  12.617  0.00  0.00    +0.000 C 
ATOM      4  C   UNL     1       7.704   5.199  13.170  0.00  0.00    +0.000 A 
ATOM      5  C   UNL     1       6.915   4.406  12.326  0.00  0.00    +0.000 A 
ATOM      6  C   UNL     1       5.831   3.683  12.832  0.00  0.00    +0.000 A 
ATOM      7  C   UNL     1       4.977   2.842  11.931  0.00  0.00    +0.000 C 
ATOM      8  C   UNL     1       5.536   3.749  14.207  0.00  0.00    +0.000 A 
ATOM      9  C   UNL     1       6.319   4.515  15.072  0.00  0.00    +0.000 A 
ATOM     10  C   UNL     1       7.397   5.246  14.543  0.00  0.00    +0.000 A 
ENDBRANCH   1   9
BRANCH   1  11
ATOM     11  S   UNL     1       7.372   4.718  17.679  0.00  0.00    +0.000 S 
ATOM     12  H   UNL     1       7.632   6.028  17.647  0.00  0.00    +0.000 HD
ENDBRANCH   1  11
BRANCH   2  13
ATOM     13  C   UNL     1       4.432   4.856  18.325  0.00  0.00    +0.000 C 
BRANCH  13  14
ATOM     14  C   UNL     1       2.887   4.872  18.479  0.00  0.00    +0.000 C 
ATOM     15  C   UNL     1       2.433   6.320  18.126  0.00  0.00    +0.000 C 
ATOM     16  C   UNL     1       2.125   3.926  17.515  0.00  0.00    +0.000 C 
ATOM     17  C   UNL     1       2.076   2.447  17.897  0.00  0.00    +0.000 C 
ATOM     18  C   UNL     1       1.681   2.220  19.360  0.00  0.00    +0.000 C 
ATOM     19  C   UNL     1       2.511   3.037  20.371  0.00  0.00    +0.000 C 
ATOM     20  C   UNL     1       3.924   2.438  20.533  0.00  0.00    +0.000 C 
ATOM     21  C   UNL     1       1.859   2.904  21.770  0.00  0.00    +0.000 C 
ATOM     22  C   UNL     1       2.488   4.540  19.953  0.00  0.00    +0.000 C 
BRANCH  17  23
ATOM     23  O   UNL     1       3.291   1.772  17.597  0.00  0.00    +0.000 OA
ATOM     24  H   UNL     1       3.085   0.844  17.389  0.00  0.00    +0.000 HD
ENDBRANCH  17  23
ENDBRANCH  13  14
ENDBRANCH   2  13
TORSDOF 5
ENDMDL
MODEL 2
REMARK VINA RESULT:      -7.9      0.084      1.839
REMARK  Name = 
REMARK  10 active torsions:
REMARK  status: ('A' for Active; 'I' for Inactive)
REMARK    1  A    between atoms: C_1  and  C_2
REMARK    2  A    between atoms: C_4  and  C_5
REMARK    3  A    between atoms: C_7  and  C_8
REMARK    4  A    between atoms: C_8  and  S_9
REMARK    5  A    between atoms: N_10  and  C_11
REMARK    6  A    between atoms: C_11  and  C_12
REMARK    7  A    between atoms: C_12  and  C_13
REMARK    8  A    between atoms: C_15  and  O_16
REMARK    9  A    between atoms: C_18  and  C_19
REMARK   10  A    between atoms: C_18  and  C_20
REMARK                            x       y       z     vdW  Elec       q    Type
REMARK                         _______ _______ _______ _____ _____    ______ ____
ROOT
ATOM      1  C   UNL     1       6.043   4.722  16.571  0.00  0.00    +0.000 C 
ATOM      2  N   UNL     1       4.799   4.785  16.927  0.00  0.00    +0.000 NA
ENDROOT
BRANCH   1   9
ATOM      3  C   UNL     1       4.943   2.885  12.031  0.00  0.00    +0.000 C 
ATOM      4  C   UNL     1       5.810   3.746  12.901  0.00  0.00    +0.000 A 
ATOM      5  C   UNL     1       6.898   4.439  12.355  0.00  0.00    +0.000 A 
ATOM      6  C   UNL     1       7.722   5.227  13.163  0.00  0.00    +0.000 A 
ATOM      7  C   UNL     1       8.894   5.963  12.586  0.00  0.00    +0.000 C 
ATOM      8  C   UNL     1       7.450   5.327  14.541  0.00  0.00    +0.000 A 
ATOM      9  C   UNL     1       6.359   4.662  15.106  0.00  0.00    +0.000 A 
ATOM     10  C   UNL     1       5.549   3.864  14.279  0.00  0.00    +0.000 A 
ENDBRANCH   1   9
BRANCH   1  11
ATOM     11  S   UNL     1       7.366   4.739  17.738  0.00  0.00    +0.000 S 
ATOM     12  H   UNL     1       6.677   4.737  18.882  0.00  0.00    +0.000 HD
ENDBRANCH   1  11
BRANCH   2  13
ATOM     13  C   UNL     1       4.416   4.897  18.335  0.00  0.00    +0.000 C 
BRANCH  13  14
ATOM     14  C   UNL     1       2.870   4.858  18.468  0.00  0.00    +0.000 C 
ATOM     15  C   UNL     1       2.369   6.290  18.116  0.00  0.00    +0.000 C 
ATOM     16  C   UNL     1       2.155   3.890  17.490  0.00  0.00    +0.000 C 
ATOM     17  C   UNL     1       2.153   2.409  17.864  0.00  0.00    +0.000 C 
ATOM     18  C   UNL     1       1.747   2.160  19.320  0.00  0.00    +0.000 C 
ATOM     19  C   UNL     1       2.533   3.001  20.347  0.00  0.00    +0.000 C 
ATOM     20  C   UNL     1       3.964   2.451  20.526  0.00  0.00    +0.000 C 
ATOM     21  C   UNL     1       1.867   2.839  21.736  0.00  0.00    +0.000 C 
ATOM     22  C   UNL     1       2.462   4.505  19.935  0.00  0.00    +0.000 C 
BRANCH  17  23
ATOM     23  O   UNL     1       3.395   1.779  17.577  0.00  0.00    +0.000 OA
ATOM     24  H   UNL     1       3.494   1.010  18.165  0.00  0.00    +0.000 HD
ENDBRANCH  17  23
ENDBRANCH  13  14
ENDBRANCH   2  13
TORSDOF 5
ENDMDL
MODEL 3
REMARK VINA RESULT:      -7.0      3.741      7.468
REMARK  Name = 
REMARK  10 active torsions:
REMARK  status: ('A' for Active; 'I' for Inactive)
REMARK    1  A    between atoms: C_1  and  C_2
REMARK    2  A    between atoms: C_4  and  C_5
REMARK    3  A    between atoms: C_7  and  C_8
REMARK    4  A    between atoms: C_8  and  S_9
REMARK    5  A    between atoms: N_10  and  C_11
REMARK    6  A    between atoms: C_11  and  C_12
REMARK    7  A    between atoms: C_12  and  C_13
REMARK    8  A    between atoms: C_15  and  O_16
REMARK    9  A    between atoms: C_18  and  C_19
REMARK   10  A    between atoms: C_18  and  C_20
REMARK                            x       y       z     vdW  Elec       q    Type
REMARK                         _______ _______ _______ _____ _____    ______ ____
ROOT
ATOM      1  C   UNL     1       2.170   7.505  19.468  0.00  0.00    +0.000 C 
ATOM      2  N   UNL     1       2.312   6.472  20.236  0.00  0.00    +0.000 NA
ENDROOT
BRANCH   1   9
ATOM      3  C   UNL     1      -0.289   9.683  23.263  0.00  0.00    +0.000 C 
ATOM      4  C   UNL     1       0.115   9.679  21.819  0.00  0.00    +0.000 A 
ATOM      5  C   UNL     1      -0.328  10.689  20.954  0.00  0.00    +0.000 A 
ATOM      6  C   UNL     1       0.028  10.680  19.603  0.00  0.00    +0.000 A 
ATOM      7  C   UNL     1      -0.452  11.753  18.671  0.00  0.00    +0.000 C 
ATOM      8  C   UNL     1       0.845   9.645  19.109  0.00  0.00    +0.000 A 
ATOM      9  C   UNL     1       1.316   8.638  19.954  0.00  0.00    +0.000 A 
ATOM     10  C   UNL     1       0.937   8.658  21.308  0.00  0.00    +0.000 A 
ENDBRANCH   1   9
BRANCH   1  11
ATOM     11  S   UNL     1       2.967   7.638  17.900  0.00  0.00    +0.000 S 
ATOM     12  H   UNL     1       2.882   6.374  17.478  0.00  0.00    +0.000 HD
ENDBRANCH   1  11
BRANCH   2  13
ATOM     13  C   UNL     1       3.170   5.350  19.851  0.00  0.00    +0.000 C 
BRANCH  13  14
ATOM     14  C   UNL     1       2.518   4.011  20.285  0.00  0.00    +0.000 C 
ATOM     15  C   UNL     1       2.383   4.078  21.835  0.00  0.00    +0.000 C 
ATOM     16  C   UNL     1       1.090   3.771  19.731  0.00  0.00    +0.000 C 
ATOM     17  C   UNL     1       0.984   3.273  18.290  0.00  0.00    +0.000 C 
ATOM     18  C   UNL     1       1.922   2.099  17.992  0.00  0.00    +0.000 C 
ATOM     19  C   UNL     1       3.390   2.346  18.399  0.00  0.00    +0.000 C 
ATOM     20  C   UNL     1       4.081   3.306  17.407  0.00  0.00    +0.000 C 
ATOM     21  C   UNL     1       4.171   1.014  18.273  0.00  0.00    +0.000 C 
ATOM     22  C   UNL     1       3.435   2.809  19.889  0.00  0.00    +0.000 C 
BRANCH  17  23
ATOM     23  O   UNL     1       1.175   4.317  17.343  0.00  0.00    +0.000 OA
ATOM     24  H   UNL     1       0.330   4.784  17.225  0.00  0.00    +0.000 HD
ENDBRANCH  17  23
ENDBRANCH  13  14
ENDBRANCH   2  13
TORSDOF 5
ENDMDL
MODEL 4
REMARK VINA RESULT:      -7.0      3.757      7.457
REMARK  Name = 
REMARK  10 active torsions:
REMARK  status: ('A' for Active; 'I' for Inactive)
REMARK    1  A    between atoms: C_1  and  C_2
REMARK    2  A    between atoms: C_4  and  C_5
REMARK    3  A    between atoms: C_7  and  C_8
REMARK    4  A    between atoms: C_8  and  S_9
REMARK    5  A    between atoms: N_10  and  C_11
REMARK    6  A    between atoms: C_11  and  C_12
REMARK    7  A    between atoms: C_12  and  C_13
REMARK    8  A    between atoms: C_15  and  O_16
REMARK    9  A    between atoms: C_18  and  C_19
REMARK   10  A    between atoms: C_18  and  C_20
REMARK                            x       y       z     vdW  Elec       q    Type
REMARK                         _______ _______ _______ _____ _____    ______ ____
ROOT
ATOM      1  C   UNL     1       2.136   7.480  19.557  0.00  0.00    +0.000 C 
ATOM      2  N   UNL     1       2.303   6.440  20.310  0.00  0.00    +0.000 NA
ENDROOT
BRANCH   1   9
ATOM      3  C   UNL     1      -0.047  11.926  18.743  0.00  0.00    +0.000 C 
ATOM      4  C   UNL     1       0.248  10.782  19.666  0.00  0.00    +0.000 A 
ATOM      5  C   UNL     1      -0.223  10.794  20.985  0.00  0.00    +0.000 A 
ATOM      6  C   UNL     1       0.065   9.740  21.857  0.00  0.00    +0.000 A 
ATOM      7  C   UNL     1      -0.428   9.753  23.273  0.00  0.00    +0.000 C 
ATOM      8  C   UNL     1       0.833   8.653  21.399  0.00  0.00    +0.000 A 
ATOM      9  C   UNL     1       1.297   8.607  20.082  0.00  0.00    +0.000 A 
ATOM     10  C   UNL     1       1.007   9.682  19.225  0.00  0.00    +0.000 A 
ENDBRANCH   1   9
BRANCH   1  11
ATOM     11  S   UNL     1       2.881   7.629  17.966  0.00  0.00    +0.000 S 
ATOM     12  H   UNL     1       2.710   6.388  17.503  0.00  0.00    +0.000 HD
ENDBRANCH   1  11
BRANCH   2  13
ATOM     13  C   UNL     1       3.150   5.323  19.887  0.00  0.00    +0.000 C 
BRANCH  13  14
ATOM     14  C   UNL     1       2.497   3.977  20.301  0.00  0.00    +0.000 C 
ATOM     15  C   UNL     1       2.352   4.026  21.852  0.00  0.00    +0.000 C 
ATOM     16  C   UNL     1       1.074   3.740  19.735  0.00  0.00    +0.000 C 
ATOM     17  C   UNL     1       0.979   3.257  18.288  0.00  0.00    +0.000 C 
ATOM     18  C   UNL     1       1.922   2.089  17.984  0.00  0.00    +0.000 C 
ATOM     19  C   UNL     1       3.386   2.334  18.403  0.00  0.00    +0.000 C 
ATOM     20  C   UNL     1       4.081   3.307  17.427  0.00  0.00    +0.000 C 
ATOM     21  C   UNL     1       4.171   1.006  18.269  0.00  0.00    +0.000 C 
ATOM     22  C   UNL     1       3.420   2.782  19.898  0.00  0.00    +0.000 C 
BRANCH  17  23
ATOM     23  O   UNL     1       1.174   4.312  17.354  0.00  0.00    +0.000 OA
ATOM     24  H   UNL     1       2.113   4.566  17.367  0.00  0.00    +0.000 HD
ENDBRANCH  17  23
ENDBRANCH  13  14
ENDBRANCH   2  13
TORSDOF 5
ENDMDL
MODEL 5
REMARK VINA RESULT:      -6.9      5.321      8.212
REMARK  Name = 
REMARK  10 active torsions:
REMARK  status: ('A' for Active; 'I' for Inactive)
REMARK    1  A    between atoms: C_1  and  C_2
REMARK    2  A    between atoms: C_4  and  C_5
REMARK    3  A    between atoms: C_7  and  C_8
REMARK    4  A    between atoms: C_8  and  S_9
REMARK    5  A    between atoms: N_10  and  C_11
REMARK    6  A    between atoms: C_11  and  C_12
REMARK    7  A    between atoms: C_12  and  C_13
REMARK    8  A    between atoms: C_15  and  O_16
REMARK    9  A    between atoms: C_18  and  C_19
REMARK   10  A    between atoms: C_18  and  C_20
REMARK                            x       y       z     vdW  Elec       q    Type
REMARK                         _______ _______ _______ _____ _____    ______ ____
ROOT
ATOM      1  C   UNL     1       2.028   7.627  19.584  0.00  0.00    +0.000 C 
ATOM      2  N   UNL     1       1.671   8.143  20.717  0.00  0.00    +0.000 NA
ENDROOT
BRANCH   1   9
ATOM      3  C   UNL     1       3.810   3.680  17.047  0.00  0.00    +0.000 C 
ATOM      4  C   UNL     1       3.123   4.233  18.260  0.00  0.00    +0.000 A 
ATOM      5  C   UNL     1       2.681   3.377  19.278  0.00  0.00    +0.000 A 
ATOM      6  C   UNL     1       2.022   3.883  20.402  0.00  0.00    +0.000 A 
ATOM      7  C   UNL     1       1.538   2.971  21.489  0.00  0.00    +0.000 C 
ATOM      8  C   UNL     1       1.805   5.270  20.511  0.00  0.00    +0.000 A 
ATOM      9  C   UNL     1       2.254   6.146  19.520  0.00  0.00    +0.000 A 
ATOM     10  C   UNL     1       2.904   5.616  18.391  0.00  0.00    +0.000 A 
ENDBRANCH   1   9
BRANCH   1  11
ATOM     11  S   UNL     1       2.220   8.593  18.120  0.00  0.00    +0.000 S 
ATOM     12  H   UNL     1       1.114   9.340  18.178  0.00  0.00    +0.000 HD
ENDBRANCH   1  11
BRANCH   2  13
ATOM     13  C   UNL     1       1.383   9.573  20.845  0.00  0.00    +0.000 C 
BRANCH  13  14
ATOM     14  C   UNL     1      -0.122   9.784  21.158  0.00  0.00    +0.000 C 
ATOM     15  C   UNL     1      -0.640   8.428  21.724  0.00  0.00    +0.000 C 
ATOM     16  C   UNL     1      -0.420  10.854  22.240  0.00  0.00    +0.000 C 
ATOM     17  C   UNL     1      -0.382  12.315  21.794  0.00  0.00    +0.000 C 
ATOM     18  C   UNL     1      -1.167  12.567  20.503  0.00  0.00    +0.000 C 
ATOM     19  C   UNL     1      -0.802  11.614  19.346  0.00  0.00    +0.000 C 
ATOM     20  C   UNL     1       0.563  11.991  18.733  0.00  0.00    +0.000 C 
ATOM     21  C   UNL     1      -1.824  11.811  18.199  0.00  0.00    +0.000 C 
ATOM     22  C   UNL     1      -0.901  10.139  19.851  0.00  0.00    +0.000 C 
BRANCH  17  23
ATOM     23  O   UNL     1       0.947  12.807  21.675  0.00  0.00    +0.000 OA
ATOM     24  H   UNL     1       1.559  12.125  21.999  0.00  0.00    +0.000 HD
ENDBRANCH  17  23
ENDBRANCH  13  14
ENDBRANCH   2  13
TORSDOF 5
ENDMDL
MODEL 6
REMARK VINA RESULT:      -6.9      5.345      8.256
REMARK  Name = 
REMARK  10 active torsions:
REMARK  status: ('A' for Active; 'I' for Inactive)
REMARK    1  A    between atoms: C_1  and  C_2
REMARK    2  A    between atoms: C_4  and  C_5
REMARK    3  A    between atoms: C_7  and  C_8
REMARK    4  A    between atoms: C_8  and  S_9
REMARK    5  A    between atoms: N_10  and  C_11
REMARK    6  A    between atoms: C_11  and  C_12
REMARK    7  A    between atoms: C_12  and  C_13
REMARK    8  A    between atoms: C_15  and  O_16
REMARK    9  A    between atoms: C_18  and  C_19
REMARK   10  A    between atoms: C_18  and  C_20
REMARK                            x       y       z     vdW  Elec       q    Type
REMARK                         _______ _______ _______ _____ _____    ______ ____
ROOT
ATOM      1  C   UNL     1       2.029   7.698  19.478  0.00  0.00    +0.000 C 
ATOM      2  N   UNL     1       1.686   8.178  20.631  0.00  0.00    +0.000 NA
ENDROOT
BRANCH   1   9
ATOM      3  C   UNL     1       1.678   3.133  21.534  0.00  0.00    +0.000 C 
ATOM      4  C   UNL     1       2.124   4.008  20.402  0.00  0.00    +0.000 A 
ATOM      5  C   UNL     1       2.799   3.460  19.303  0.00  0.00    +0.000 A 
ATOM      6  C   UNL     1       3.235   4.273  18.253  0.00  0.00    +0.000 A 
ATOM      7  C   UNL     1       3.967   3.692  17.080  0.00  0.00    +0.000 C 
ATOM      8  C   UNL     1       2.987   5.658  18.301  0.00  0.00    +0.000 A 
ATOM      9  C   UNL     1       2.297   6.226  19.375  0.00  0.00    +0.000 A 
ATOM     10  C   UNL     1       1.878   5.393  20.427  0.00  0.00    +0.000 A 
ENDBRANCH   1   9
BRANCH   1  11
ATOM     11  S   UNL     1       2.157   8.701  18.033  0.00  0.00    +0.000 S 
ATOM     12  H   UNL     1       2.918   7.919  17.263  0.00  0.00    +0.000 HD
ENDBRANCH   1  11
BRANCH   2  13
ATOM     13  C   UNL     1       1.360   9.595  20.798  0.00  0.00    +0.000 C 
BRANCH  13  14
ATOM     14  C   UNL     1      -0.131   9.752  21.201  0.00  0.00    +0.000 C 
ATOM     15  C   UNL     1      -0.567   8.375  21.787  0.00  0.00    +0.000 C 
ATOM     16  C   UNL     1      -0.401  10.804  22.307  0.00  0.00    +0.000 C 
ATOM     17  C   UNL     1      -0.441  12.268  21.870  0.00  0.00    +0.000 C 
ATOM     18  C   UNL     1      -1.309  12.499  20.629  0.00  0.00    +0.000 C 
ATOM     19  C   UNL     1      -0.981  11.565  19.446  0.00  0.00    +0.000 C 
ATOM     20  C   UNL     1       0.332  11.994  18.756  0.00  0.00    +0.000 C 
ATOM     21  C   UNL     1      -2.075  11.732  18.362  0.00  0.00    +0.000 C 
ATOM     22  C   UNL     1      -0.998  10.086  19.945  0.00  0.00    +0.000 C 
BRANCH  17  23
ATOM     23  O   UNL     1       0.860  12.808  21.675  0.00  0.00    +0.000 OA
ATOM     24  H   UNL     1       1.509  12.088  21.764  0.00  0.00    +0.000 HD
ENDBRANCH  17  23
ENDBRANCH  13  14
ENDBRANCH   2  13
TORSDOF 5
ENDMDL
MODEL 7
REMARK VINA RESULT:      -6.6      3.553      7.800
REMARK  Name = 
REMARK  10 active torsions:
REMARK  status: ('A' for Active; 'I' for Inactive)
REMARK    1  A    between atoms: C_1  and  C_2
REMARK    2  A    between atoms: C_4  and  C_5
REMARK    3  A    between atoms: C_7  and  C_8
REMARK    4  A    between atoms: C_8  and  S_9
REMARK    5  A    between atoms: N_10  and  C_11
REMARK    6  A    between atoms: C_11  and  C_12
REMARK    7  A    between atoms: C_12  and  C_13
REMARK    8  A    between atoms: C_15  and  O_16
REMARK    9  A    between atoms: C_18  and  C_19
REMARK   10  A    between atoms: C_18  and  C_20
REMARK                            x       y       z     vdW  Elec       q    Type
REMARK                         _______ _______ _______ _____ _____    ______ ____
ROOT
ATOM      1  C   UNL     1       2.399   6.911  19.548  0.00  0.00    +0.000 C 
ATOM      2  N   UNL     1       3.180   7.082  18.529  0.00  0.00    +0.000 NA
ENDROOT
BRANCH   1   9
ATOM      3  C   UNL     1       0.375  11.408  18.618  0.00  0.00    +0.000 C 
ATOM      4  C   UNL     1       0.649  10.289  19.577  0.00  0.00    +0.000 A 
ATOM      5  C   UNL     1       0.215  10.370  20.907  0.00  0.00    +0.000 A 
ATOM      6  C   UNL     1       0.485   9.340  21.812  0.00  0.00    +0.000 A 
ATOM      7  C   UNL     1       0.032   9.427  23.238  0.00  0.00    +0.000 C 
ATOM      8  C   UNL     1       1.196   8.205  21.376  0.00  0.00    +0.000 A 
ATOM      9  C   UNL     1       1.621   8.090  20.051  0.00  0.00    +0.000 A 
ATOM     10  C   UNL     1       1.351   9.143  19.159  0.00  0.00    +0.000 A 
ENDBRANCH   1   9
BRANCH   1  11
ATOM     11  S   UNL     1       2.197   5.345  20.336  0.00  0.00    +0.000 S 
ATOM     12  H   UNL     1       1.062   5.559  21.007  0.00  0.00    +0.000 HD
ENDBRANCH   1  11
BRANCH   2  13
ATOM     13  C   UNL     1       3.933   5.967  17.952  0.00  0.00    +0.000 C 
BRANCH  13  14
ATOM     14  C   UNL     1       5.162   6.505  17.171  0.00  0.00    +0.000 C 
ATOM     15  C   UNL     1       4.962   8.046  17.059  0.00  0.00    +0.000 C 
ATOM     16  C   UNL     1       6.527   6.290  17.874  0.00  0.00    +0.000 C 
ATOM     17  C   UNL     1       7.151   4.900  17.756  0.00  0.00    +0.000 C 
ATOM     18  C   UNL     1       7.150   4.363  16.321  0.00  0.00    +0.000 C 
ATOM     19  C   UNL     1       5.775   4.425  15.625  0.00  0.00    +0.000 C 
ATOM     20  C   UNL     1       4.836   3.326  16.165  0.00  0.00    +0.000 C 
ATOM     21  C   UNL     1       5.962   4.088  14.125  0.00  0.00    +0.000 C 
ATOM     22  C   UNL     1       5.211   5.876  15.741  0.00  0.00    +0.000 C 
BRANCH  17  23
ATOM     23  O   UNL     1       6.550   3.962  18.640  0.00  0.00    +0.000 OA
ATOM     24  H   UNL     1       7.134   3.187  18.711  0.00  0.00    +0.000 HD
ENDBRANCH  17  23
ENDBRANCH  13  14
ENDBRANCH   2  13
TORSDOF 5
ENDMDL
MODEL 8
REMARK VINA RESULT:      -6.6      3.589      7.872
REMARK  Name = 
REMARK  10 active torsions:
REMARK  status: ('A' for Active; 'I' for Inactive)
REMARK    1  A    between atoms: C_1  and  C_2
REMARK    2  A    between atoms: C_4  and  C_5
REMARK    3  A    between atoms: C_7  and  C_8
REMARK    4  A    between atoms: C_8  and  S_9
REMARK    5  A    between atoms: N_10  and  C_11
REMARK    6  A    between atoms: C_11  and  C_12
REMARK    7  A    between atoms: C_12  and  C_13
REMARK    8  A    between atoms: C_15  and  O_16
REMARK    9  A    between atoms: C_18  and  C_19
REMARK   10  A    between atoms: C_18  and  C_20
REMARK                            x       y       z     vdW  Elec       q    Type
REMARK                         _______ _______ _______ _____ _____    ______ ____
ROOT
ATOM      1  C   UNL     1       2.389   7.007  19.528  0.00  0.00    +0.000 C 
ATOM      2  N   UNL     1       3.211   7.157  18.538  0.00  0.00    +0.000 NA
ENDROOT
BRANCH   1   9
ATOM      3  C   UNL     1       0.020   9.391  23.256  0.00  0.00    +0.000 C 
ATOM      4  C   UNL     1       0.450   9.343  21.820  0.00  0.00    +0.000 A 
ATOM      5  C   UNL     1       0.096  10.374  20.939  0.00  0.00    +0.000 A 
ATOM      6  C   UNL     1       0.476  10.326  19.594  0.00  0.00    +0.000 A 
ATOM      7  C   UNL     1       0.091  11.421  18.644  0.00  0.00    +0.000 C 
ATOM      8  C   UNL     1       1.226   9.231  19.125  0.00  0.00    +0.000 A 
ATOM      9  C   UNL     1       1.609   8.202  19.988  0.00  0.00    +0.000 A 
ATOM     10  C   UNL     1       1.207   8.262  21.334  0.00  0.00    +0.000 A 
ENDBRANCH   1   9
BRANCH   1  11
ATOM     11  S   UNL     1       2.134   5.452  20.322  0.00  0.00    +0.000 S 
ATOM     12  H   UNL     1       2.731   4.636  19.449  0.00  0.00    +0.000 HD
ENDBRANCH   1  11
BRANCH   2  13
ATOM     13  C   UNL     1       3.970   6.025  18.001  0.00  0.00    +0.000 C 
BRANCH  13  14
ATOM     14  C   UNL     1       5.206   6.541  17.217  0.00  0.00    +0.000 C 
ATOM     15  C   UNL     1       5.048   8.089  17.130  0.00  0.00    +0.000 C 
ATOM     16  C   UNL     1       6.571   6.278  17.904  0.00  0.00    +0.000 C 
ATOM     17  C   UNL     1       7.156   4.873  17.760  0.00  0.00    +0.000 C 
ATOM     18  C   UNL     1       7.127   4.358  16.317  0.00  0.00    +0.000 C 
ATOM     19  C   UNL     1       5.748   4.469  15.635  0.00  0.00    +0.000 C 
ATOM     20  C   UNL     1       4.784   3.388  16.167  0.00  0.00    +0.000 C 
ATOM     21  C   UNL     1       5.913   4.150  14.128  0.00  0.00    +0.000 C 
ATOM     22  C   UNL     1       5.225   5.933  15.778  0.00  0.00    +0.000 C 
BRANCH  17  23
ATOM     23  O   UNL     1       6.536   3.939  18.635  0.00  0.00    +0.000 OA
ATOM     24  H   UNL     1       7.040   3.916  19.468  0.00  0.00    +0.000 HD
ENDBRANCH  17  23
ENDBRANCH  13  14
ENDBRANCH   2  13
TORSDOF 5
ENDMDL
MODEL 9
REMARK VINA RESULT:      -6.6      4.105      7.635
REMARK  Name = 
REMARK  10 active torsions:
REMARK  status: ('A' for Active; 'I' for Inactive)
REMARK    1  A    between atoms: C_1  and  C_2
REMARK    2  A    between atoms: C_4  and  C_5
REMARK    3  A    between atoms: C_7  and  C_8
REMARK    4  A    between atoms: C_8  and  S_9
REMARK    5  A    between atoms: N_10  and  C_11
REMARK    6  A    between atoms: C_11  and  C_12
REMARK    7  A    between atoms: C_12  and  C_13
REMARK    8  A    between atoms: C_15  and  O_16
REMARK    9  A    between atoms: C_18  and  C_19
REMARK   10  A    between atoms: C_18  and  C_20
REMARK                            x       y       z     vdW  Elec       q    Type
REMARK                         _______ _______ _______ _____ _____    ______ ____
ROOT
ATOM      1  C   UNL     1       1.894   8.078  19.283  0.00  0.00    +0.000 C 
ATOM      2  N   UNL     1       2.030   6.978  19.952  0.00  0.00    +0.000 NA
ENDROOT
BRANCH   1   9
ATOM      3  C   UNL     1      -0.589   9.891  23.251  0.00  0.00    +0.000 C 
ATOM      4  C   UNL     1      -0.170  10.026  21.817  0.00  0.00    +0.000 A 
ATOM      5  C   UNL     1      -0.595  11.120  21.053  0.00  0.00    +0.000 A 
ATOM      6  C   UNL     1      -0.225  11.243  19.711  0.00  0.00    +0.000 A 
ATOM      7  C   UNL     1      -0.687  12.406  18.886  0.00  0.00    +0.000 C 
ATOM      8  C   UNL     1       0.589  10.255  19.125  0.00  0.00    +0.000 A 
ATOM      9  C   UNL     1       1.043   9.165  19.871  0.00  0.00    +0.000 A 
ATOM     10  C   UNL     1       0.650   9.053  21.216  0.00  0.00    +0.000 A 
ENDBRANCH   1   9
BRANCH   1  11
ATOM     11  S   UNL     1       2.695   8.352  17.736  0.00  0.00    +0.000 S 
ATOM     12  H   UNL     1       1.720   8.000  16.894  0.00  0.00    +0.000 HD
ENDBRANCH   1  11
BRANCH   2  13
ATOM     13  C   UNL     1       2.884   5.893  19.467  0.00  0.00    +0.000 C 
BRANCH  13  14
ATOM     14  C   UNL     1       2.153   4.532  19.621  0.00  0.00    +0.000 C 
ATOM     15  C   UNL     1       0.883   4.819  20.477  0.00  0.00    +0.000 C 
ATOM     16  C   UNL     1       1.655   3.905  18.294  0.00  0.00    +0.000 C 
ATOM     17  C   UNL     1       2.692   3.169  17.447  0.00  0.00    +0.000 C 
ATOM     18  C   UNL     1       3.545   2.192  18.262  0.00  0.00    +0.000 C 
ATOM     19  C   UNL     1       4.182   2.811  19.524  0.00  0.00    +0.000 C 
ATOM     20  C   UNL     1       5.369   3.723  19.149  0.00  0.00    +0.000 C 
ATOM     21  C   UNL     1       4.804   1.675  20.374  0.00  0.00    +0.000 C 
ATOM     22  C   UNL     1       3.068   3.508  20.366  0.00  0.00    +0.000 C 
BRANCH  17  23
ATOM     23  O   UNL     1       3.520   4.062  16.713  0.00  0.00    +0.000 OA
ATOM     24  H   UNL     1       2.995   4.444  15.989  0.00  0.00    +0.000 HD
ENDBRANCH  17  23
ENDBRANCH  13  14
ENDBRANCH   2  13
TORSDOF 5
ENDMDL
