MODEL 1
REMARK VINA RESULT:      -6.3      0.000      0.000
REMARK  Name = 
REMARK  2 active torsions:
REMARK  status: ('A' for Active; 'I' for Inactive)
REMARK    1  A    between atoms: C_1  and  C_2
REMARK    2  A    between atoms: C_6  and  C_7
REMARK                            x       y       z     vdW  Elec       q    Type
REMARK                         _______ _______ _______ _____ _____    ______ ____
ROOT
ATOM      1  C   UNL     1      -0.768  10.553  19.510  0.00  0.00    +0.000 C 
ATOM      2  C   UNL     1      -0.817  11.785  20.085  0.00  0.00    +0.000 C 
ATOM      3  C   UNL     1       0.257  12.258  21.007  0.00  0.00    +0.000 C 
ATOM      4  C   UNL     1       0.331  13.757  21.136  0.00  0.00    +0.000 C 
ATOM      5  C   UNL     1      -1.022  14.335  21.499  0.00  0.00    +0.000 C 
ATOM      6  C   UNL     1      -1.362  14.196  23.012  0.00  0.00    +0.000 C 
ATOM      7  C   UNL     1      -1.293  15.550  23.739  0.00  0.00    +0.000 C 
ATOM      8  C   UNL     1      -1.735  15.408  25.196  0.00  0.00    +0.000 C 
ATOM      9  C   UNL     1      -3.113  14.747  25.317  0.00  0.00    +0.000 C 
ATOM     10  N   UNL     1      -3.117  13.455  24.634  0.00  0.00    +0.000 NA
ATOM     11  C   UNL     1      -4.340  12.669  24.822  0.00  0.00    +0.000 C 
ATOM     12  C   UNL     1      -5.470  12.865  23.795  0.00  0.00    +0.000 C 
ATOM     13  C   UNL     1      -4.997  13.087  22.357  0.00  0.00    +0.000 C 
ATOM     14  C   UNL     1      -3.858  14.109  22.331  0.00  0.00    +0.000 C 
ATOM     15  C   UNL     1      -3.382  14.443  20.907  0.00  0.00    +0.000 C 
ATOM     16  N   UNL     1      -2.092  13.823  20.639  0.00  0.00    +0.000 N 
ATOM     17  C   UNL     1      -2.058  12.627  19.920  0.00  0.00    +0.000 C 
ATOM     18  O   UNL     1      -3.014  12.221  19.255  0.00  0.00    +0.000 OA
ATOM     19  C   UNL     1      -2.729  13.525  23.217  0.00  0.00    +0.000 C 
ENDROOT
BRANCH   1  25
ATOM     20  C   UNL     1      -0.442   8.975  22.365  0.00  0.00    +0.000 C 
ATOM     21  C   UNL     1       0.369   8.867  21.113  0.00  0.00    +0.000 A 
ATOM     22  C   UNL     1       1.382   7.858  20.954  0.00  0.00    +0.000 A 
ATOM     23  C   UNL     1       2.002   7.902  19.729  0.00  0.00    +0.000 A 
ATOM     24  S   UNL     1       1.449   9.208  18.791  0.00  0.00    +0.000 S 
ATOM     25  C   UNL     1       0.223   9.621  19.947  0.00  0.00    +0.000 A 
ENDBRANCH   1  25
TORSDOF 1
ENDMDL
MODEL 2
REMARK VINA RESULT:      -6.3      8.251     11.502
REMARK  Name = 
REMARK  2 active torsions:
REMARK  status: ('A' for Active; 'I' for Inactive)
REMARK    1  A    between atoms: C_1  and  C_2
REMARK    2  A    between atoms: C_6  and  C_7
REMARK                            x       y       z     vdW  Elec       q    Type
REMARK                         _______ _______ _______ _____ _____    ______ ____
ROOT
ATOM      1  C   UNL     1       4.997  15.069  21.196  0.00  0.00    +0.000 C 
ATOM      2  C   UNL     1       6.301  15.250  20.852  0.00  0.00    +0.000 C 
ATOM      3  C   UNL     1       6.685  16.028  19.638  0.00  0.00    +0.000 C 
ATOM      4  C   UNL     1       8.093  16.563  19.679  0.00  0.00    +0.000 C 
ATOM      5  C   UNL     1       9.084  15.456  19.980  0.00  0.00    +0.000 C 
ATOM      6  C   UNL     1       9.424  14.584  18.735  0.00  0.00    +0.000 C 
ATOM      7  C   UNL     1      10.849  14.856  18.221  0.00  0.00    +0.000 C 
ATOM      8  C   UNL     1      11.200  13.915  17.069  0.00  0.00    +0.000 C 
ATOM      9  C   UNL     1      10.983  12.444  17.442  0.00  0.00    +0.000 C 
ATOM     10  N   UNL     1       9.610  12.234  17.898  0.00  0.00    +0.000 NA
ATOM     11  C   UNL     1       9.253  10.831  18.132  0.00  0.00    +0.000 C 
ATOM     12  C   UNL     1       9.479  10.271  19.548  0.00  0.00    +0.000 C 
ATOM     13  C   UNL     1       9.198  11.261  20.680  0.00  0.00    +0.000 C 
ATOM     14  C   UNL     1       9.838  12.615  20.364  0.00  0.00    +0.000 C 
ATOM     15  C   UNL     1       9.665  13.641  21.497  0.00  0.00    +0.000 C 
ATOM     16  N   UNL     1       8.677  14.646  21.131  0.00  0.00    +0.000 N 
ATOM     17  C   UNL     1       7.375  14.515  21.616  0.00  0.00    +0.000 C 
ATOM     18  O   UNL     1       7.084  13.774  22.558  0.00  0.00    +0.000 OA
ATOM     19  C   UNL     1       9.217  13.090  19.028  0.00  0.00    +0.000 C 
ENDROOT
BRANCH   1  25
ATOM     20  C   UNL     1       3.493  17.953  20.789  0.00  0.00    +0.000 C 
ATOM     21  C   UNL     1       3.356  16.683  20.011  0.00  0.00    +0.000 A 
ATOM     22  C   UNL     1       2.593  16.623  18.793  0.00  0.00    +0.000 A 
ATOM     23  C   UNL     1       2.604  15.379  18.209  0.00  0.00    +0.000 A 
ATOM     24  S   UNL     1       3.444  14.246  19.158  0.00  0.00    +0.000 S 
ATOM     25  C   UNL     1       3.975  15.460  20.277  0.00  0.00    +0.000 A 
ENDBRANCH   1  25
TORSDOF 1
ENDMDL
MODEL 3
REMARK VINA RESULT:      -6.3      8.537     11.697
REMARK  Name = 
REMARK  2 active torsions:
REMARK  status: ('A' for Active; 'I' for Inactive)
REMARK    1  A    between atoms: C_1  and  C_2
REMARK    2  A    between atoms: C_6  and  C_7
REMARK                            x       y       z     vdW  Elec       q    Type
REMARK                         _______ _______ _______ _____ _____    ______ ____
ROOT
ATOM      1  C   UNL     1       5.258  15.595  20.958  0.00  0.00    +0.000 C 
ATOM      2  C   UNL     1       6.573  15.670  20.615  0.00  0.00    +0.000 C 
ATOM      3  C   UNL     1       7.013  16.352  19.364  0.00  0.00    +0.000 C 
ATOM      4  C   UNL     1       8.454  16.794  19.386  0.00  0.00    +0.000 C 
ATOM      5  C   UNL     1       9.367  15.642  19.756  0.00  0.00    +0.000 C 
ATOM      6  C   UNL     1       9.654  14.682  18.564  0.00  0.00    +0.000 C 
ATOM      7  C   UNL     1      11.096  14.831  18.047  0.00  0.00    +0.000 C 
ATOM      8  C   UNL     1      11.388  13.805  16.951  0.00  0.00    +0.000 C 
ATOM      9  C   UNL     1      11.072  12.375  17.403  0.00  0.00    +0.000 C 
ATOM     10  N   UNL     1       9.686  12.282  17.859  0.00  0.00    +0.000 NA
ATOM     11  C   UNL     1       9.236  10.921  18.166  0.00  0.00    +0.000 C 
ATOM     12  C   UNL     1       9.418  10.427  19.613  0.00  0.00    +0.000 C 
ATOM     13  C   UNL     1       9.199  11.495  20.687  0.00  0.00    +0.000 C 
ATOM     14  C   UNL     1       9.929  12.783  20.302  0.00  0.00    +0.000 C 
ATOM     15  C   UNL     1       9.820  13.880  21.375  0.00  0.00    +0.000 C 
ATOM     16  N   UNL     1       8.902  14.926  20.947  0.00  0.00    +0.000 N 
ATOM     17  C   UNL     1       7.592  14.909  21.427  0.00  0.00    +0.000 C 
ATOM     18  O   UNL     1       7.249  14.242  22.407  0.00  0.00    +0.000 OA
ATOM     19  C   UNL     1       9.346  13.224  18.936  0.00  0.00    +0.000 C 
ENDROOT
BRANCH   1  25
ATOM     20  C   UNL     1       4.219  14.142  18.210  0.00  0.00    +0.000 C 
ATOM     21  C   UNL     1       3.737  15.392  18.874  0.00  0.00    +0.000 A 
ATOM     22  C   UNL     1       2.555  16.078  18.423  0.00  0.00    +0.000 A 
ATOM     23  C   UNL     1       2.258  17.191  19.171  0.00  0.00    +0.000 A 
ATOM     24  S   UNL     1       3.438  17.483  20.360  0.00  0.00    +0.000 S 
ATOM     25  C   UNL     1       4.268  16.001  20.012  0.00  0.00    +0.000 A 
ENDBRANCH   1  25
TORSDOF 1
ENDMDL
MODEL 4
REMARK VINA RESULT:      -6.1      3.620      5.873
REMARK  Name = 
REMARK  2 active torsions:
REMARK  status: ('A' for Active; 'I' for Inactive)
REMARK    1  A    between atoms: C_1  and  C_2
REMARK    2  A    between atoms: C_6  and  C_7
REMARK                            x       y       z     vdW  Elec       q    Type
REMARK                         _______ _______ _______ _____ _____    ______ ____
ROOT
ATOM      1  C   UNL     1       3.624  14.193  18.781  0.00  0.00    +0.000 C 
ATOM      2  C   UNL     1       2.318  13.938  19.070  0.00  0.00    +0.000 C 
ATOM      3  C   UNL     1       1.556  14.778  20.038  0.00  0.00    +0.000 C 
ATOM      4  C   UNL     1       0.062  14.704  19.863  0.00  0.00    +0.000 C 
ATOM      5  C   UNL     1      -0.412  13.264  19.866  0.00  0.00    +0.000 C 
ATOM      6  C   UNL     1      -0.524  12.660  21.297  0.00  0.00    +0.000 C 
ATOM      7  C   UNL     1      -1.991  12.481  21.727  0.00  0.00    +0.000 C 
ATOM      8  C   UNL     1      -2.078  11.787  23.086  0.00  0.00    +0.000 C 
ATOM      9  C   UNL     1      -1.295  10.470  23.111  0.00  0.00    +0.000 C 
ATOM     10  N   UNL     1       0.095  10.700  22.722  0.00  0.00    +0.000 NA
ATOM     11  C   UNL     1       0.969   9.531  22.864  0.00  0.00    +0.000 C 
ATOM     12  C   UNL     1       1.107   8.600  21.645  0.00  0.00    +0.000 C 
ATOM     13  C   UNL     1       1.109   9.314  20.291  0.00  0.00    +0.000 C 
ATOM     14  C   UNL     1      -0.016  10.351  20.243  0.00  0.00    +0.000 C 
ATOM     15  C   UNL     1      -0.126  11.055  18.881  0.00  0.00    +0.000 C 
ATOM     16  N   UNL     1       0.377  12.419  18.966  0.00  0.00    +0.000 N 
ATOM     17  C   UNL     1       1.675  12.685  18.529  0.00  0.00    +0.000 C 
ATOM     18  O   UNL     1       2.311  11.906  17.813  0.00  0.00    +0.000 OA
ATOM     19  C   UNL     1       0.251  11.338  21.406  0.00  0.00    +0.000 C 
ENDROOT
BRANCH   1  25
ATOM     20  C   UNL     1       4.722  14.043  21.866  0.00  0.00    +0.000 C 
ATOM     21  C   UNL     1       4.886  15.121  20.842  0.00  0.00    +0.000 A 
ATOM     22  C   UNL     1       5.750  16.249  21.066  0.00  0.00    +0.000 A 
ATOM     23  C   UNL     1       5.789  17.119  20.004  0.00  0.00    +0.000 A 
ATOM     24  S   UNL     1       4.721  16.650  18.767  0.00  0.00    +0.000 S 
ATOM     25  C   UNL     1       4.332  15.158  19.561  0.00  0.00    +0.000 A 
ENDBRANCH   1  25
TORSDOF 1
ENDMDL
MODEL 5
REMARK VINA RESULT:      -6.1      2.075      3.138
REMARK  Name = 
REMARK  2 active torsions:
REMARK  status: ('A' for Active; 'I' for Inactive)
REMARK    1  A    between atoms: C_1  and  C_2
REMARK    2  A    between atoms: C_6  and  C_7
REMARK                            x       y       z     vdW  Elec       q    Type
REMARK                         _______ _______ _______ _____ _____    ______ ____
ROOT
ATOM      1  C   UNL     1      -0.514  12.850  19.363  0.00  0.00    +0.000 C 
ATOM      2  C   UNL     1      -1.036  13.016  20.609  0.00  0.00    +0.000 C 
ATOM      3  C   UNL     1      -1.103  11.886  21.581  0.00  0.00    +0.000 C 
ATOM      4  C   UNL     1      -1.210  12.326  23.018  0.00  0.00    +0.000 C 
ATOM      5  C   UNL     1      -2.356  13.300  23.201  0.00  0.00    +0.000 C 
ATOM      6  C   UNL     1      -3.746  12.603  23.284  0.00  0.00    +0.000 C 
ATOM      7  C   UNL     1      -4.318  12.641  24.712  0.00  0.00    +0.000 C 
ATOM      8  C   UNL     1      -5.727  12.048  24.749  0.00  0.00    +0.000 C 
ATOM      9  C   UNL     1      -6.657  12.712  23.727  0.00  0.00    +0.000 C 
ATOM     10  N   UNL     1      -6.081  12.625  22.387  0.00  0.00    +0.000 NA
ATOM     11  C   UNL     1      -6.964  13.091  21.313  0.00  0.00    +0.000 C 
ATOM     12  C   UNL     1      -6.872  14.577  20.919  0.00  0.00    +0.000 C 
ATOM     13  C   UNL     1      -5.460  15.167  20.969  0.00  0.00    +0.000 C 
ATOM     14  C   UNL     1      -4.766  14.755  22.269  0.00  0.00    +0.000 C 
ATOM     15  C   UNL     1      -3.368  15.377  22.427  0.00  0.00    +0.000 C 
ATOM     16  N   UNL     1      -2.334  14.376  22.206  0.00  0.00    +0.000 N 
ATOM     17  C   UNL     1      -1.709  14.320  20.959  0.00  0.00    +0.000 C 
ATOM     18  O   UNL     1      -1.771  15.240  20.139  0.00  0.00    +0.000 OA
ATOM     19  C   UNL     1      -4.735  13.206  22.275  0.00  0.00    +0.000 C 
ENDROOT
BRANCH   1  25
ATOM     20  C   UNL     1      -2.438  10.555  18.030  0.00  0.00    +0.000 C 
ATOM     21  C   UNL     1      -0.962  10.548  18.269  0.00  0.00    +0.000 A 
ATOM     22  C   UNL     1      -0.120   9.499  17.756  0.00  0.00    +0.000 A 
ATOM     23  C   UNL     1       1.208   9.677  18.056  0.00  0.00    +0.000 A 
ATOM     24  S   UNL     1       1.454  11.046  19.034  0.00  0.00    +0.000 S 
ATOM     25  C   UNL     1      -0.206  11.532  18.907  0.00  0.00    +0.000 A 
ENDBRANCH   1  25
TORSDOF 1
ENDMDL
MODEL 6
REMARK VINA RESULT:      -6.0      9.156     12.198
REMARK  Name = 
REMARK  2 active torsions:
REMARK  status: ('A' for Active; 'I' for Inactive)
REMARK    1  A    between atoms: C_1  and  C_2
REMARK    2  A    between atoms: C_6  and  C_7
REMARK                            x       y       z     vdW  Elec       q    Type
REMARK                         _______ _______ _______ _____ _____    ______ ____
ROOT
ATOM      1  C   UNL     1       5.486  15.046  20.616  0.00  0.00    +0.000 C 
ATOM      2  C   UNL     1       6.775  15.475  20.540  0.00  0.00    +0.000 C 
ATOM      3  C   UNL     1       7.193  16.516  19.556  0.00  0.00    +0.000 C 
ATOM      4  C   UNL     1       8.466  17.230  19.931  0.00  0.00    +0.000 C 
ATOM      5  C   UNL     1       9.577  16.240  20.214  0.00  0.00    +0.000 C 
ATOM      6  C   UNL     1      10.242  15.679  18.922  0.00  0.00    +0.000 C 
ATOM      7  C   UNL     1      11.658  16.246  18.717  0.00  0.00    +0.000 C 
ATOM      8  C   UNL     1      12.331  15.601  17.506  0.00  0.00    +0.000 C 
ATOM      9  C   UNL     1      12.319  14.070  17.589  0.00  0.00    +0.000 C 
ATOM     10  N   UNL     1      10.951  13.583  17.756  0.00  0.00    +0.000 NA
ATOM     11  C   UNL     1      10.812  12.124  17.690  0.00  0.00    +0.000 C 
ATOM     12  C   UNL     1      10.921  11.344  19.013  0.00  0.00    +0.000 C 
ATOM     13  C   UNL     1      10.311  12.050  20.225  0.00  0.00    +0.000 C 
ATOM     14  C   UNL     1      10.747  13.516  20.253  0.00  0.00    +0.000 C 
ATOM     15  C   UNL     1      10.235  14.272  21.491  0.00  0.00    +0.000 C 
ATOM     16  N   UNL     1       9.153  15.176  21.128  0.00  0.00    +0.000 N 
ATOM     17  C   UNL     1       7.836  14.770  21.349  0.00  0.00    +0.000 C 
ATOM     18  O   UNL     1       7.543  13.829  22.091  0.00  0.00    +0.000 OA
ATOM     19  C   UNL     1      10.255  14.142  18.925  0.00  0.00    +0.000 C 
ENDROOT
BRANCH   1  25
ATOM     20  C   UNL     1       3.455  17.617  20.511  0.00  0.00    +0.000 C 
ATOM     21  C   UNL     1       3.729  16.570  19.479  0.00  0.00    +0.000 A 
ATOM     22  C   UNL     1       3.197  16.668  18.146  0.00  0.00    +0.000 A 
ATOM     23  C   UNL     1       3.577  15.626  17.335  0.00  0.00    +0.000 A 
ATOM     24  S   UNL     1       4.492  14.471  18.182  0.00  0.00    +0.000 S 
ATOM     25  C   UNL     1       4.557  15.454  19.610  0.00  0.00    +0.000 A 
ENDBRANCH   1  25
TORSDOF 1
ENDMDL
MODEL 7
REMARK VINA RESULT:      -6.0      2.831      6.387
REMARK  Name = 
REMARK  2 active torsions:
REMARK  status: ('A' for Active; 'I' for Inactive)
REMARK    1  A    between atoms: C_1  and  C_2
REMARK    2  A    between atoms: C_6  and  C_7
REMARK                            x       y       z     vdW  Elec       q    Type
REMARK                         _______ _______ _______ _____ _____    ______ ____
ROOT
ATOM      1  C   UNL     1      -5.675  12.696  21.848  0.00  0.00    +0.000 C 
ATOM      2  C   UNL     1      -4.433  13.245  21.757  0.00  0.00    +0.000 C 
ATOM      3  C   UNL     1      -4.059  14.142  20.625  0.00  0.00    +0.000 C 
ATOM      4  C   UNL     1      -2.891  15.045  20.925  0.00  0.00    +0.000 C 
ATOM      5  C   UNL     1      -1.706  14.246  21.430  0.00  0.00    +0.000 C 
ATOM      6  C   UNL     1      -0.907  13.549  20.290  0.00  0.00    +0.000 C 
ATOM      7  C   UNL     1       0.455  14.224  20.053  0.00  0.00    +0.000 C 
ATOM      8  C   UNL     1       1.266  13.460  19.007  0.00  0.00    +0.000 C 
ATOM      9  C   UNL     1       1.402  11.974  19.359  0.00  0.00    +0.000 C 
ATOM     10  N   UNL     1       0.082  11.375  19.547  0.00  0.00    +0.000 NA
ATOM     11  C   UNL     1       0.094   9.920  19.733  0.00  0.00    +0.000 C 
ATOM     12  C   UNL     1       0.196   9.394  21.177  0.00  0.00    +0.000 C 
ATOM     13  C   UNL     1      -0.559  10.226  22.216  0.00  0.00    +0.000 C 
ATOM     14  C   UNL     1      -0.275  11.714  22.004  0.00  0.00    +0.000 C 
ATOM     15  C   UNL     1      -0.938  12.610  23.063  0.00  0.00    +0.000 C 
ATOM     16  N   UNL     1      -2.080  13.314  22.497  0.00  0.00    +0.000 N 
ATOM     17  C   UNL     1      -3.361  12.809  22.726  0.00  0.00    +0.000 C 
ATOM     18  O   UNL     1      -3.605  11.983  23.609  0.00  0.00    +0.000 OA
ATOM     19  C   UNL     1      -0.740  12.046  20.565  0.00  0.00    +0.000 C 
ENDROOT
BRANCH   1  25
ATOM     20  C   UNL     1      -7.733  15.118  21.044  0.00  0.00    +0.000 C 
ATOM     21  C   UNL     1      -7.410  13.853  20.315  0.00  0.00    +0.000 A 
ATOM     22  C   UNL     1      -7.896  13.605  18.983  0.00  0.00    +0.000 A 
ATOM     23  C   UNL     1      -7.476  12.403  18.470  0.00  0.00    +0.000 A 
ATOM     24  S   UNL     1      -6.576  11.514  19.606  0.00  0.00    +0.000 S 
ATOM     25  C   UNL     1      -6.573  12.822  20.744  0.00  0.00    +0.000 A 
ENDBRANCH   1  25
TORSDOF 1
ENDMDL
MODEL 8
REMARK VINA RESULT:      -6.0      3.603      6.301
REMARK  Name = 
REMARK  2 active torsions:
REMARK  status: ('A' for Active; 'I' for Inactive)
REMARK    1  A    between atoms: C_1  and  C_2
REMARK    2  A    between atoms: C_6  and  C_7
REMARK                            x       y       z     vdW  Elec       q    Type
REMARK                         _______ _______ _______ _____ _____    ______ ____
ROOT
ATOM      1  C   UNL     1       2.165  15.350  20.000  0.00  0.00    +0.000 C 
ATOM      2  C   UNL     1       1.768  14.069  19.768  0.00  0.00    +0.000 C 
ATOM      3  C   UNL     1       1.748  13.497  18.391  0.00  0.00    +0.000 C 
ATOM      4  C   UNL     1       1.791  11.991  18.357  0.00  0.00    +0.000 C 
ATOM      5  C   UNL     1       0.704  11.400  19.232  0.00  0.00    +0.000 C 
ATOM      6  C   UNL     1      -0.698  11.401  18.553  0.00  0.00    +0.000 C 
ATOM      7  C   UNL     1      -1.134   9.982  18.144  0.00  0.00    +0.000 C 
ATOM      8  C   UNL     1      -2.554   9.992  17.579  0.00  0.00    +0.000 C 
ATOM      9  C   UNL     1      -3.549  10.658  18.536  0.00  0.00    +0.000 C 
ATOM     10  N   UNL     1      -3.103  12.009  18.872  0.00  0.00    +0.000 NA
ATOM     11  C   UNL     1      -4.063  12.790  19.658  0.00  0.00    +0.000 C 
ATOM     12  C   UNL     1      -3.952  12.708  21.192  0.00  0.00    +0.000 C 
ATOM     13  C   UNL     1      -2.521  12.616  21.726  0.00  0.00    +0.000 C 
ATOM     14  C   UNL     1      -1.725  11.586  20.922  0.00  0.00    +0.000 C 
ATOM     15  C   UNL     1      -0.297  11.381  21.453  0.00  0.00    +0.000 C 
ATOM     16  N   UNL     1       0.675  12.005  20.566  0.00  0.00    +0.000 N 
ATOM     17  C   UNL     1       1.179  13.263  20.901  0.00  0.00    +0.000 C 
ATOM     18  O   UNL     1       1.076  13.745  22.032  0.00  0.00    +0.000 OA
ATOM     19  C   UNL     1      -1.752  12.067  19.450  0.00  0.00    +0.000 C 
ENDROOT
BRANCH   1  25
ATOM     20  C   UNL     1       4.677  15.543  17.902  0.00  0.00    +0.000 C 
ATOM     21  C   UNL     1       3.386  16.299  17.925  0.00  0.00    +0.000 A 
ATOM     22  C   UNL     1       3.002  17.168  16.843  0.00  0.00    +0.000 A 
ATOM     23  C   UNL     1       1.775  17.755  17.033  0.00  0.00    +0.000 A 
ATOM     24  S   UNL     1       1.111  17.353  18.546  0.00  0.00    +0.000 S 
ATOM     25  C   UNL     1       2.381  16.222  18.889  0.00  0.00    +0.000 A 
ENDBRANCH   1  25
TORSDOF 1
ENDMDL
MODEL 9
REMARK VINA RESULT:      -5.9      3.702      6.506
REMARK  Name = 
REMARK  2 active torsions:
REMARK  status: ('A' for Active; 'I' for Inactive)
REMARK    1  A    between atoms: C_1  and  C_2
REMARK    2  A    between atoms: C_6  and  C_7
REMARK                            x       y       z     vdW  Elec       q    Type
REMARK                         _______ _______ _______ _____ _____    ______ ____
ROOT
ATOM      1  C   UNL     1       0.363  16.307  19.847  0.00  0.00    +0.000 C 
ATOM      2  C   UNL     1       0.289  14.956  19.695  0.00  0.00    +0.000 C 
ATOM      3  C   UNL     1       0.658  14.296  18.409  0.00  0.00    +0.000 C 
ATOM      4  C   UNL     1       1.014  12.839  18.554  0.00  0.00    +0.000 C 
ATOM      5  C   UNL     1      -0.080  12.086  19.284  0.00  0.00    +0.000 C 
ATOM      6  C   UNL     1      -1.290  11.726  18.372  0.00  0.00    +0.000 C 
ATOM      7  C   UNL     1      -1.337  10.221  18.056  0.00  0.00    +0.000 C 
ATOM      8  C   UNL     1      -2.589   9.874  17.251  0.00  0.00    +0.000 C 
ATOM      9  C   UNL     1      -3.868  10.370  17.936  0.00  0.00    +0.000 C 
ATOM     10  N   UNL     1      -3.783  11.806  18.190  0.00  0.00    +0.000 NA
ATOM     11  C   UNL     1      -5.018  12.409  18.701  0.00  0.00    +0.000 C 
ATOM     12  C   UNL     1      -5.197  12.464  20.229  0.00  0.00    +0.000 C 
ATOM     13  C   UNL     1      -3.912  12.732  21.015  0.00  0.00    +0.000 C 
ATOM     14  C   UNL     1      -2.780  11.849  20.486  0.00  0.00    +0.000 C 
ATOM     15  C   UNL     1      -1.473  12.006  21.281  0.00  0.00    +0.000 C 
ATOM     16  N   UNL     1      -0.494  12.765  20.515  0.00  0.00    +0.000 N 
ATOM     17  C   UNL     1      -0.334  14.124  20.789  0.00  0.00    +0.000 C 
ATOM     18  O   UNL     1      -0.754  14.651  21.823  0.00  0.00    +0.000 OA
ATOM     19  C   UNL     1      -2.613  12.205  18.988  0.00  0.00    +0.000 C 
ENDROOT
BRANCH   1  25
ATOM     20  C   UNL     1       3.145  16.907  18.222  0.00  0.00    +0.000 C 
ATOM     21  C   UNL     1       1.749  17.354  17.928  0.00  0.00    +0.000 A 
ATOM     22  C   UNL     1       1.416  18.033  16.704  0.00  0.00    +0.000 A 
ATOM     23  C   UNL     1       0.081  18.343  16.604  0.00  0.00    +0.000 A 
ATOM     24  S   UNL     1      -0.772  17.912  18.010  0.00  0.00    +0.000 S 
ATOM     25  C   UNL     1       0.609  17.123  18.701  0.00  0.00    +0.000 A 
ENDBRANCH   1  25
TORSDOF 1
ENDMDL
