MODEL 1
REMARK VINA RESULT:      -6.4      0.000      0.000
REMARK  Name = 
REMARK  6 active torsions:
REMARK  status: ('A' for Active; 'I' for Inactive)
REMARK    1  A    between atoms: C_2  and  C_3
REMARK    2  A    between atoms: C_3  and  C_4
REMARK    3  A    between atoms: C_4  and  N_5
REMARK    4  A    between atoms: N_7  and  C_8
REMARK    5  A    between atoms: C_10  and  C_11
REMARK    6  A    between atoms: N_18  and  C_19
REMARK                            x       y       z     vdW  Elec       q    Type
REMARK                         _______ _______ _______ _____ _____    ______ ____
ROOT
ATOM      1  N   UNL     1      -4.826  11.953  18.596  0.00  0.00    +0.000 N 
ATOM      2  C   UNL     1      -3.583  11.484  19.065  0.00  0.00    +0.000 A 
ATOM      3  N   UNL     1      -3.152  11.883  20.327  0.00  0.00    +0.000 N 
ATOM      4  N   UNL     1      -2.770  10.738  18.360  0.00  0.00    +0.000 NA
ATOM      5  C   UNL     1      -3.129  10.525  17.039  0.00  0.00    +0.000 A 
ATOM      6  C   UNL     1      -2.439   9.793  16.053  0.00  0.00    +0.000 A 
ATOM      7  C   UNL     1      -3.106  10.006  14.858  0.00  0.00    +0.000 A 
ATOM      8  N   UNL     1      -4.169  10.859  15.126  0.00  0.00    +0.000 N 
ATOM      9  C   UNL     1      -4.202  11.138  16.471  0.00  0.00    +0.000 A 
ATOM     10  C   UNL     1      -5.106  11.946  17.218  0.00  0.00    +0.000 A 
ATOM     11  O   UNL     1      -5.990  12.614  16.687  0.00  0.00    +0.000 OA
ATOM     12  H   UNL     1      -3.838  11.685  21.045  0.00  0.00    +0.000 HD
ATOM     13  H   UNL     1      -4.810  11.235  14.439  0.00  0.00    +0.000 HD
ENDROOT
BRANCH   3  14
ATOM     14  C   UNL     1      -2.600  13.252  20.479  0.00  0.00    +0.000 C 
ATOM     15  C   UNL     1      -1.125  13.327  20.054  0.00  0.00    +0.000 C 
ATOM     16  C   UNL     1      -0.135  13.155  21.213  0.00  0.00    +0.000 C 
ATOM     17  C   UNL     1      -0.489  14.174  22.309  0.00  0.00    +0.000 C 
ATOM     18  N   UNL     1      -1.825  14.007  22.873  0.00  0.00    +0.000 NA
ATOM     19  C   UNL     1      -2.101  15.020  23.895  0.00  0.00    +0.000 C 
ATOM     20  C   UNL     1      -2.905  13.893  21.878  0.00  0.00    +0.000 C 
BRANCH  16  21
ATOM     21  C   UNL     1       0.020  11.666  21.531  0.00  0.00    +0.000 A 
ATOM     22  C   UNL     1       0.415  10.818  20.480  0.00  0.00    +0.000 A 
ATOM     23  C   UNL     1       0.204   9.439  20.541  0.00  0.00    +0.000 A 
ATOM     24  C   UNL     1      -0.405   8.880  21.657  0.00  0.00    +0.000 A 
ATOM     25  C   UNL     1      -0.722   9.688  22.745  0.00  0.00    +0.000 A 
ATOM     26  C   UNL     1      -0.473  11.067  22.699  0.00  0.00    +0.000 A 
ENDBRANCH  16  21
ENDBRANCH   3  14
BRANCH   1  27
ATOM     27  C   UNL     1      -5.725  12.747  19.442  0.00  0.00    +0.000 C 
BRANCH  27  28
ATOM     28  C   UNL     1      -7.079  12.114  19.802  0.00  0.00    +0.000 C 
BRANCH  28  30
ATOM     29  C   UNL     1      -7.160   9.515  19.675  0.00  0.00    +0.000 C 
ATOM     30  C   UNL     1      -7.166  10.695  20.309  0.00  0.00    +0.000 C 
ENDBRANCH  28  30
ENDBRANCH  27  28
ENDBRANCH   1  27
TORSDOF 5
ENDMDL
MODEL 2
REMARK VINA RESULT:      -6.3      1.085      1.280
REMARK  Name = 
REMARK  6 active torsions:
REMARK  status: ('A' for Active; 'I' for Inactive)
REMARK    1  A    between atoms: C_2  and  C_3
REMARK    2  A    between atoms: C_3  and  C_4
REMARK    3  A    between atoms: C_4  and  N_5
REMARK    4  A    between atoms: N_7  and  C_8
REMARK    5  A    between atoms: C_10  and  C_11
REMARK    6  A    between atoms: N_18  and  C_19
REMARK                            x       y       z     vdW  Elec       q    Type
REMARK                         _______ _______ _______ _____ _____    ______ ____
ROOT
ATOM      1  N   UNL     1      -4.382  11.942  18.568  0.00  0.00    +0.000 N 
ATOM      2  C   UNL     1      -3.041  11.569  18.778  0.00  0.00    +0.000 A 
ATOM      3  N   UNL     1      -2.389  12.035  19.917  0.00  0.00    +0.000 N 
ATOM      4  N   UNL     1      -2.339  10.856  17.934  0.00  0.00    +0.000 NA
ATOM      5  C   UNL     1      -2.945  10.578  16.719  0.00  0.00    +0.000 A 
ATOM      6  C   UNL     1      -2.422   9.862  15.625  0.00  0.00    +0.000 A 
ATOM      7  C   UNL     1      -3.332   9.994  14.590  0.00  0.00    +0.000 A 
ATOM      8  N   UNL     1      -4.375  10.784  15.057  0.00  0.00    +0.000 N 
ATOM      9  C   UNL     1      -4.151  11.102  16.374  0.00  0.00    +0.000 A 
ATOM     10  C   UNL     1      -4.937  11.873  17.277  0.00  0.00    +0.000 A 
ATOM     11  O   UNL     1      -5.956  12.465  16.928  0.00  0.00    +0.000 OA
ATOM     12  H   UNL     1      -2.899  11.815  20.765  0.00  0.00    +0.000 HD
ATOM     13  H   UNL     1      -5.168  11.096  14.510  0.00  0.00    +0.000 HD
ENDROOT
BRANCH   3  14
ATOM     14  C   UNL     1      -1.915  13.441  19.928  0.00  0.00    +0.000 C 
ATOM     15  C   UNL     1      -0.688  13.640  19.023  0.00  0.00    +0.000 C 
ATOM     16  C   UNL     1       0.652  13.528  19.760  0.00  0.00    +0.000 C 
ATOM     17  C   UNL     1       0.632  14.498  20.954  0.00  0.00    +0.000 C 
ATOM     18  N   UNL     1      -0.409  14.215  21.937  0.00  0.00    +0.000 NA
ATOM     19  C   UNL     1      -0.381  15.186  23.034  0.00  0.00    +0.000 C 
ATOM     20  C   UNL     1      -1.757  14.032  21.373  0.00  0.00    +0.000 C 
BRANCH  16  21
ATOM     21  C   UNL     1       1.010  12.052  19.940  0.00  0.00    +0.000 A 
ATOM     22  C   UNL     1       1.155  11.275  18.776  0.00  0.00    +0.000 A 
ATOM     23  C   UNL     1       1.082   9.882  18.819  0.00  0.00    +0.000 A 
ATOM     24  C   UNL     1       0.864   9.236  20.029  0.00  0.00    +0.000 A 
ATOM     25  C   UNL     1       0.808   9.979  21.204  0.00  0.00    +0.000 A 
ATOM     26  C   UNL     1       0.922  11.376  21.166  0.00  0.00    +0.000 A 
ENDBRANCH  16  21
ENDBRANCH   3  14
BRANCH   1  27
ATOM     27  C   UNL     1      -5.143  12.702  19.567  0.00  0.00    +0.000 C 
BRANCH  27  28
ATOM     28  C   UNL     1      -6.059  11.896  20.503  0.00  0.00    +0.000 C 
BRANCH  28  30
ATOM     29  C   UNL     1      -7.207   9.636  19.913  0.00  0.00    +0.000 C 
ATOM     30  C   UNL     1      -7.117  10.971  19.952  0.00  0.00    +0.000 C 
ENDBRANCH  28  30
ENDBRANCH  27  28
ENDBRANCH   1  27
TORSDOF 5
ENDMDL
MODEL 3
REMARK VINA RESULT:      -6.2      4.275      7.273
REMARK  Name = 
REMARK  6 active torsions:
REMARK  status: ('A' for Active; 'I' for Inactive)
REMARK    1  A    between atoms: C_2  and  C_3
REMARK    2  A    between atoms: C_3  and  C_4
REMARK    3  A    between atoms: C_4  and  N_5
REMARK    4  A    between atoms: N_7  and  C_8
REMARK    5  A    between atoms: C_10  and  C_11
REMARK    6  A    between atoms: N_18  and  C_19
REMARK                            x       y       z     vdW  Elec       q    Type
REMARK                         _______ _______ _______ _____ _____    ______ ____
ROOT
ATOM      1  N   UNL     1      -0.150  11.959  20.322  0.00  0.00    +0.000 N 
ATOM      2  C   UNL     1      -0.305  13.317  19.983  0.00  0.00    +0.000 A 
ATOM      3  N   UNL     1       0.656  13.917  19.175  0.00  0.00    +0.000 N 
ATOM      4  N   UNL     1      -1.272  14.077  20.432  0.00  0.00    +0.000 NA
ATOM      5  C   UNL     1      -2.096  13.512  21.393  0.00  0.00    +0.000 A 
ATOM      6  C   UNL     1      -3.187  14.098  22.063  0.00  0.00    +0.000 A 
ATOM      7  C   UNL     1      -3.584  13.200  23.040  0.00  0.00    +0.000 A 
ATOM      8  N   UNL     1      -2.737  12.102  22.959  0.00  0.00    +0.000 N 
ATOM      9  C   UNL     1      -1.856  12.281  21.920  0.00  0.00    +0.000 A 
ATOM     10  C   UNL     1      -0.818  11.433  21.443  0.00  0.00    +0.000 A 
ATOM     11  O   UNL     1      -0.506  10.386  22.006  0.00  0.00    +0.000 OA
ATOM     12  H   UNL     1       0.802  13.407  18.312  0.00  0.00    +0.000 HD
ATOM     13  H   UNL     1      -2.750  11.302  23.578  0.00  0.00    +0.000 HD
ENDROOT
BRANCH   3  14
ATOM     14  C   UNL     1       1.949  14.304  19.792  0.00  0.00    +0.000 C 
ATOM     15  C   UNL     1       1.909  15.730  20.363  0.00  0.00    +0.000 C 
ATOM     16  C   UNL     1       2.428  16.802  19.396  0.00  0.00    +0.000 C 
ATOM     17  C   UNL     1       3.833  16.391  18.924  0.00  0.00    +0.000 C 
ATOM     18  N   UNL     1       3.875  15.122  18.203  0.00  0.00    +0.000 NA
ATOM     19  C   UNL     1       5.243  14.785  17.801  0.00  0.00    +0.000 C 
ATOM     20  C   UNL     1       3.187  14.007  18.876  0.00  0.00    +0.000 C 
BRANCH  16  21
ATOM     21  C   UNL     1       1.326  17.158  18.397  0.00  0.00    +0.000 A 
ATOM     22  C   UNL     1       1.716  17.795  17.204  0.00  0.00    +0.000 A 
ATOM     23  C   UNL     1       0.800  18.508  16.428  0.00  0.00    +0.000 A 
ATOM     24  C   UNL     1      -0.527  18.597  16.829  0.00  0.00    +0.000 A 
ATOM     25  C   UNL     1      -0.953  17.900  17.956  0.00  0.00    +0.000 A 
ATOM     26  C   UNL     1      -0.040  17.151  18.713  0.00  0.00    +0.000 A 
ENDBRANCH  16  21
ENDBRANCH   3  14
BRANCH   1  27
ATOM     27  C   UNL     1       0.924  11.135  19.753  0.00  0.00    +0.000 C 
BRANCH  27  28
ATOM     28  C   UNL     1       0.545  10.213  18.582  0.00  0.00    +0.000 C 
BRANCH  28  30
ATOM     29  C   UNL     1       2.359   8.396  18.157  0.00  0.00    +0.000 C 
ATOM     30  C   UNL     1       1.599   9.446  17.821  0.00  0.00    +0.000 C 
ENDBRANCH  28  30
ENDBRANCH  27  28
ENDBRANCH   1  27
TORSDOF 5
ENDMDL
MODEL 4
REMARK VINA RESULT:      -6.1      0.998      1.258
REMARK  Name = 
REMARK  6 active torsions:
REMARK  status: ('A' for Active; 'I' for Inactive)
REMARK    1  A    between atoms: C_2  and  C_3
REMARK    2  A    between atoms: C_3  and  C_4
REMARK    3  A    between atoms: C_4  and  N_5
REMARK    4  A    between atoms: N_7  and  C_8
REMARK    5  A    between atoms: C_10  and  C_11
REMARK    6  A    between atoms: N_18  and  C_19
REMARK                            x       y       z     vdW  Elec       q    Type
REMARK                         _______ _______ _______ _____ _____    ______ ____
ROOT
ATOM      1  N   UNL     1      -5.088  12.238  18.748  0.00  0.00    +0.000 N 
ATOM      2  C   UNL     1      -3.811  11.952  19.267  0.00  0.00    +0.000 A 
ATOM      3  N   UNL     1      -3.460  12.483  20.505  0.00  0.00    +0.000 N 
ATOM      4  N   UNL     1      -2.899  11.263  18.629  0.00  0.00    +0.000 NA
ATOM      5  C   UNL     1      -3.199  10.920  17.320  0.00  0.00    +0.000 A 
ATOM      6  C   UNL     1      -2.404  10.212  16.398  0.00  0.00    +0.000 A 
ATOM      7  C   UNL     1      -3.062  10.264  15.181  0.00  0.00    +0.000 A 
ATOM      8  N   UNL     1      -4.225  11.001  15.372  0.00  0.00    +0.000 N 
ATOM      9  C   UNL     1      -4.322  11.362  16.694  0.00  0.00    +0.000 A 
ATOM     10  C   UNL     1      -5.332  12.105  17.369  0.00  0.00    +0.000 A 
ATOM     11  O   UNL     1      -6.275  12.627  16.779  0.00  0.00    +0.000 OA
ATOM     12  H   UNL     1      -4.136  12.253  21.225  0.00  0.00    +0.000 HD
ATOM     13  H   UNL     1      -4.888  11.251  14.651  0.00  0.00    +0.000 HD
ENDROOT
BRANCH   3  14
ATOM     14  C   UNL     1      -3.076  13.914  20.571  0.00  0.00    +0.000 C 
ATOM     15  C   UNL     1      -1.589  14.126  20.245  0.00  0.00    +0.000 C 
ATOM     16  C   UNL     1      -0.681  14.166  21.481  0.00  0.00    +0.000 C 
ATOM     17  C   UNL     1      -1.231  15.223  22.453  0.00  0.00    +0.000 C 
ATOM     18  N   UNL     1      -2.581  14.948  22.936  0.00  0.00    +0.000 NA
ATOM     19  C   UNL     1      -3.047  16.002  23.840  0.00  0.00    +0.000 C 
ATOM     20  C   UNL     1      -3.559  14.627  21.883  0.00  0.00    +0.000 C 
BRANCH  16  21
ATOM     21  C   UNL     1      -0.389  12.737  21.942  0.00  0.00    +0.000 A 
ATOM     22  C   UNL     1       0.370  11.922  21.080  0.00  0.00    +0.000 A 
ATOM     23  C   UNL     1       0.357  10.532  21.199  0.00  0.00    +0.000 A 
ATOM     24  C   UNL     1      -0.413   9.926  22.183  0.00  0.00    +0.000 A 
ATOM     25  C   UNL     1      -1.099  10.716  23.101  0.00  0.00    +0.000 A 
ATOM     26  C   UNL     1      -1.054  12.114  23.007  0.00  0.00    +0.000 A 
ENDBRANCH  16  21
ENDBRANCH   3  14
BRANCH   1  27
ATOM     27  C   UNL     1      -6.094  12.974  19.522  0.00  0.00    +0.000 C 
BRANCH  27  28
ATOM     28  C   UNL     1      -7.202  12.142  20.190  0.00  0.00    +0.000 C 
BRANCH  28  30
ATOM     29  C   UNL     1      -6.716  12.761  22.671  0.00  0.00    +0.000 C 
ATOM     30  C   UNL     1      -7.359  12.114  21.691  0.00  0.00    +0.000 C 
ENDBRANCH  28  30
ENDBRANCH  27  28
ENDBRANCH   1  27
TORSDOF 5
ENDMDL
MODEL 5
REMARK VINA RESULT:      -6.1      1.954      4.990
REMARK  Name = 
REMARK  6 active torsions:
REMARK  status: ('A' for Active; 'I' for Inactive)
REMARK    1  A    between atoms: C_2  and  C_3
REMARK    2  A    between atoms: C_3  and  C_4
REMARK    3  A    between atoms: C_4  and  N_5
REMARK    4  A    between atoms: N_7  and  C_8
REMARK    5  A    between atoms: C_10  and  C_11
REMARK    6  A    between atoms: N_18  and  C_19
REMARK                            x       y       z     vdW  Elec       q    Type
REMARK                         _______ _______ _______ _____ _____    ______ ____
ROOT
ATOM      1  N   UNL     1      -4.890  11.937  18.984  0.00  0.00    +0.000 N 
ATOM      2  C   UNL     1      -4.153  12.668  19.935  0.00  0.00    +0.000 A 
ATOM      3  N   UNL     1      -2.822  12.970  19.660  0.00  0.00    +0.000 N 
ATOM      4  N   UNL     1      -4.623  13.034  21.101  0.00  0.00    +0.000 NA
ATOM      5  C   UNL     1      -5.877  12.547  21.433  0.00  0.00    +0.000 A 
ATOM      6  C   UNL     1      -6.610  12.754  22.617  0.00  0.00    +0.000 A 
ATOM      7  C   UNL     1      -7.724  11.934  22.546  0.00  0.00    +0.000 A 
ATOM      8  N   UNL     1      -7.651  11.243  21.343  0.00  0.00    +0.000 N 
ATOM      9  C   UNL     1      -6.540  11.655  20.648  0.00  0.00    +0.000 A 
ATOM     10  C   UNL     1      -6.053  11.249  19.372  0.00  0.00    +0.000 A 
ATOM     11  O   UNL     1      -6.571  10.342  18.725  0.00  0.00    +0.000 OA
ATOM     12  H   UNL     1      -2.714  13.441  18.769  0.00  0.00    +0.000 HD
ATOM     13  H   UNL     1      -8.300  10.532  21.032  0.00  0.00    +0.000 HD
ENDROOT
BRANCH   3  14
ATOM     14  C   UNL     1      -1.811  11.896  19.823  0.00  0.00    +0.000 C 
ATOM     15  C   UNL     1      -1.459  11.657  21.299  0.00  0.00    +0.000 C 
ATOM     16  C   UNL     1      -0.228  12.435  21.779  0.00  0.00    +0.000 C 
ATOM     17  C   UNL     1       0.944  12.122  20.833  0.00  0.00    +0.000 C 
ATOM     18  N   UNL     1       0.714  12.517  19.446  0.00  0.00    +0.000 NA
ATOM     19  C   UNL     1       1.860  12.172  18.600  0.00  0.00    +0.000 C 
ATOM     20  C   UNL     1      -0.568  12.065  18.880  0.00  0.00    +0.000 C 
BRANCH  16  21
ATOM     21  C   UNL     1      -0.631  13.877  22.096  0.00  0.00    +0.000 A 
ATOM     22  C   UNL     1      -1.696  14.067  22.996  0.00  0.00    +0.000 A 
ATOM     23  C   UNL     1      -2.394  15.275  23.049  0.00  0.00    +0.000 A 
ATOM     24  C   UNL     1      -2.040  16.319  22.204  0.00  0.00    +0.000 A 
ATOM     25  C   UNL     1      -0.934  16.183  21.370  0.00  0.00    +0.000 A 
ATOM     26  C   UNL     1      -0.208  14.983  21.346  0.00  0.00    +0.000 A 
ENDBRANCH  16  21
ENDBRANCH   3  14
BRANCH   1  27
ATOM     27  C   UNL     1      -4.334  11.592  17.669  0.00  0.00    +0.000 C 
BRANCH  27  28
ATOM     28  C   UNL     1      -3.651  10.220  17.543  0.00  0.00    +0.000 C 
BRANCH  28  30
ATOM     29  C   UNL     1      -2.920  10.335  15.048  0.00  0.00    +0.000 C 
ATOM     30  C   UNL     1      -2.906   9.832  16.289  0.00  0.00    +0.000 C 
ENDBRANCH  28  30
ENDBRANCH  27  28
ENDBRANCH   1  27
TORSDOF 5
ENDMDL
MODEL 6
REMARK VINA RESULT:      -6.1      2.023      5.148
REMARK  Name = 
REMARK  6 active torsions:
REMARK  status: ('A' for Active; 'I' for Inactive)
REMARK    1  A    between atoms: C_2  and  C_3
REMARK    2  A    between atoms: C_3  and  C_4
REMARK    3  A    between atoms: C_4  and  N_5
REMARK    4  A    between atoms: N_7  and  C_8
REMARK    5  A    between atoms: C_10  and  C_11
REMARK    6  A    between atoms: N_18  and  C_19
REMARK                            x       y       z     vdW  Elec       q    Type
REMARK                         _______ _______ _______ _____ _____    ______ ____
ROOT
ATOM      1  N   UNL     1      -4.837  11.404  18.681  0.00  0.00    +0.000 N 
ATOM      2  C   UNL     1      -4.066  12.373  19.351  0.00  0.00    +0.000 A 
ATOM      3  N   UNL     1      -2.700  12.437  19.090  0.00  0.00    +0.000 N 
ATOM      4  N   UNL     1      -4.542  13.188  20.258  0.00  0.00    +0.000 NA
ATOM      5  C   UNL     1      -5.855  12.969  20.645  0.00  0.00    +0.000 A 
ATOM      6  C   UNL     1      -6.610  13.666  21.608  0.00  0.00    +0.000 A 
ATOM      7  C   UNL     1      -7.802  12.977  21.756  0.00  0.00    +0.000 A 
ATOM      8  N   UNL     1      -7.753  11.881  20.903  0.00  0.00    +0.000 N 
ATOM      9  C   UNL     1      -6.576  11.907  20.195  0.00  0.00    +0.000 A 
ATOM     10  C   UNL     1      -6.083  11.013  19.203  0.00  0.00    +0.000 A 
ATOM     11  O   UNL     1      -6.667   9.976  18.898  0.00  0.00    +0.000 OA
ATOM     12  H   UNL     1      -2.504  12.528  18.100  0.00  0.00    +0.000 HD
ATOM     13  H   UNL     1      -8.461  11.163  20.826  0.00  0.00    +0.000 HD
ENDROOT
BRANCH   3  14
ATOM     14  C   UNL     1      -1.818  11.422  19.717  0.00  0.00    +0.000 C 
ATOM     15  C   UNL     1      -1.278  11.891  21.077  0.00  0.00    +0.000 C 
ATOM     16  C   UNL     1       0.100  12.561  21.002  0.00  0.00    +0.000 C 
ATOM     17  C   UNL     1       1.064  11.606  20.279  0.00  0.00    +0.000 C 
ATOM     18  N   UNL     1       0.678  11.291  18.906  0.00  0.00    +0.000 NA
ATOM     19  C   UNL     1       1.629  10.364  18.287  0.00  0.00    +0.000 C 
ATOM     20  C   UNL     1      -0.722  10.864  18.743  0.00  0.00    +0.000 C 
BRANCH  16  21
ATOM     21  C   UNL     1      -0.067  14.013  20.553  0.00  0.00    +0.000 A 
ATOM     22  C   UNL     1      -1.040  14.787  21.214  0.00  0.00    +0.000 A 
ATOM     23  C   UNL     1      -1.548  15.956  20.645  0.00  0.00    +0.000 A 
ATOM     24  C   UNL     1      -1.091  16.378  19.402  0.00  0.00    +0.000 A 
ATOM     25  C   UNL     1      -0.066  15.677  18.774  0.00  0.00    +0.000 A 
ATOM     26  C   UNL     1       0.472  14.525  19.365  0.00  0.00    +0.000 A 
ENDBRANCH  16  21
ENDBRANCH   3  14
BRANCH   1  27
ATOM     27  C   UNL     1      -4.267  10.545  17.636  0.00  0.00    +0.000 C 
BRANCH  27  28
ATOM     28  C   UNL     1      -4.101  11.168  16.240  0.00  0.00    +0.000 C 
BRANCH  28  30
ATOM     29  C   UNL     1      -3.049  10.028  14.150  0.00  0.00    +0.000 C 
ATOM     30  C   UNL     1      -3.011  10.706  15.304  0.00  0.00    +0.000 C 
ENDBRANCH  28  30
ENDBRANCH  27  28
ENDBRANCH   1  27
TORSDOF 5
ENDMDL
MODEL 7
REMARK VINA RESULT:      -6.1      0.463      1.014
REMARK  Name = 
REMARK  6 active torsions:
REMARK  status: ('A' for Active; 'I' for Inactive)
REMARK    1  A    between atoms: C_2  and  C_3
REMARK    2  A    between atoms: C_3  and  C_4
REMARK    3  A    between atoms: C_4  and  N_5
REMARK    4  A    between atoms: N_7  and  C_8
REMARK    5  A    between atoms: C_10  and  C_11
REMARK    6  A    between atoms: N_18  and  C_19
REMARK                            x       y       z     vdW  Elec       q    Type
REMARK                         _______ _______ _______ _____ _____    ______ ____
ROOT
ATOM      1  N   UNL     1      -4.962  12.120  18.501  0.00  0.00    +0.000 N 
ATOM      2  C   UNL     1      -3.752  11.581  18.980  0.00  0.00    +0.000 A 
ATOM      3  N   UNL     1      -3.326  11.929  20.259  0.00  0.00    +0.000 N 
ATOM      4  N   UNL     1      -2.963  10.813  18.273  0.00  0.00    +0.000 NA
ATOM      5  C   UNL     1      -3.307  10.648  16.940  0.00  0.00    +0.000 A 
ATOM      6  C   UNL     1      -2.634   9.906  15.949  0.00  0.00    +0.000 A 
ATOM      7  C   UNL     1      -3.268  10.179  14.748  0.00  0.00    +0.000 A 
ATOM      8  N   UNL     1      -4.294  11.076  15.018  0.00  0.00    +0.000 N 
ATOM      9  C   UNL     1      -4.338  11.324  16.369  0.00  0.00    +0.000 A 
ATOM     10  C   UNL     1      -5.216  12.158  17.119  0.00  0.00    +0.000 A 
ATOM     11  O   UNL     1      -6.057  12.880  16.588  0.00  0.00    +0.000 OA
ATOM     12  H   UNL     1      -4.034  11.748  20.960  0.00  0.00    +0.000 HD
ATOM     13  H   UNL     1      -4.903  11.498  14.329  0.00  0.00    +0.000 HD
ENDROOT
BRANCH   3  14
ATOM     14  C   UNL     1      -2.712  13.266  20.453  0.00  0.00    +0.000 C 
ATOM     15  C   UNL     1      -1.230  13.282  20.048  0.00  0.00    +0.000 C 
ATOM     16  C   UNL     1      -0.264  13.033  21.214  0.00  0.00    +0.000 C 
ATOM     17  C   UNL     1      -0.583  14.040  22.332  0.00  0.00    +0.000 C 
ATOM     18  N   UNL     1      -1.933  13.922  22.876  0.00  0.00    +0.000 NA
ATOM     19  C   UNL     1      -2.174  14.921  23.920  0.00  0.00    +0.000 C 
ATOM     20  C   UNL     1      -3.004  13.884  21.865  0.00  0.00    +0.000 C 
BRANCH  16  21
ATOM     21  C   UNL     1      -0.184  11.532  21.494  0.00  0.00    +0.000 A 
ATOM     22  C   UNL     1      -0.638  11.083  22.749  0.00  0.00    +0.000 A 
ATOM     23  C   UNL     1      -0.255   9.841  23.258  0.00  0.00    +0.000 A 
ATOM     24  C   UNL     1       0.589   9.020  22.521  0.00  0.00    +0.000 A 
ATOM     25  C   UNL     1       0.976   9.405  21.241  0.00  0.00    +0.000 A 
ATOM     26  C   UNL     1       0.559  10.635  20.713  0.00  0.00    +0.000 A 
ENDBRANCH  16  21
ENDBRANCH   3  14
BRANCH   1  27
ATOM     27  C   UNL     1      -5.838  12.937  19.351  0.00  0.00    +0.000 C 
BRANCH  27  28
ATOM     28  C   UNL     1      -6.919  12.192  20.151  0.00  0.00    +0.000 C 
BRANCH  28  30
ATOM     29  C   UNL     1      -7.630   9.740  20.658  0.00  0.00    +0.000 C 
ATOM     30  C   UNL     1      -7.247  10.747  19.863  0.00  0.00    +0.000 C 
ENDBRANCH  28  30
ENDBRANCH  27  28
ENDBRANCH   1  27
TORSDOF 5
ENDMDL
MODEL 8
REMARK VINA RESULT:      -6.1      1.925      4.897
REMARK  Name = 
REMARK  6 active torsions:
REMARK  status: ('A' for Active; 'I' for Inactive)
REMARK    1  A    between atoms: C_2  and  C_3
REMARK    2  A    between atoms: C_3  and  C_4
REMARK    3  A    between atoms: C_4  and  N_5
REMARK    4  A    between atoms: N_7  and  C_8
REMARK    5  A    between atoms: C_10  and  C_11
REMARK    6  A    between atoms: N_18  and  C_19
REMARK                            x       y       z     vdW  Elec       q    Type
REMARK                         _______ _______ _______ _____ _____    ______ ____
ROOT
ATOM      1  N   UNL     1      -4.793  11.972  18.980  0.00  0.00    +0.000 N 
ATOM      2  C   UNL     1      -4.004  12.636  19.939  0.00  0.00    +0.000 A 
ATOM      3  N   UNL     1      -2.663  12.874  19.651  0.00  0.00    +0.000 N 
ATOM      4  N   UNL     1      -4.438  12.996  21.120  0.00  0.00    +0.000 NA
ATOM      5  C   UNL     1      -5.712  12.568  21.459  0.00  0.00    +0.000 A 
ATOM      6  C   UNL     1      -6.416  12.782  22.659  0.00  0.00    +0.000 A 
ATOM      7  C   UNL     1      -7.573  12.025  22.584  0.00  0.00    +0.000 A 
ATOM      8  N   UNL     1      -7.554  11.363  21.362  0.00  0.00    +0.000 N 
ATOM      9  C   UNL     1      -6.432  11.734  20.661  0.00  0.00    +0.000 A 
ATOM     10  C   UNL     1      -5.986  11.337  19.368  0.00  0.00    +0.000 A 
ATOM     11  O   UNL     1      -6.561  10.476  18.706  0.00  0.00    +0.000 OA
ATOM     12  H   UNL     1      -2.542  13.362  18.771  0.00  0.00    +0.000 HD
ATOM     13  H   UNL     1      -8.245  10.697  21.043  0.00  0.00    +0.000 HD
ENDROOT
BRANCH   3  14
ATOM     14  C   UNL     1      -1.709  11.744  19.770  0.00  0.00    +0.000 C 
ATOM     15  C   UNL     1      -1.356  11.442  21.235  0.00  0.00    +0.000 C 
ATOM     16  C   UNL     1      -0.081  12.139  21.724  0.00  0.00    +0.000 C 
ATOM     17  C   UNL     1       1.063  11.793  20.756  0.00  0.00    +0.000 C 
ATOM     18  N   UNL     1       0.842  12.241  19.384  0.00  0.00    +0.000 NA
ATOM     19  C   UNL     1       1.960  11.862  18.515  0.00  0.00    +0.000 C 
ATOM     20  C   UNL     1      -0.468  11.875  18.819  0.00  0.00    +0.000 C 
BRANCH  16  21
ATOM     21  C   UNL     1      -0.403  13.589  22.088  0.00  0.00    +0.000 A 
ATOM     22  C   UNL     1       0.590  14.555  21.838  0.00  0.00    +0.000 A 
ATOM     23  C   UNL     1       0.572  15.796  22.476  0.00  0.00    +0.000 A 
ATOM     24  C   UNL     1      -0.442  16.099  23.376  0.00  0.00    +0.000 A 
ATOM     25  C   UNL     1      -1.481  15.195  23.569  0.00  0.00    +0.000 A 
ATOM     26  C   UNL     1      -1.485  13.964  22.898  0.00  0.00    +0.000 A 
ENDBRANCH  16  21
ENDBRANCH   3  14
BRANCH   1  27
ATOM     27  C   UNL     1      -4.275  11.632  17.649  0.00  0.00    +0.000 C 
BRANCH  27  28
ATOM     28  C   UNL     1      -3.649  10.238  17.482  0.00  0.00    +0.000 C 
BRANCH  28  30
ATOM     29  C   UNL     1      -2.953  10.331  14.976  0.00  0.00    +0.000 C 
ATOM     30  C   UNL     1      -2.890   9.868  16.231  0.00  0.00    +0.000 C 
ENDBRANCH  28  30
ENDBRANCH  27  28
ENDBRANCH   1  27
TORSDOF 5
ENDMDL
MODEL 9
REMARK VINA RESULT:      -6.0     10.277     12.640
REMARK  Name = 
REMARK  6 active torsions:
REMARK  status: ('A' for Active; 'I' for Inactive)
REMARK    1  A    between atoms: C_2  and  C_3
REMARK    2  A    between atoms: C_3  and  C_4
REMARK    3  A    between atoms: C_4  and  N_5
REMARK    4  A    between atoms: N_7  and  C_8
REMARK    5  A    between atoms: C_10  and  C_11
REMARK    6  A    between atoms: N_18  and  C_19
REMARK                            x       y       z     vdW  Elec       q    Type
REMARK                         _______ _______ _______ _____ _____    ______ ____
ROOT
ATOM      1  N   UNL     1       8.120  16.398  18.662  0.00  0.00    +0.000 N 
ATOM      2  C   UNL     1       8.637  15.106  18.879  0.00  0.00    +0.000 A 
ATOM      3  N   UNL     1       7.920  14.228  19.686  0.00  0.00    +0.000 N 
ATOM      4  N   UNL     1       9.790  14.693  18.416  0.00  0.00    +0.000 NA
ATOM      5  C   UNL     1      10.574  15.648  17.789  0.00  0.00    +0.000 A 
ATOM      6  C   UNL     1      11.856  15.495  17.226  0.00  0.00    +0.000 A 
ATOM      7  C   UNL     1      12.290  16.761  16.871  0.00  0.00    +0.000 A 
ATOM      8  N   UNL     1      11.287  17.655  17.227  0.00  0.00    +0.000 N 
ATOM      9  C   UNL     1      10.223  16.961  17.749  0.00  0.00    +0.000 A 
ATOM     10  C   UNL     1       8.972  17.434  18.237  0.00  0.00    +0.000 A 
ATOM     11  O   UNL     1       8.709  18.631  18.334  0.00  0.00    +0.000 OA
ATOM     12  H   UNL     1       6.962  14.120  19.376  0.00  0.00    +0.000 HD
ATOM     13  H   UNL     1      11.337  18.662  17.136  0.00  0.00    +0.000 HD
ENDROOT
BRANCH   3  14
ATOM     14  C   UNL     1       7.989  14.413  21.157  0.00  0.00    +0.000 C 
ATOM     15  C   UNL     1       9.422  14.264  21.689  0.00  0.00    +0.000 C 
ATOM     16  C   UNL     1       9.759  12.851  22.183  0.00  0.00    +0.000 C 
ATOM     17  C   UNL     1       8.698  12.432  23.214  0.00  0.00    +0.000 C 
ATOM     18  N   UNL     1       7.338  12.376  22.684  0.00  0.00    +0.000 NA
ATOM     19  C   UNL     1       6.380  11.989  23.723  0.00  0.00    +0.000 C 
ATOM     20  C   UNL     1       6.917  13.574  21.938  0.00  0.00    +0.000 C 
BRANCH  16  21
ATOM     21  C   UNL     1      10.098  11.963  20.984  0.00  0.00    +0.000 A 
ATOM     22  C   UNL     1      11.251  12.289  20.244  0.00  0.00    +0.000 A 
ATOM     23  C   UNL     1      11.433  11.820  18.942  0.00  0.00    +0.000 A 
ATOM     24  C   UNL     1      10.467  11.014  18.353  0.00  0.00    +0.000 A 
ATOM     25  C   UNL     1       9.365  10.606  19.099  0.00  0.00    +0.000 A 
ATOM     26  C   UNL     1       9.202  11.044  20.421  0.00  0.00    +0.000 A 
ENDBRANCH  16  21
ENDBRANCH   3  14
BRANCH   1  27
ATOM     27  C   UNL     1       6.799  16.800  19.161  0.00  0.00    +0.000 C 
BRANCH  27  28
ATOM     28  C   UNL     1       5.586  16.033  18.609  0.00  0.00    +0.000 C 
BRANCH  28  30
ATOM     29  C   UNL     1       4.127  15.948  20.763  0.00  0.00    +0.000 C 
ATOM     30  C   UNL     1       4.350  15.822  19.449  0.00  0.00    +0.000 C 
ENDBRANCH  28  30
ENDBRANCH  27  28
ENDBRANCH   1  27
TORSDOF 5
ENDMDL
