MODEL 1
REMARK VINA RESULT:      -8.6      0.000      0.000
REMARK  Name = 
REMARK  4 active torsions:
REMARK  status: ('A' for Active; 'I' for Inactive)
REMARK    1  A    between atoms: C_1  and  C_2
REMARK    2  A    between atoms: N_13  and  N_14
REMARK    3  A    between atoms: N_14  and  C_15
REMARK    4  A    between atoms: C_20  and  N_21
REMARK                            x       y       z     vdW  Elec       q    Type
REMARK                         _______ _______ _______ _____ _____    ______ ____
ROOT
ATOM      1  C   UNL     1       8.692   5.956  12.644  0.00  0.00    +0.000 C 
ATOM      2  C   UNL     1       7.575   5.057  13.067  0.00  0.00    +0.000 A 
ATOM      3  C   UNL     1       6.927   4.228  12.127  0.00  0.00    +0.000 A 
ATOM      4  C   UNL     1       5.869   3.375  12.501  0.00  0.00    +0.000 A 
ATOM      5 CL   UNL     1       5.120   2.378  11.315  0.00  0.00    +0.000 Cl
ATOM      6  C   UNL     1       5.423   3.323  13.813  0.00  0.00    +0.000 A 
ATOM      7  C   UNL     1       6.073   4.139  14.717  0.00  0.00    +0.000 A 
ATOM      8  C   UNL     1       7.124   4.987  14.374  0.00  0.00    +0.000 A 
ATOM      9  N   UNL     1       7.582   5.672  15.504  0.00  0.00    +0.000 N 
ATOM     10  C   UNL     1       6.863   5.310  16.632  0.00  0.00    +0.000 C 
ATOM     11  O   UNL     1       6.989   5.695  17.773  0.00  0.00    +0.000 OA
ATOM     12  C   UNL     1       5.843   4.290  16.143  0.00  0.00    +0.000 C 
ATOM     13  N   UNL     1       4.925   3.629  16.760  0.00  0.00    +0.000 NA
ATOM     14  H   UNL     1       8.339   6.339  15.528  0.00  0.00    +0.000 HD
ENDROOT
BRANCH  13  15
ATOM     15  N   UNL     1       4.739   3.777  18.085  0.00  0.00    +0.000 N 
ATOM     16  H   UNL     1       5.497   4.002  18.746  0.00  0.00    +0.000 HD
BRANCH  15  17
ATOM     17  C   UNL     1       3.432   3.569  18.578  0.00  0.00    +0.000 A 
ATOM     18  C   UNL     1       2.971   2.241  18.746  0.00  0.00    +0.000 A 
ATOM     19  C   UNL     1       1.717   1.939  19.279  0.00  0.00    +0.000 A 
ATOM     20  C   UNL     1       0.873   2.966  19.672  0.00  0.00    +0.000 A 
ATOM     21  C   UNL     1       1.284   4.290  19.522  0.00  0.00    +0.000 A 
ATOM     22  C   UNL     1       2.553   4.594  18.977  0.00  0.00    +0.000 A 
BRANCH  22  23
ATOM     23  N   UNL     1       2.915   6.012  18.851  0.00  0.00    +0.000 N 
ATOM     24  O   UNL     1       3.485   6.387  17.816  0.00  0.00    +0.000 OA
ATOM     25  O   UNL     1       2.618   6.768  19.789  0.00  0.00    +0.000 OA
ENDBRANCH  22  23
ENDBRANCH  15  17
ENDBRANCH  13  15
TORSDOF 3
ENDMDL
MODEL 2
REMARK VINA RESULT:      -8.5      1.697      2.006
REMARK  Name = 
REMARK  4 active torsions:
REMARK  status: ('A' for Active; 'I' for Inactive)
REMARK    1  A    between atoms: C_1  and  C_2
REMARK    2  A    between atoms: N_13  and  N_14
REMARK    3  A    between atoms: N_14  and  C_15
REMARK    4  A    between atoms: C_20  and  N_21
REMARK                            x       y       z     vdW  Elec       q    Type
REMARK                         _______ _______ _______ _____ _____    ______ ____
ROOT
ATOM      1  C   UNL     1       8.673   6.001  12.622  0.00  0.00    +0.000 C 
ATOM      2  C   UNL     1       7.579   5.068  13.031  0.00  0.00    +0.000 A 
ATOM      3  C   UNL     1       6.951   4.238  12.078  0.00  0.00    +0.000 A 
ATOM      4  C   UNL     1       5.915   3.353  12.438  0.00  0.00    +0.000 A 
ATOM      5 CL   UNL     1       5.189   2.357  11.236  0.00  0.00    +0.000 Cl
ATOM      6  C   UNL     1       5.472   3.268  13.750  0.00  0.00    +0.000 A 
ATOM      7  C   UNL     1       6.103   4.085  14.666  0.00  0.00    +0.000 A 
ATOM      8  C   UNL     1       7.132   4.964  14.338  0.00  0.00    +0.000 A 
ATOM      9  N   UNL     1       7.574   5.641  15.478  0.00  0.00    +0.000 N 
ATOM     10  C   UNL     1       6.866   5.243  16.600  0.00  0.00    +0.000 C 
ATOM     11  O   UNL     1       6.983   5.612  17.747  0.00  0.00    +0.000 OA
ATOM     12  C   UNL     1       5.871   4.205  16.096  0.00  0.00    +0.000 C 
ATOM     13  N   UNL     1       4.970   3.512  16.702  0.00  0.00    +0.000 NA
ATOM     14  H   UNL     1       8.314   6.326  15.513  0.00  0.00    +0.000 HD
ENDROOT
BRANCH  13  15
ATOM     15  N   UNL     1       4.783   3.633  18.029  0.00  0.00    +0.000 N 
ATOM     16  H   UNL     1       5.546   3.799  18.701  0.00  0.00    +0.000 HD
BRANCH  15  17
ATOM     17  C   UNL     1       3.462   3.482  18.509  0.00  0.00    +0.000 A 
ATOM     18  C   UNL     1       2.395   4.006  17.742  0.00  0.00    +0.000 A 
ATOM     19  C   UNL     1       1.057   3.855  18.108  0.00  0.00    +0.000 A 
ATOM     20  C   UNL     1       0.736   3.162  19.264  0.00  0.00    +0.000 A 
ATOM     21  C   UNL     1       1.756   2.630  20.053  0.00  0.00    +0.000 A 
ATOM     22  C   UNL     1       3.111   2.789  19.683  0.00  0.00    +0.000 A 
BRANCH  22  23
ATOM     23  N   UNL     1       4.128   2.200  20.565  0.00  0.00    +0.000 N 
ATOM     24  O   UNL     1       5.244   1.945  20.091  0.00  0.00    +0.000 OA
ATOM     25  O   UNL     1       3.817   1.999  21.749  0.00  0.00    +0.000 OA
ENDBRANCH  22  23
ENDBRANCH  15  17
ENDBRANCH  13  15
TORSDOF 3
ENDMDL
MODEL 3
REMARK VINA RESULT:      -8.2      5.531      8.125
REMARK  Name = 
REMARK  4 active torsions:
REMARK  status: ('A' for Active; 'I' for Inactive)
REMARK    1  A    between atoms: C_1  and  C_2
REMARK    2  A    between atoms: N_13  and  N_14
REMARK    3  A    between atoms: N_14  and  C_15
REMARK    4  A    between atoms: C_20  and  N_21
REMARK                            x       y       z     vdW  Elec       q    Type
REMARK                         _______ _______ _______ _____ _____    ______ ____
ROOT
ATOM      1  C   UNL     1      -0.766  12.499  18.311  0.00  0.00    +0.000 C 
ATOM      2  C   UNL     1      -0.402  11.476  19.339  0.00  0.00    +0.000 A 
ATOM      3  C   UNL     1      -0.931  11.554  20.645  0.00  0.00    +0.000 A 
ATOM      4  C   UNL     1      -0.601  10.604  21.633  0.00  0.00    +0.000 A 
ATOM      5 CL   UNL     1      -1.282  10.741  23.208  0.00  0.00    +0.000 Cl
ATOM      6  C   UNL     1       0.263   9.555  21.354  0.00  0.00    +0.000 A 
ATOM      7  C   UNL     1       0.766   9.496  20.070  0.00  0.00    +0.000 A 
ATOM      8  C   UNL     1       0.452  10.419  19.075  0.00  0.00    +0.000 A 
ATOM      9  N   UNL     1       1.102  10.086  17.883  0.00  0.00    +0.000 N 
ATOM     10  C   UNL     1       1.866   8.940  18.035  0.00  0.00    +0.000 C 
ATOM     11  O   UNL     1       2.551   8.366  17.219  0.00  0.00    +0.000 OA
ATOM     12  C   UNL     1       1.668   8.519  19.485  0.00  0.00    +0.000 C 
ATOM     13  N   UNL     1       2.140   7.533  20.166  0.00  0.00    +0.000 NA
ATOM     14  H   UNL     1       1.036  10.587  17.010  0.00  0.00    +0.000 HD
ENDROOT
BRANCH  13  15
ATOM     15  N   UNL     1       2.965   6.634  19.598  0.00  0.00    +0.000 N 
ATOM     16  H   UNL     1       3.726   6.886  18.952  0.00  0.00    +0.000 HD
BRANCH  15  17
ATOM     17  C   UNL     1       2.730   5.271  19.889  0.00  0.00    +0.000 A 
ATOM     18  C   UNL     1       1.543   4.916  20.574  0.00  0.00    +0.000 A 
ATOM     19  C   UNL     1       1.201   3.592  20.854  0.00  0.00    +0.000 A 
ATOM     20  C   UNL     1       2.041   2.566  20.450  0.00  0.00    +0.000 A 
ATOM     21  C   UNL     1       3.223   2.869  19.775  0.00  0.00    +0.000 A 
ATOM     22  C   UNL     1       3.570   4.211  19.497  0.00  0.00    +0.000 A 
BRANCH  22  23
ATOM     23  N   UNL     1       4.831   4.451  18.782  0.00  0.00    +0.000 N 
ATOM     24  O   UNL     1       4.966   3.973  17.646  0.00  0.00    +0.000 OA
ATOM     25  O   UNL     1       5.696   5.133  19.351  0.00  0.00    +0.000 OA
ENDBRANCH  22  23
ENDBRANCH  15  17
ENDBRANCH  13  15
TORSDOF 3
ENDMDL
MODEL 4
REMARK VINA RESULT:      -8.0      1.736      2.200
REMARK  Name = 
REMARK  4 active torsions:
REMARK  status: ('A' for Active; 'I' for Inactive)
REMARK    1  A    between atoms: C_1  and  C_2
REMARK    2  A    between atoms: N_13  and  N_14
REMARK    3  A    between atoms: N_14  and  C_15
REMARK    4  A    between atoms: C_20  and  N_21
REMARK                            x       y       z     vdW  Elec       q    Type
REMARK                         _______ _______ _______ _____ _____    ______ ____
ROOT
ATOM      1  C   UNL     1       8.750   5.844  12.824  0.00  0.00    +0.000 C 
ATOM      2  C   UNL     1       7.542   5.114  13.318  0.00  0.00    +0.000 A 
ATOM      3  C   UNL     1       6.789   4.301  12.445  0.00  0.00    +0.000 A 
ATOM      4  C   UNL     1       5.644   3.606  12.887  0.00  0.00    +0.000 A 
ATOM      5 CL   UNL     1       4.767   2.621  11.781  0.00  0.00    +0.000 Cl
ATOM      6  C   UNL     1       5.215   3.702  14.202  0.00  0.00    +0.000 A 
ATOM      7  C   UNL     1       5.968   4.498  15.040  0.00  0.00    +0.000 A 
ATOM      8  C   UNL     1       7.105   5.191  14.630  0.00  0.00    +0.000 A 
ATOM      9  N   UNL     1       7.656   5.897  15.704  0.00  0.00    +0.000 N 
ATOM     10  C   UNL     1       6.917   5.703  16.860  0.00  0.00    +0.000 C 
ATOM     11  O   UNL     1       7.103   6.152  17.968  0.00  0.00    +0.000 OA
ATOM     12  C   UNL     1       5.778   4.776  16.453  0.00  0.00    +0.000 C 
ATOM     13  N   UNL     1       4.799   4.274  17.122  0.00  0.00    +0.000 NA
ATOM     14  H   UNL     1       8.485   6.471  15.675  0.00  0.00    +0.000 HD
ENDROOT
BRANCH  13  15
ATOM     15  N   UNL     1       4.651   4.537  18.433  0.00  0.00    +0.000 N 
ATOM     16  H   UNL     1       5.381   4.974  19.014  0.00  0.00    +0.000 HD
BRANCH  15  17
ATOM     17  C   UNL     1       3.433   4.146  19.035  0.00  0.00    +0.000 A 
ATOM     18  C   UNL     1       2.398   5.103  19.159  0.00  0.00    +0.000 A 
ATOM     19  C   UNL     1       1.144   4.794  19.688  0.00  0.00    +0.000 A 
ATOM     20  C   UNL     1       0.877   3.501  20.109  0.00  0.00    +0.000 A 
ATOM     21  C   UNL     1       1.869   2.526  20.009  0.00  0.00    +0.000 A 
ATOM     22  C   UNL     1       3.140   2.843  19.478  0.00  0.00    +0.000 A 
BRANCH  22  23
ATOM     23  N   UNL     1       4.132   1.762  19.404  0.00  0.00    +0.000 N 
ATOM     24  O   UNL     1       3.995   0.892  18.531  0.00  0.00    +0.000 OA
ATOM     25  O   UNL     1       5.069   1.782  20.217  0.00  0.00    +0.000 OA
ENDBRANCH  22  23
ENDBRANCH  15  17
ENDBRANCH  13  15
TORSDOF 3
ENDMDL
MODEL 5
REMARK VINA RESULT:      -8.0      1.760      2.282
REMARK  Name = 
REMARK  4 active torsions:
REMARK  status: ('A' for Active; 'I' for Inactive)
REMARK    1  A    between atoms: C_1  and  C_2
REMARK    2  A    between atoms: N_13  and  N_14
REMARK    3  A    between atoms: N_14  and  C_15
REMARK    4  A    between atoms: C_20  and  N_21
REMARK                            x       y       z     vdW  Elec       q    Type
REMARK                         _______ _______ _______ _____ _____    ______ ____
ROOT
ATOM      1  C   UNL     1       8.617   5.853  12.615  0.00  0.00    +0.000 C 
ATOM      2  C   UNL     1       7.452   5.035  13.071  0.00  0.00    +0.000 A 
ATOM      3  C   UNL     1       6.651   4.345  12.137  0.00  0.00    +0.000 A 
ATOM      4  C   UNL     1       5.545   3.571  12.541  0.00  0.00    +0.000 A 
ATOM      5 CL   UNL     1       4.607   2.743  11.359  0.00  0.00    +0.000 Cl
ATOM      6  C   UNL     1       5.202   3.462  13.881  0.00  0.00    +0.000 A 
ATOM      7  C   UNL     1       6.001   4.140  14.778  0.00  0.00    +0.000 A 
ATOM      8  C   UNL     1       7.101   4.909  14.405  0.00  0.00    +0.000 A 
ATOM      9  N   UNL     1       7.714   5.458  15.534  0.00  0.00    +0.000 N 
ATOM     10  C   UNL     1       7.055   5.081  16.693  0.00  0.00    +0.000 C 
ATOM     11  O   UNL     1       7.308   5.364  17.842  0.00  0.00    +0.000 OA
ATOM     12  C   UNL     1       5.901   4.203  16.226  0.00  0.00    +0.000 C 
ATOM     13  N   UNL     1       4.973   3.587  16.873  0.00  0.00    +0.000 NA
ATOM     14  H   UNL     1       8.534   6.046  15.539  0.00  0.00    +0.000 HD
ENDROOT
BRANCH  13  15
ATOM     15  N   UNL     1       4.909   3.651  18.216  0.00  0.00    +0.000 N 
ATOM     16  H   UNL     1       5.489   3.075  18.843  0.00  0.00    +0.000 HD
BRANCH  15  17
ATOM     17  C   UNL     1       3.958   4.535  18.774  0.00  0.00    +0.000 A 
ATOM     18  C   UNL     1       3.907   5.867  18.298  0.00  0.00    +0.000 A 
ATOM     19  C   UNL     1       2.966   6.794  18.750  0.00  0.00    +0.000 A 
ATOM     20  C   UNL     1       2.030   6.414  19.699  0.00  0.00    +0.000 A 
ATOM     21  C   UNL     1       2.046   5.112  20.199  0.00  0.00    +0.000 A 
ATOM     22  C   UNL     1       3.003   4.177  19.744  0.00  0.00    +0.000 A 
BRANCH  22  23
ATOM     23  N   UNL     1       2.955   2.825  20.317  0.00  0.00    +0.000 N 
ATOM     24  O   UNL     1       1.847   2.302  20.506  0.00  0.00    +0.000 OA
ATOM     25  O   UNL     1       4.034   2.269  20.573  0.00  0.00    +0.000 OA
ENDBRANCH  22  23
ENDBRANCH  15  17
ENDBRANCH  13  15
TORSDOF 3
ENDMDL
MODEL 6
REMARK VINA RESULT:      -7.9      5.226      7.724
REMARK  Name = 
REMARK  4 active torsions:
REMARK  status: ('A' for Active; 'I' for Inactive)
REMARK    1  A    between atoms: C_1  and  C_2
REMARK    2  A    between atoms: N_13  and  N_14
REMARK    3  A    between atoms: N_14  and  C_15
REMARK    4  A    between atoms: C_20  and  N_21
REMARK                            x       y       z     vdW  Elec       q    Type
REMARK                         _______ _______ _______ _____ _____    ______ ____
ROOT
ATOM      1  C   UNL     1       0.054  11.907  18.457  0.00  0.00    +0.000 C 
ATOM      2  C   UNL     1       0.244  10.858  19.506  0.00  0.00    +0.000 A 
ATOM      3  C   UNL     1      -0.383  10.981  20.764  0.00  0.00    +0.000 A 
ATOM      4  C   UNL     1      -0.217  10.008  21.770  0.00  0.00    +0.000 A 
ATOM      5 CL   UNL     1      -1.013  10.204  23.284  0.00  0.00    +0.000 Cl
ATOM      6  C   UNL     1       0.577   8.891  21.559  0.00  0.00    +0.000 A 
ATOM      7  C   UNL     1       1.178   8.789  20.320  0.00  0.00    +0.000 A 
ATOM      8  C   UNL     1       1.026   9.733  19.308  0.00  0.00    +0.000 A 
ATOM      9  N   UNL     1       1.743   9.346  18.172  0.00  0.00    +0.000 N 
ATOM     10  C   UNL     1       2.394   8.140  18.380  0.00  0.00    +0.000 C 
ATOM     11  O   UNL     1       3.095   7.510  17.620  0.00  0.00    +0.000 OA
ATOM     12  C   UNL     1       2.042   7.739  19.807  0.00  0.00    +0.000 C 
ATOM     13  N   UNL     1       2.371   6.717  20.519  0.00  0.00    +0.000 NA
ATOM     14  H   UNL     1       1.792   9.850  17.299  0.00  0.00    +0.000 HD
ENDROOT
BRANCH  13  15
ATOM     15  N   UNL     1       3.163   5.752  20.016  0.00  0.00    +0.000 N 
ATOM     16  H   UNL     1       4.184   5.846  19.914  0.00  0.00    +0.000 HD
BRANCH  15  17
ATOM     17  C   UNL     1       2.531   4.568  19.573  0.00  0.00    +0.000 A 
ATOM     18  C   UNL     1       1.320   4.171  20.187  0.00  0.00    +0.000 A 
ATOM     19  C   UNL     1       0.598   3.049  19.779  0.00  0.00    +0.000 A 
ATOM     20  C   UNL     1       1.066   2.279  18.725  0.00  0.00    +0.000 A 
ATOM     21  C   UNL     1       2.257   2.631  18.091  0.00  0.00    +0.000 A 
ATOM     22  C   UNL     1       2.989   3.765  18.511  0.00  0.00    +0.000 A 
BRANCH  22  23
ATOM     23  N   UNL     1       4.235   4.071  17.794  0.00  0.00    +0.000 N 
ATOM     24  O   UNL     1       5.264   4.271  18.456  0.00  0.00    +0.000 OA
ATOM     25  O   UNL     1       4.194   4.101  16.555  0.00  0.00    +0.000 OA
ENDBRANCH  22  23
ENDBRANCH  15  17
ENDBRANCH  13  15
TORSDOF 3
ENDMDL
MODEL 7
REMARK VINA RESULT:      -7.9      3.967      7.467
REMARK  Name = 
REMARK  4 active torsions:
REMARK  status: ('A' for Active; 'I' for Inactive)
REMARK    1  A    between atoms: C_1  and  C_2
REMARK    2  A    between atoms: N_13  and  N_14
REMARK    3  A    between atoms: N_14  and  C_15
REMARK    4  A    between atoms: C_20  and  N_21
REMARK                            x       y       z     vdW  Elec       q    Type
REMARK                         _______ _______ _______ _____ _____    ______ ____
ROOT
ATOM      1  C   UNL     1       0.303   9.094  22.328  0.00  0.00    +0.000 C 
ATOM      2  C   UNL     1       0.931   9.053  20.972  0.00  0.00    +0.000 A 
ATOM      3  C   UNL     1       0.981  10.213  20.170  0.00  0.00    +0.000 A 
ATOM      4  C   UNL     1       1.564  10.199  18.886  0.00  0.00    +0.000 A 
ATOM      5 CL   UNL     1       1.605  11.645  17.954  0.00  0.00    +0.000 Cl
ATOM      6  C   UNL     1       2.110   9.036  18.363  0.00  0.00    +0.000 A 
ATOM      7  C   UNL     1       2.054   7.915  19.166  0.00  0.00    +0.000 A 
ATOM      8  C   UNL     1       1.488   7.903  20.438  0.00  0.00    +0.000 A 
ATOM      9  N   UNL     1       1.595   6.630  21.005  0.00  0.00    +0.000 N 
ATOM     10  C   UNL     1       2.232   5.752  20.142  0.00  0.00    +0.000 C 
ATOM     11  O   UNL     1       2.497   4.582  20.303  0.00  0.00    +0.000 OA
ATOM     12  C   UNL     1       2.550   6.575  18.901  0.00  0.00    +0.000 C 
ATOM     13  N   UNL     1       3.130   6.269  17.792  0.00  0.00    +0.000 NA
ATOM     14  H   UNL     1       1.272   6.358  21.921  0.00  0.00    +0.000 HD
ENDROOT
BRANCH  13  15
ATOM     15  N   UNL     1       3.591   5.023  17.575  0.00  0.00    +0.000 N 
ATOM     16  H   UNL     1       3.090   4.170  17.863  0.00  0.00    +0.000 HD
BRANCH  15  17
ATOM     17  C   UNL     1       4.854   4.904  16.951  0.00  0.00    +0.000 A 
ATOM     18  C   UNL     1       4.939   5.074  15.549  0.00  0.00    +0.000 A 
ATOM     19  C   UNL     1       6.149   5.030  14.855  0.00  0.00    +0.000 A 
ATOM     20  C   UNL     1       7.330   4.817  15.549  0.00  0.00    +0.000 A 
ATOM     21  C   UNL     1       7.294   4.641  16.932  0.00  0.00    +0.000 A 
ATOM     22  C   UNL     1       6.066   4.681  17.632  0.00  0.00    +0.000 A 
BRANCH  22  23
ATOM     23  N   UNL     1       6.109   4.487  19.087  0.00  0.00    +0.000 N 
ATOM     24  O   UNL     1       6.794   5.265  19.767  0.00  0.00    +0.000 OA
ATOM     25  O   UNL     1       5.442   3.556  19.565  0.00  0.00    +0.000 OA
ENDBRANCH  22  23
ENDBRANCH  15  17
ENDBRANCH  13  15
TORSDOF 3
ENDMDL
MODEL 8
REMARK VINA RESULT:      -7.8      2.935      7.094
REMARK  Name = 
REMARK  4 active torsions:
REMARK  status: ('A' for Active; 'I' for Inactive)
REMARK    1  A    between atoms: C_1  and  C_2
REMARK    2  A    between atoms: N_13  and  N_14
REMARK    3  A    between atoms: N_14  and  C_15
REMARK    4  A    between atoms: C_20  and  N_21
REMARK                            x       y       z     vdW  Elec       q    Type
REMARK                         _______ _______ _______ _____ _____    ______ ____
ROOT
ATOM      1  C   UNL     1       1.236   2.953  21.603  0.00  0.00    +0.000 C 
ATOM      2  C   UNL     1       1.907   3.826  20.591  0.00  0.00    +0.000 A 
ATOM      3  C   UNL     1       1.749   5.227  20.637  0.00  0.00    +0.000 A 
ATOM      4  C   UNL     1       2.367   6.072  19.693  0.00  0.00    +0.000 A 
ATOM      5 CL   UNL     1       2.148   7.775  19.801  0.00  0.00    +0.000 Cl
ATOM      6  C   UNL     1       3.156   5.550  18.678  0.00  0.00    +0.000 A 
ATOM      7  C   UNL     1       3.300   4.178  18.654  0.00  0.00    +0.000 A 
ATOM      8  C   UNL     1       2.704   3.322  19.577  0.00  0.00    +0.000 A 
ATOM      9  N   UNL     1       3.046   1.996  19.300  0.00  0.00    +0.000 N 
ATOM     10  C   UNL     1       3.877   1.915  18.194  0.00  0.00    +0.000 C 
ATOM     11  O   UNL     1       4.368   0.937  17.678  0.00  0.00    +0.000 OA
ATOM     12  C   UNL     1       4.066   3.355  17.733  0.00  0.00    +0.000 C 
ATOM     13  N   UNL     1       4.735   3.864  16.757  0.00  0.00    +0.000 NA
ATOM     14  H   UNL     1       2.752   1.185  19.824  0.00  0.00    +0.000 HD
ENDROOT
BRANCH  13  15
ATOM     15  N   UNL     1       5.446   3.081  15.925  0.00  0.00    +0.000 N 
ATOM     16  H   UNL     1       5.546   2.063  16.045  0.00  0.00    +0.000 HD
BRANCH  15  17
ATOM     17  C   UNL     1       6.117   3.719  14.857  0.00  0.00    +0.000 A 
ATOM     18  C   UNL     1       5.780   3.361  13.531  0.00  0.00    +0.000 A 
ATOM     19  C   UNL     1       6.349   3.977  12.415  0.00  0.00    +0.000 A 
ATOM     20  C   UNL     1       7.281   4.988  12.590  0.00  0.00    +0.000 A 
ATOM     21  C   UNL     1       7.646   5.372  13.880  0.00  0.00    +0.000 A 
ATOM     22  C   UNL     1       7.072   4.743  15.009  0.00  0.00    +0.000 A 
BRANCH  22  23
ATOM     23  N   UNL     1       7.507   5.202  16.335  0.00  0.00    +0.000 N 
ATOM     24  O   UNL     1       7.445   6.413  16.590  0.00  0.00    +0.000 OA
ATOM     25  O   UNL     1       7.905   4.346  17.139  0.00  0.00    +0.000 OA
ENDBRANCH  22  23
ENDBRANCH  15  17
ENDBRANCH  13  15
TORSDOF 3
ENDMDL
MODEL 9
REMARK VINA RESULT:      -7.8      4.499      7.907
REMARK  Name = 
REMARK  4 active torsions:
REMARK  status: ('A' for Active; 'I' for Inactive)
REMARK    1  A    between atoms: C_1  and  C_2
REMARK    2  A    between atoms: N_13  and  N_14
REMARK    3  A    between atoms: N_14  and  C_15
REMARK    4  A    between atoms: C_20  and  N_21
REMARK                            x       y       z     vdW  Elec       q    Type
REMARK                         _______ _______ _______ _____ _____    ______ ____
ROOT
ATOM      1  C   UNL     1       0.072   9.389  22.789  0.00  0.00    +0.000 C 
ATOM      2  C   UNL     1       0.592   9.498  21.392  0.00  0.00    +0.000 A 
ATOM      3  C   UNL     1       0.456  10.702  20.669  0.00  0.00    +0.000 A 
ATOM      4  C   UNL     1       0.935  10.829  19.349  0.00  0.00    +0.000 A 
ATOM      5 CL   UNL     1       0.751  12.324  18.516  0.00  0.00    +0.000 Cl
ATOM      6  C   UNL     1       1.558   9.766  18.711  0.00  0.00    +0.000 A 
ATOM      7  C   UNL     1       1.684   8.600  19.438  0.00  0.00    +0.000 A 
ATOM      8  C   UNL     1       1.224   8.450  20.744  0.00  0.00    +0.000 A 
ATOM      9  N   UNL     1       1.508   7.165  21.214  0.00  0.00    +0.000 N 
ATOM     10  C   UNL     1       2.163   6.415  20.250  0.00  0.00    +0.000 C 
ATOM     11  O   UNL     1       2.562   5.274  20.312  0.00  0.00    +0.000 OA
ATOM     12  C   UNL     1       2.295   7.341  19.048  0.00  0.00    +0.000 C 
ATOM     13  N   UNL     1       2.815   7.167  17.882  0.00  0.00    +0.000 NA
ATOM     14  H   UNL     1       1.288   6.805  22.130  0.00  0.00    +0.000 HD
ENDROOT
BRANCH  13  15
ATOM     15  N   UNL     1       3.387   5.995  17.549  0.00  0.00    +0.000 N 
ATOM     16  H   UNL     1       2.854   5.162  17.259  0.00  0.00    +0.000 HD
BRANCH  15  17
ATOM     17  C   UNL     1       4.794   5.915  17.647  0.00  0.00    +0.000 A 
ATOM     18  C   UNL     1       5.568   7.037  17.269  0.00  0.00    +0.000 A 
ATOM     19  C   UNL     1       6.959   7.069  17.384  0.00  0.00    +0.000 A 
ATOM     20  C   UNL     1       7.630   5.968  17.893  0.00  0.00    +0.000 A 
ATOM     21  C   UNL     1       6.908   4.838  18.276  0.00  0.00    +0.000 A 
ATOM     22  C   UNL     1       5.500   4.806  18.153  0.00  0.00    +0.000 A 
BRANCH  22  23
ATOM     23  N   UNL     1       4.810   3.581  18.577  0.00  0.00    +0.000 N 
ATOM     24  O   UNL     1       3.984   3.071  17.806  0.00  0.00    +0.000 OA
ATOM     25  O   UNL     1       5.101   3.110  19.687  0.00  0.00    +0.000 OA
ENDBRANCH  22  23
ENDBRANCH  15  17
ENDBRANCH  13  15
TORSDOF 3
ENDMDL
