MODEL 1
REMARK VINA RESULT:      -8.2      0.000      0.000
REMARK  Name = 
REMARK  11 active torsions:
REMARK  status: ('A' for Active; 'I' for Inactive)
REMARK    1  A    between atoms: C_1  and  O_2
REMARK    2  A    between atoms: O_2  and  C_3
REMARK    3  A    between atoms: C_5  and  C_6
REMARK    4  A    between atoms: N_11  and  C_12
REMARK    5  A    between atoms: C_12  and  C_13
REMARK    6  A    between atoms: C_13  and  C_14
REMARK    7  A    between atoms: N_16  and  C_17
REMARK    8  A    between atoms: C_26  and  O_27
REMARK    9  A    between atoms: O_27  and  C_28
REMARK   10  A    between atoms: C_29  and  O_30
REMARK   11  A    between atoms: O_30  and  C_31
REMARK                            x       y       z     vdW  Elec       q    Type
REMARK                         _______ _______ _______ _____ _____    ______ ____
ROOT
ATOM      1  C   UNL     1       2.157   8.351  18.455  0.00  0.00    +0.000 C 
ATOM      2  C   UNL     1       2.475   7.106  18.823  0.00  0.00    +0.000 C 
ATOM      3  S   UNL     1       1.814   6.171  20.094  0.00  0.00    +0.000 S 
ATOM      4  C   UNL     1       2.868   4.800  19.756  0.00  0.00    +0.000 C 
ATOM      5  S   UNL     1       2.793   3.397  20.653  0.00  0.00    +0.000 S 
ATOM      6  N   UNL     1       3.709   5.100  18.696  0.00  0.00    +0.000 N 
ATOM      7  C   UNL     1       3.524   6.337  18.105  0.00  0.00    +0.000 C 
ATOM      8  O   UNL     1       4.129   6.766  17.132  0.00  0.00    +0.000 OA
ENDROOT
BRANCH   1  11
ATOM      9  C   UNL     1       0.324  10.369  21.056  0.00  0.00    +0.000 A 
ATOM     10  C   UNL     1       1.139   9.390  20.462  0.00  0.00    +0.000 A 
ATOM     11  C   UNL     1       1.155   9.218  19.080  0.00  0.00    +0.000 A 
ATOM     12  C   UNL     1       0.268   9.947  18.296  0.00  0.00    +0.000 A 
ATOM     13  C   UNL     1      -0.615  10.872  18.873  0.00  0.00    +0.000 A 
ATOM     14  C   UNL     1      -0.595  11.101  20.268  0.00  0.00    +0.000 A 
BRANCH   9  16
ATOM     15  C   UNL     1      -0.047   9.543  23.255  0.00  0.00    +0.000 C 
ATOM     16  O   UNL     1       0.406  10.603  22.408  0.00  0.00    +0.000 OA
ENDBRANCH   9  16
BRANCH  13  17
ATOM     17  O   UNL     1      -1.395  11.468  17.912  0.00  0.00    +0.000 OA
ATOM     18  C   UNL     1      -2.274  10.677  17.128  0.00  0.00    +0.000 C 
ENDBRANCH  13  17
BRANCH  14  19
ATOM     19  O   UNL     1      -1.495  12.026  20.727  0.00  0.00    +0.000 OA
ATOM     20  C   UNL     1      -1.155  13.398  20.831  0.00  0.00    +0.000 C 
ENDBRANCH  14  19
ENDBRANCH   1  11
BRANCH   6  21
ATOM     21  C   UNL     1       4.651   4.163  18.080  0.00  0.00    +0.000 C 
BRANCH  21  22
ATOM     22  C   UNL     1       6.124   4.520  18.316  0.00  0.00    +0.000 C 
BRANCH  22  23
ATOM     23  C   UNL     1       6.886   4.441  17.003  0.00  0.00    +0.000 C 
ATOM     24  O   UNL     1       8.096   4.251  16.987  0.00  0.00    +0.000 OA
ATOM     25  N   UNL     1       6.075   4.619  15.897  0.00  0.00    +0.000 N 
ATOM     26  H   UNL     1       5.124   4.929  16.057  0.00  0.00    +0.000 HD
BRANCH  25  27
ATOM     27  C   UNL     1       6.485   4.528  14.547  0.00  0.00    +0.000 A 
ATOM     28  C   UNL     1       7.526   5.286  14.006  0.00  0.00    +0.000 A 
ATOM     29  C   UNL     1       7.874   5.161  12.658  0.00  0.00    +0.000 A 
ATOM     30  C   UNL     1       7.182   4.278  11.836  0.00  0.00    +0.000 A 
ATOM     31  C   UNL     1       6.152   3.504  12.368  0.00  0.00    +0.000 A 
ATOM     32  C   UNL     1       5.811   3.620  13.720  0.00  0.00    +0.000 A 
ENDBRANCH  25  27
ENDBRANCH  22  23
ENDBRANCH  21  22
ENDBRANCH   6  21
TORSDOF 8
ENDMDL
MODEL 2
REMARK VINA RESULT:      -8.0      1.405      1.825
REMARK  Name = 
REMARK  11 active torsions:
REMARK  status: ('A' for Active; 'I' for Inactive)
REMARK    1  A    between atoms: C_1  and  O_2
REMARK    2  A    between atoms: O_2  and  C_3
REMARK    3  A    between atoms: C_5  and  C_6
REMARK    4  A    between atoms: N_11  and  C_12
REMARK    5  A    between atoms: C_12  and  C_13
REMARK    6  A    between atoms: C_13  and  C_14
REMARK    7  A    between atoms: N_16  and  C_17
REMARK    8  A    between atoms: C_26  and  O_27
REMARK    9  A    between atoms: O_27  and  C_28
REMARK   10  A    between atoms: C_29  and  O_30
REMARK   11  A    between atoms: O_30  and  C_31
REMARK                            x       y       z     vdW  Elec       q    Type
REMARK                         _______ _______ _______ _____ _____    ______ ____
ROOT
ATOM      1  C   UNL     1       2.263   8.771  17.821  0.00  0.00    +0.000 C 
ATOM      2  C   UNL     1       2.560   7.609  18.410  0.00  0.00    +0.000 C 
ATOM      3  S   UNL     1       1.867   6.920  19.814  0.00  0.00    +0.000 S 
ATOM      4  C   UNL     1       2.911   5.502  19.745  0.00  0.00    +0.000 C 
ATOM      5  S   UNL     1       2.804   4.281  20.876  0.00  0.00    +0.000 S 
ATOM      6  N   UNL     1       3.773   5.601  18.664  0.00  0.00    +0.000 N 
ATOM      7  C   UNL     1       3.612   6.714  17.860  0.00  0.00    +0.000 C 
ATOM      8  O   UNL     1       4.237   6.959  16.837  0.00  0.00    +0.000 OA
ENDROOT
BRANCH   1  11
ATOM      9  C   UNL     1       0.735  11.890  19.282  0.00  0.00    +0.000 A 
ATOM     10  C   UNL     1       1.642  10.847  19.024  0.00  0.00    +0.000 A 
ATOM     11  C   UNL     1       1.262   9.744  18.264  0.00  0.00    +0.000 A 
ATOM     12  C   UNL     1      -0.063   9.624  17.858  0.00  0.00    +0.000 A 
ATOM     13  C   UNL     1      -1.008  10.613  18.174  0.00  0.00    +0.000 A 
ATOM     14  C   UNL     1      -0.618  11.769  18.889  0.00  0.00    +0.000 A 
BRANCH   9  16
ATOM     15  C   UNL     1       1.547  14.118  19.097  0.00  0.00    +0.000 C 
ATOM     16  O   UNL     1       1.160  13.023  19.933  0.00  0.00    +0.000 OA
ENDBRANCH   9  16
BRANCH  13  17
ATOM     17  O   UNL     1      -2.245  10.283  17.676  0.00  0.00    +0.000 OA
ATOM     18  C   UNL     1      -2.583  10.632  16.342  0.00  0.00    +0.000 C 
ENDBRANCH  13  17
BRANCH  14  19
ATOM     19  O   UNL     1      -1.616  12.670  19.141  0.00  0.00    +0.000 OA
ATOM     20  C   UNL     1      -2.340  12.648  20.360  0.00  0.00    +0.000 C 
ENDBRANCH  14  19
ENDBRANCH   1  11
BRANCH   6  21
ATOM     21  C   UNL     1       4.714   4.561  18.241  0.00  0.00    +0.000 C 
BRANCH  21  22
ATOM     22  C   UNL     1       6.184   4.993  18.305  0.00  0.00    +0.000 C 
BRANCH  22  23
ATOM     23  C   UNL     1       6.873   4.654  16.993  0.00  0.00    +0.000 C 
ATOM     24  O   UNL     1       8.007   4.190  16.978  0.00  0.00    +0.000 OA
ATOM     25  N   UNL     1       6.096   4.941  15.885  0.00  0.00    +0.000 N 
ATOM     26  H   UNL     1       5.246   5.471  16.033  0.00  0.00    +0.000 HD
BRANCH  25  27
ATOM     27  C   UNL     1       6.439   4.669  14.541  0.00  0.00    +0.000 A 
ATOM     28  C   UNL     1       5.815   3.684  13.771  0.00  0.00    +0.000 A 
ATOM     29  C   UNL     1       6.210   3.453  12.450  0.00  0.00    +0.000 A 
ATOM     30  C   UNL     1       7.235   4.205  11.886  0.00  0.00    +0.000 A 
ATOM     31  C   UNL     1       7.854   5.202  12.639  0.00  0.00    +0.000 A 
ATOM     32  C   UNL     1       7.451   5.441  13.956  0.00  0.00    +0.000 A 
ENDBRANCH  25  27
ENDBRANCH  22  23
ENDBRANCH  21  22
ENDBRANCH   6  21
TORSDOF 8
ENDMDL
MODEL 3
REMARK VINA RESULT:      -7.9      3.555      9.137
REMARK  Name = 
REMARK  11 active torsions:
REMARK  status: ('A' for Active; 'I' for Inactive)
REMARK    1  A    between atoms: C_1  and  O_2
REMARK    2  A    between atoms: O_2  and  C_3
REMARK    3  A    between atoms: C_5  and  C_6
REMARK    4  A    between atoms: N_11  and  C_12
REMARK    5  A    between atoms: C_12  and  C_13
REMARK    6  A    between atoms: C_13  and  C_14
REMARK    7  A    between atoms: N_16  and  C_17
REMARK    8  A    between atoms: C_26  and  O_27
REMARK    9  A    between atoms: O_27  and  C_28
REMARK   10  A    between atoms: C_29  and  O_30
REMARK   11  A    between atoms: O_30  and  C_31
REMARK                            x       y       z     vdW  Elec       q    Type
REMARK                         _______ _______ _______ _____ _____    ______ ____
ROOT
ATOM      1  C   UNL     1       2.383   7.796  18.328  0.00  0.00    +0.000 C 
ATOM      2  C   UNL     1       1.842   8.424  19.377  0.00  0.00    +0.000 C 
ATOM      3  S   UNL     1       1.439   7.781  20.910  0.00  0.00    +0.000 S 
ATOM      4  C   UNL     1       0.817   9.323  21.494  0.00  0.00    +0.000 C 
ATOM      5  S   UNL     1       0.207   9.492  23.037  0.00  0.00    +0.000 S 
ATOM      6  N   UNL     1       0.915  10.281  20.498  0.00  0.00    +0.000 N 
ATOM      7  C   UNL     1       1.506   9.870  19.317  0.00  0.00    +0.000 C 
ATOM      8  O   UNL     1       1.727  10.575  18.341  0.00  0.00    +0.000 OA
ENDROOT
BRANCH   1  11
ATOM      9  C   UNL     1       2.099   4.066  17.869  0.00  0.00    +0.000 A 
ATOM     10  C   UNL     1       1.762   5.403  18.147  0.00  0.00    +0.000 A 
ATOM     11  C   UNL     1       2.749   6.380  18.252  0.00  0.00    +0.000 A 
ATOM     12  C   UNL     1       4.086   6.001  18.196  0.00  0.00    +0.000 A 
ATOM     13  C   UNL     1       4.451   4.660  18.001  0.00  0.00    +0.000 A 
ATOM     14  C   UNL     1       3.456   3.670  17.828  0.00  0.00    +0.000 A 
BRANCH   9  16
ATOM     15  C   UNL     1       0.531   2.557  18.827  0.00  0.00    +0.000 C 
ATOM     16  O   UNL     1       1.108   3.139  17.654  0.00  0.00    +0.000 OA
ENDBRANCH   9  16
BRANCH  13  17
ATOM     17  O   UNL     1       5.817   4.523  17.982  0.00  0.00    +0.000 OA
ATOM     18  C   UNL     1       6.625   5.415  18.734  0.00  0.00    +0.000 C 
ENDBRANCH  13  17
BRANCH  14  19
ATOM     19  O   UNL     1       3.920   2.395  17.643  0.00  0.00    +0.000 OA
ATOM     20  C   UNL     1       3.885   1.438  18.688  0.00  0.00    +0.000 C 
ENDBRANCH  14  19
ENDBRANCH   1  11
BRANCH   6  21
ATOM     21  C   UNL     1       0.583  11.699  20.659  0.00  0.00    +0.000 C 
BRANCH  21  22
ATOM     22  C   UNL     1      -0.922  11.992  20.605  0.00  0.00    +0.000 C 
BRANCH  22  23
ATOM     23  C   UNL     1      -1.373  12.075  19.155  0.00  0.00    +0.000 C 
ATOM     24  O   UNL     1      -0.996  12.988  18.430  0.00  0.00    +0.000 OA
ATOM     25  N   UNL     1      -2.230  11.050  18.797  0.00  0.00    +0.000 N 
ATOM     26  H   UNL     1      -2.587  10.457  19.536  0.00  0.00    +0.000 HD
BRANCH  25  27
ATOM     27  C   UNL     1      -2.755  10.824  17.504  0.00  0.00    +0.000 A 
ATOM     28  C   UNL     1      -3.904  11.454  17.019  0.00  0.00    +0.000 A 
ATOM     29  C   UNL     1      -4.381  11.177  15.734  0.00  0.00    +0.000 A 
ATOM     30  C   UNL     1      -3.715  10.265  14.923  0.00  0.00    +0.000 A 
ATOM     31  C   UNL     1      -2.559   9.643  15.390  0.00  0.00    +0.000 A 
ATOM     32  C   UNL     1      -2.074   9.928  16.670  0.00  0.00    +0.000 A 
ENDBRANCH  25  27
ENDBRANCH  22  23
ENDBRANCH  21  22
ENDBRANCH   6  21
TORSDOF 8
ENDMDL
MODEL 4
REMARK VINA RESULT:      -7.7      3.519     10.566
REMARK  Name = 
REMARK  11 active torsions:
REMARK  status: ('A' for Active; 'I' for Inactive)
REMARK    1  A    between atoms: C_1  and  O_2
REMARK    2  A    between atoms: O_2  and  C_3
REMARK    3  A    between atoms: C_5  and  C_6
REMARK    4  A    between atoms: N_11  and  C_12
REMARK    5  A    between atoms: C_12  and  C_13
REMARK    6  A    between atoms: C_13  and  C_14
REMARK    7  A    between atoms: N_16  and  C_17
REMARK    8  A    between atoms: C_26  and  O_27
REMARK    9  A    between atoms: O_27  and  C_28
REMARK   10  A    between atoms: C_29  and  O_30
REMARK   11  A    between atoms: O_30  and  C_31
REMARK                            x       y       z     vdW  Elec       q    Type
REMARK                         _______ _______ _______ _____ _____    ______ ____
ROOT
ATOM      1  C   UNL     1       2.641   7.658  17.883  0.00  0.00    +0.000 C 
ATOM      2  C   UNL     1       2.009   8.362  18.826  0.00  0.00    +0.000 C 
ATOM      3  S   UNL     1       1.575   7.874  20.407  0.00  0.00    +0.000 S 
ATOM      4  C   UNL     1       0.823   9.424  20.778  0.00  0.00    +0.000 C 
ATOM      5  S   UNL     1       0.127   9.725  22.263  0.00  0.00    +0.000 S 
ATOM      6  N   UNL     1       0.905  10.264  19.679  0.00  0.00    +0.000 N 
ATOM      7  C   UNL     1       1.579   9.763  18.581  0.00  0.00    +0.000 C 
ATOM      8  O   UNL     1       1.801  10.364  17.538  0.00  0.00    +0.000 OA
ENDROOT
BRANCH   1  11
ATOM      9  C   UNL     1       4.846   4.690  18.614  0.00  0.00    +0.000 A 
ATOM     10  C   UNL     1       4.434   5.999  18.307  0.00  0.00    +0.000 A 
ATOM     11  C   UNL     1       3.105   6.272  17.992  0.00  0.00    +0.000 A 
ATOM     12  C   UNL     1       2.207   5.218  17.869  0.00  0.00    +0.000 A 
ATOM     13  C   UNL     1       2.612   3.893  18.090  0.00  0.00    +0.000 A 
ATOM     14  C   UNL     1       3.944   3.610  18.474  0.00  0.00    +0.000 A 
BRANCH   9  16
ATOM     15  C   UNL     1       7.170   4.953  18.182  0.00  0.00    +0.000 C 
ATOM     16  O   UNL     1       6.133   4.457  19.035  0.00  0.00    +0.000 OA
ENDBRANCH   9  16
BRANCH  13  17
ATOM     17  O   UNL     1       1.564   3.024  17.910  0.00  0.00    +0.000 OA
ATOM     18  C   UNL     1       0.807   2.592  19.029  0.00  0.00    +0.000 C 
ENDBRANCH  13  17
BRANCH  14  19
ATOM     19  O   UNL     1       4.233   2.286  18.667  0.00  0.00    +0.000 OA
ATOM     20  C   UNL     1       4.426   1.755  19.967  0.00  0.00    +0.000 C 
ENDBRANCH  14  19
ENDBRANCH   1  11
BRANCH   6  21
ATOM     21  C   UNL     1       0.471  11.663  19.658  0.00  0.00    +0.000 C 
BRANCH  21  22
ATOM     22  C   UNL     1      -0.812  11.901  18.851  0.00  0.00    +0.000 C 
BRANCH  22  23
ATOM     23  C   UNL     1      -1.947  12.269  19.794  0.00  0.00    +0.000 C 
ATOM     24  O   UNL     1      -3.116  12.168  19.441  0.00  0.00    +0.000 OA
ATOM     25  N   UNL     1      -1.503  12.722  21.023  0.00  0.00    +0.000 N 
ATOM     26  H   UNL     1      -0.512  12.909  21.123  0.00  0.00    +0.000 HD
BRANCH  25  27
ATOM     27  C   UNL     1      -2.321  13.068  22.122  0.00  0.00    +0.000 A 
ATOM     28  C   UNL     1      -2.828  12.133  23.029  0.00  0.00    +0.000 A 
ATOM     29  C   UNL     1      -3.645  12.538  24.089  0.00  0.00    +0.000 A 
ATOM     30  C   UNL     1      -3.965  13.881  24.251  0.00  0.00    +0.000 A 
ATOM     31  C   UNL     1      -3.452  14.824  23.363  0.00  0.00    +0.000 A 
ATOM     32  C   UNL     1      -2.625  14.422  22.309  0.00  0.00    +0.000 A 
ENDBRANCH  25  27
ENDBRANCH  22  23
ENDBRANCH  21  22
ENDBRANCH   6  21
TORSDOF 8
ENDMDL
MODEL 5
REMARK VINA RESULT:      -7.7      1.138      2.268
REMARK  Name = 
REMARK  11 active torsions:
REMARK  status: ('A' for Active; 'I' for Inactive)
REMARK    1  A    between atoms: C_1  and  O_2
REMARK    2  A    between atoms: O_2  and  C_3
REMARK    3  A    between atoms: C_5  and  C_6
REMARK    4  A    between atoms: N_11  and  C_12
REMARK    5  A    between atoms: C_12  and  C_13
REMARK    6  A    between atoms: C_13  and  C_14
REMARK    7  A    between atoms: N_16  and  C_17
REMARK    8  A    between atoms: C_26  and  O_27
REMARK    9  A    between atoms: O_27  and  C_28
REMARK   10  A    between atoms: C_29  and  O_30
REMARK   11  A    between atoms: O_30  and  C_31
REMARK                            x       y       z     vdW  Elec       q    Type
REMARK                         _______ _______ _______ _____ _____    ______ ____
ROOT
ATOM      1  C   UNL     1       2.230   8.954  17.979  0.00  0.00    +0.000 C 
ATOM      2  C   UNL     1       2.455   7.750  18.514  0.00  0.00    +0.000 C 
ATOM      3  S   UNL     1       1.775   7.071  19.929  0.00  0.00    +0.000 S 
ATOM      4  C   UNL     1       2.690   5.574  19.760  0.00  0.00    +0.000 C 
ATOM      5  S   UNL     1       2.534   4.326  20.855  0.00  0.00    +0.000 S 
ATOM      6  N   UNL     1       3.504   5.641  18.642  0.00  0.00    +0.000 N 
ATOM      7  C   UNL     1       3.400   6.793  17.883  0.00  0.00    +0.000 C 
ATOM      8  O   UNL     1       3.995   7.021  16.838  0.00  0.00    +0.000 OA
ENDROOT
BRANCH   1  11
ATOM      9  C   UNL     1      -0.901  10.923  18.696  0.00  0.00    +0.000 A 
ATOM     10  C   UNL     1       0.021  10.073  18.060  0.00  0.00    +0.000 A 
ATOM     11  C   UNL     1       1.338   9.990  18.504  0.00  0.00    +0.000 A 
ATOM     12  C   UNL     1       1.768  10.844  19.514  0.00  0.00    +0.000 A 
ATOM     13  C   UNL     1       0.888  11.759  20.110  0.00  0.00    +0.000 A 
ATOM     14  C   UNL     1      -0.468  11.807  19.711  0.00  0.00    +0.000 A 
BRANCH   9  16
ATOM     15  C   UNL     1      -2.643   9.772  17.557  0.00  0.00    +0.000 C 
ATOM     16  O   UNL     1      -2.223  10.907  18.320  0.00  0.00    +0.000 OA
ENDBRANCH   9  16
BRANCH  13  17
ATOM     17  O   UNL     1       1.530  12.496  21.076  0.00  0.00    +0.000 OA
ATOM     18  C   UNL     1       2.427  13.527  20.694  0.00  0.00    +0.000 C 
ENDBRANCH  13  17
BRANCH  14  19
ATOM     19  O   UNL     1      -1.240  12.734  20.359  0.00  0.00    +0.000 OA
ATOM     20  C   UNL     1      -1.903  12.424  21.573  0.00  0.00    +0.000 C 
ENDBRANCH  14  19
ENDBRANCH   1  11
BRANCH   6  21
ATOM     21  C   UNL     1       4.332   4.542  18.138  0.00  0.00    +0.000 C 
BRANCH  21  22
ATOM     22  C   UNL     1       5.824   4.691  18.466  0.00  0.00    +0.000 C 
BRANCH  22  23
ATOM     23  C   UNL     1       6.636   4.638  17.182  0.00  0.00    +0.000 C 
ATOM     24  O   UNL     1       7.861   4.601  17.212  0.00  0.00    +0.000 OA
ATOM     25  N   UNL     1       5.850   4.652  16.044  0.00  0.00    +0.000 N 
ATOM     26  H   UNL     1       4.863   4.847  16.159  0.00  0.00    +0.000 HD
BRANCH  25  27
ATOM     27  C   UNL     1       6.316   4.540  14.714  0.00  0.00    +0.000 A 
ATOM     28  C   UNL     1       7.355   5.318  14.195  0.00  0.00    +0.000 A 
ATOM     29  C   UNL     1       7.761   5.170  12.866  0.00  0.00    +0.000 A 
ATOM     30  C   UNL     1       7.130   4.245  12.041  0.00  0.00    +0.000 A 
ATOM     31  C   UNL     1       6.104   3.453  12.552  0.00  0.00    +0.000 A 
ATOM     32  C   UNL     1       5.705   3.591  13.885  0.00  0.00    +0.000 A 
ENDBRANCH  25  27
ENDBRANCH  22  23
ENDBRANCH  21  22
ENDBRANCH   6  21
TORSDOF 8
ENDMDL
MODEL 6
REMARK VINA RESULT:      -7.6      0.989      1.169
REMARK  Name = 
REMARK  11 active torsions:
REMARK  status: ('A' for Active; 'I' for Inactive)
REMARK    1  A    between atoms: C_1  and  O_2
REMARK    2  A    between atoms: O_2  and  C_3
REMARK    3  A    between atoms: C_5  and  C_6
REMARK    4  A    between atoms: N_11  and  C_12
REMARK    5  A    between atoms: C_12  and  C_13
REMARK    6  A    between atoms: C_13  and  C_14
REMARK    7  A    between atoms: N_16  and  C_17
REMARK    8  A    between atoms: C_26  and  O_27
REMARK    9  A    between atoms: O_27  and  C_28
REMARK   10  A    between atoms: C_29  and  O_30
REMARK   11  A    between atoms: O_30  and  C_31
REMARK                            x       y       z     vdW  Elec       q    Type
REMARK                         _______ _______ _______ _____ _____    ______ ____
ROOT
ATOM      1  C   UNL     1       2.096   8.839  18.226  0.00  0.00    +0.000 C 
ATOM      2  C   UNL     1       2.405   7.624  18.688  0.00  0.00    +0.000 C 
ATOM      3  S   UNL     1       1.813   6.834  20.085  0.00  0.00    +0.000 S 
ATOM      4  C   UNL     1       2.801   5.402  19.806  0.00  0.00    +0.000 C 
ATOM      5  S   UNL     1       2.752   4.092  20.837  0.00  0.00    +0.000 S 
ATOM      6  N   UNL     1       3.570   5.573  18.666  0.00  0.00    +0.000 N 
ATOM      7  C   UNL     1       3.377   6.754  17.975  0.00  0.00    +0.000 C 
ATOM      8  O   UNL     1       3.920   7.070  16.924  0.00  0.00    +0.000 OA
ENDROOT
BRANCH   1  11
ATOM      9  C   UNL     1       0.763  11.611  20.403  0.00  0.00    +0.000 A 
ATOM     10  C   UNL     1       1.560  10.551  19.936  0.00  0.00    +0.000 A 
ATOM     11  C   UNL     1       1.168   9.795  18.835  0.00  0.00    +0.000 A 
ATOM     12  C   UNL     1      -0.081  10.021  18.268  0.00  0.00    +0.000 A 
ATOM     13  C   UNL     1      -0.932  11.019  18.767  0.00  0.00    +0.000 A 
ATOM     14  C   UNL     1      -0.517  11.836  19.844  0.00  0.00    +0.000 A 
BRANCH   9  16
ATOM     15  C   UNL     1       2.057  13.508  21.018  0.00  0.00    +0.000 C 
ATOM     16  O   UNL     1       1.219  12.419  21.416  0.00  0.00    +0.000 OA
ENDBRANCH   9  16
BRANCH  13  17
ATOM     17  O   UNL     1      -2.108  11.059  18.057  0.00  0.00    +0.000 OA
ATOM     18  C   UNL     1      -2.567   9.895  17.388  0.00  0.00    +0.000 C 
ENDBRANCH  13  17
BRANCH  14  19
ATOM     19  O   UNL     1      -1.421  12.779  20.250  0.00  0.00    +0.000 OA
ATOM     20  C   UNL     1      -1.339  14.122  19.804  0.00  0.00    +0.000 C 
ENDBRANCH  14  19
ENDBRANCH   1  11
BRANCH   6  21
ATOM     21  C   UNL     1       4.438   4.549  18.077  0.00  0.00    +0.000 C 
BRANCH  21  22
ATOM     22  C   UNL     1       5.929   4.757  18.373  0.00  0.00    +0.000 C 
BRANCH  22  23
ATOM     23  C   UNL     1       6.729   4.611  17.088  0.00  0.00    +0.000 C 
ATOM     24  O   UNL     1       7.936   4.404  17.119  0.00  0.00    +0.000 OA
ATOM     25  N   UNL     1       5.955   4.753  15.951  0.00  0.00    +0.000 N 
ATOM     26  H   UNL     1       5.004   5.082  16.069  0.00  0.00    +0.000 HD
BRANCH  25  27
ATOM     27  C   UNL     1       6.404   4.599  14.620  0.00  0.00    +0.000 A 
ATOM     28  C   UNL     1       7.473   5.319  14.080  0.00  0.00    +0.000 A 
ATOM     29  C   UNL     1       7.861   5.132  12.750  0.00  0.00    +0.000 A 
ATOM     30  C   UNL     1       7.181   4.224  11.945  0.00  0.00    +0.000 A 
ATOM     31  C   UNL     1       6.124   3.488  12.477  0.00  0.00    +0.000 A 
ATOM     32  C   UNL     1       5.743   3.666  13.811  0.00  0.00    +0.000 A 
ENDBRANCH  25  27
ENDBRANCH  22  23
ENDBRANCH  21  22
ENDBRANCH   6  21
TORSDOF 8
ENDMDL
MODEL 7
REMARK VINA RESULT:      -7.5      3.098      9.146
REMARK  Name = 
REMARK  11 active torsions:
REMARK  status: ('A' for Active; 'I' for Inactive)
REMARK    1  A    between atoms: C_1  and  O_2
REMARK    2  A    between atoms: O_2  and  C_3
REMARK    3  A    between atoms: C_5  and  C_6
REMARK    4  A    between atoms: N_11  and  C_12
REMARK    5  A    between atoms: C_12  and  C_13
REMARK    6  A    between atoms: C_13  and  C_14
REMARK    7  A    between atoms: N_16  and  C_17
REMARK    8  A    between atoms: C_26  and  O_27
REMARK    9  A    between atoms: O_27  and  C_28
REMARK   10  A    between atoms: C_29  and  O_30
REMARK   11  A    between atoms: O_30  and  C_31
REMARK                            x       y       z     vdW  Elec       q    Type
REMARK                         _______ _______ _______ _____ _____    ______ ____
ROOT
ATOM      1  C   UNL     1       2.328   8.178  18.578  0.00  0.00    +0.000 C 
ATOM      2  C   UNL     1       1.703   8.762  19.605  0.00  0.00    +0.000 C 
ATOM      3  S   UNL     1       1.224   8.068  21.093  0.00  0.00    +0.000 S 
ATOM      4  C   UNL     1       0.520   9.575  21.674  0.00  0.00    +0.000 C 
ATOM      5  S   UNL     1      -0.191   9.686  23.178  0.00  0.00    +0.000 S 
ATOM      6  N   UNL     1       0.650  10.561  20.709  0.00  0.00    +0.000 N 
ATOM      7  C   UNL     1       1.327  10.199  19.559  0.00  0.00    +0.000 C 
ATOM      8  O   UNL     1       1.588  10.935  18.617  0.00  0.00    +0.000 OA
ENDROOT
BRANCH   1  11
ATOM      9  C   UNL     1       4.160   5.069  17.493  0.00  0.00    +0.000 A 
ATOM     10  C   UNL     1       3.593   6.356  17.473  0.00  0.00    +0.000 A 
ATOM     11  C   UNL     1       2.742   6.775  18.491  0.00  0.00    +0.000 A 
ATOM     12  C   UNL     1       2.361   5.868  19.474  0.00  0.00    +0.000 A 
ATOM     13  C   UNL     1       2.848   4.552  19.471  0.00  0.00    +0.000 A 
ATOM     14  C   UNL     1       3.764   4.134  18.478  0.00  0.00    +0.000 A 
BRANCH   9  16
ATOM     15  C   UNL     1       5.451   5.733  15.610  0.00  0.00    +0.000 C 
ATOM     16  O   UNL     1       5.087   4.712  16.544  0.00  0.00    +0.000 OA
ENDBRANCH   9  16
BRANCH  13  17
ATOM     17  O   UNL     1       2.337   3.839  20.528  0.00  0.00    +0.000 OA
ATOM     18  C   UNL     1       0.991   3.394  20.492  0.00  0.00    +0.000 C 
ENDBRANCH  13  17
BRANCH  14  19
ATOM     19  O   UNL     1       4.178   2.832  18.568  0.00  0.00    +0.000 OA
ATOM     20  C   UNL     1       3.382   1.769  18.073  0.00  0.00    +0.000 C 
ENDBRANCH  14  19
ENDBRANCH   1  11
BRANCH   6  21
ATOM     21  C   UNL     1       0.266  11.964  20.884  0.00  0.00    +0.000 C 
BRANCH  21  22
ATOM     22  C   UNL     1      -1.230  12.227  20.670  0.00  0.00    +0.000 C 
BRANCH  22  23
ATOM     23  C   UNL     1      -1.544  12.209  19.183  0.00  0.00    +0.000 C 
ATOM     24  O   UNL     1      -1.028  13.018  18.420  0.00  0.00    +0.000 OA
ATOM     25  N   UNL     1      -2.450  11.223  18.834  0.00  0.00    +0.000 N 
ATOM     26  H   UNL     1      -2.920  10.731  19.584  0.00  0.00    +0.000 HD
BRANCH  25  27
ATOM     27  C   UNL     1      -2.877  10.919  17.521  0.00  0.00    +0.000 A 
ATOM     28  C   UNL     1      -4.015  11.477  16.933  0.00  0.00    +0.000 A 
ATOM     29  C   UNL     1      -4.393  11.124  15.634  0.00  0.00    +0.000 A 
ATOM     30  C   UNL     1      -3.638  10.207  14.911  0.00  0.00    +0.000 A 
ATOM     31  C   UNL     1      -2.492   9.656  15.481  0.00  0.00    +0.000 A 
ATOM     32  C   UNL     1      -2.106  10.018  16.776  0.00  0.00    +0.000 A 
ENDBRANCH  25  27
ENDBRANCH  22  23
ENDBRANCH  21  22
ENDBRANCH   6  21
TORSDOF 8
ENDMDL
MODEL 8
REMARK VINA RESULT:      -7.5      3.917      9.804
REMARK  Name = 
REMARK  11 active torsions:
REMARK  status: ('A' for Active; 'I' for Inactive)
REMARK    1  A    between atoms: C_1  and  O_2
REMARK    2  A    between atoms: O_2  and  C_3
REMARK    3  A    between atoms: C_5  and  C_6
REMARK    4  A    between atoms: N_11  and  C_12
REMARK    5  A    between atoms: C_12  and  C_13
REMARK    6  A    between atoms: C_13  and  C_14
REMARK    7  A    between atoms: N_16  and  C_17
REMARK    8  A    between atoms: C_26  and  O_27
REMARK    9  A    between atoms: O_27  and  C_28
REMARK   10  A    between atoms: C_29  and  O_30
REMARK   11  A    between atoms: O_30  and  C_31
REMARK                            x       y       z     vdW  Elec       q    Type
REMARK                         _______ _______ _______ _____ _____    ______ ____
ROOT
ATOM      1  C   UNL     1       2.619   7.517  18.098  0.00  0.00    +0.000 C 
ATOM      2  C   UNL     1       1.978   8.284  18.985  0.00  0.00    +0.000 C 
ATOM      3  S   UNL     1       1.547   7.913  20.597  0.00  0.00    +0.000 S 
ATOM      4  C   UNL     1       0.779   9.479  20.849  0.00  0.00    +0.000 C 
ATOM      5  S   UNL     1       0.078   9.885  22.307  0.00  0.00    +0.000 S 
ATOM      6  N   UNL     1       0.855  10.235  19.691  0.00  0.00    +0.000 N 
ATOM      7  C   UNL     1       1.536   9.659  18.634  0.00  0.00    +0.000 C 
ATOM      8  O   UNL     1       1.754  10.182  17.549  0.00  0.00    +0.000 OA
ENDROOT
BRANCH   1  11
ATOM      9  C   UNL     1       4.943   4.612  18.699  0.00  0.00    +0.000 A 
ATOM     10  C   UNL     1       4.461   5.870  18.297  0.00  0.00    +0.000 A 
ATOM     11  C   UNL     1       3.097   6.149  18.311  0.00  0.00    +0.000 A 
ATOM     12  C   UNL     1       2.200   5.131  18.617  0.00  0.00    +0.000 A 
ATOM     13  C   UNL     1       2.652   3.843  18.943  0.00  0.00    +0.000 A 
ATOM     14  C   UNL     1       4.038   3.566  18.995  0.00  0.00    +0.000 A 
BRANCH   9  16
ATOM     15  C   UNL     1       7.079   5.492  19.263  0.00  0.00    +0.000 C 
ATOM     16  O   UNL     1       6.296   4.392  18.789  0.00  0.00    +0.000 OA
ENDBRANCH   9  16
BRANCH  13  17
ATOM     17  O   UNL     1       1.595   3.006  19.204  0.00  0.00    +0.000 OA
ATOM     18  C   UNL     1       0.674   3.333  20.233  0.00  0.00    +0.000 C 
ENDBRANCH  13  17
BRANCH  14  19
ATOM     19  O   UNL     1       4.369   2.280  19.325  0.00  0.00    +0.000 OA
ATOM     20  C   UNL     1       4.022   1.190  18.488  0.00  0.00    +0.000 C 
ENDBRANCH  14  19
ENDBRANCH   1  11
BRANCH   6  21
ATOM     21  C   UNL     1       0.407  11.624  19.563  0.00  0.00    +0.000 C 
BRANCH  21  22
ATOM     22  C   UNL     1       1.460  12.655  19.990  0.00  0.00    +0.000 C 
BRANCH  22  23
ATOM     23  C   UNL     1       1.553  13.754  18.943  0.00  0.00    +0.000 C 
ATOM     24  O   UNL     1       2.131  13.563  17.880  0.00  0.00    +0.000 OA
ATOM     25  N   UNL     1       0.945  14.931  19.341  0.00  0.00    +0.000 N 
ATOM     26  H   UNL     1       0.648  15.002  20.307  0.00  0.00    +0.000 HD
BRANCH  25  27
ATOM     27  C   UNL     1       0.809  16.098  18.555  0.00  0.00    +0.000 A 
ATOM     28  C   UNL     1      -0.424  16.675  18.241  0.00  0.00    +0.000 A 
ATOM     29  C   UNL     1      -0.493  17.823  17.447  0.00  0.00    +0.000 A 
ATOM     30  C   UNL     1       0.671  18.404  16.956  0.00  0.00    +0.000 A 
ATOM     31  C   UNL     1       1.908  17.847  17.275  0.00  0.00    +0.000 A 
ATOM     32  C   UNL     1       1.978  16.706  18.080  0.00  0.00    +0.000 A 
ENDBRANCH  25  27
ENDBRANCH  22  23
ENDBRANCH  21  22
ENDBRANCH   6  21
TORSDOF 8
ENDMDL
MODEL 9
REMARK VINA RESULT:      -7.4      3.715     10.341
REMARK  Name = 
REMARK  11 active torsions:
REMARK  status: ('A' for Active; 'I' for Inactive)
REMARK    1  A    between atoms: C_1  and  O_2
REMARK    2  A    between atoms: O_2  and  C_3
REMARK    3  A    between atoms: C_5  and  C_6
REMARK    4  A    between atoms: N_11  and  C_12
REMARK    5  A    between atoms: C_12  and  C_13
REMARK    6  A    between atoms: C_13  and  C_14
REMARK    7  A    between atoms: N_16  and  C_17
REMARK    8  A    between atoms: C_26  and  O_27
REMARK    9  A    between atoms: O_27  and  C_28
REMARK   10  A    between atoms: C_29  and  O_30
REMARK   11  A    between atoms: O_30  and  C_31
REMARK                            x       y       z     vdW  Elec       q    Type
REMARK                         _______ _______ _______ _____ _____    ______ ____
ROOT
ATOM      1  C   UNL     1       2.690   7.357  18.410  0.00  0.00    +0.000 C 
ATOM      2  C   UNL     1       1.946   8.188  19.145  0.00  0.00    +0.000 C 
ATOM      3  S   UNL     1       1.405   7.989  20.755  0.00  0.00    +0.000 S 
ATOM      4  C   UNL     1       0.548   9.529  20.755  0.00  0.00    +0.000 C 
ATOM      5  S   UNL     1      -0.284  10.067  22.095  0.00  0.00    +0.000 S 
ATOM      6  N   UNL     1       0.681  10.144  19.520  0.00  0.00    +0.000 N 
ATOM      7  C   UNL     1       1.471   9.484  18.595  0.00  0.00    +0.000 C 
ATOM      8  O   UNL     1       1.750   9.884  17.473  0.00  0.00    +0.000 OA
ENDROOT
BRANCH   1  11
ATOM      9  C   UNL     1       2.820   3.702  19.317  0.00  0.00    +0.000 A 
ATOM     10  C   UNL     1       2.338   5.008  19.118  0.00  0.00    +0.000 A 
ATOM     11  C   UNL     1       3.211   6.052  18.825  0.00  0.00    +0.000 A 
ATOM     12  C   UNL     1       4.582   5.816  18.845  0.00  0.00    +0.000 A 
ATOM     13  C   UNL     1       5.092   4.539  19.123  0.00  0.00    +0.000 A 
ATOM     14  C   UNL     1       4.212   3.457  19.358  0.00  0.00    +0.000 A 
BRANCH   9  16
ATOM     15  C   UNL     1       1.202   2.666  20.719  0.00  0.00    +0.000 C 
ATOM     16  O   UNL     1       1.937   2.663  19.491  0.00  0.00    +0.000 OA
ENDBRANCH   9  16
BRANCH  13  17
ATOM     17  O   UNL     1       6.465   4.543  19.092  0.00  0.00    +0.000 OA
ATOM     18  C   UNL     1       7.160   5.757  18.853  0.00  0.00    +0.000 C 
ENDBRANCH  13  17
BRANCH  14  19
ATOM     19  O   UNL     1       4.813   2.254  19.616  0.00  0.00    +0.000 OA
ATOM     20  C   UNL     1       4.840   1.708  20.924  0.00  0.00    +0.000 C 
ENDBRANCH  14  19
ENDBRANCH   1  11
BRANCH   6  21
ATOM     21  C   UNL     1       0.182  11.481  19.189  0.00  0.00    +0.000 C 
BRANCH  21  22
ATOM     22  C   UNL     1      -0.947  11.480  18.151  0.00  0.00    +0.000 C 
BRANCH  22  23
ATOM     23  C   UNL     1      -2.250  11.895  18.815  0.00  0.00    +0.000 C 
ATOM     24  O   UNL     1      -2.254  12.419  19.923  0.00  0.00    +0.000 OA
ATOM     25  N   UNL     1      -3.364  11.602  18.049  0.00  0.00    +0.000 N 
ATOM     26  H   UNL     1      -3.230  11.024  17.229  0.00  0.00    +0.000 HD
BRANCH  25  27
ATOM     27  C   UNL     1      -4.700  11.933  18.371  0.00  0.00    +0.000 A 
ATOM     28  C   UNL     1      -5.175  12.029  19.682  0.00  0.00    +0.000 A 
ATOM     29  C   UNL     1      -6.513  12.346  19.935  0.00  0.00    +0.000 A 
ATOM     30  C   UNL     1      -7.390  12.567  18.879  0.00  0.00    +0.000 A 
ATOM     31  C   UNL     1      -6.925  12.489  17.568  0.00  0.00    +0.000 A 
ATOM     32  C   UNL     1      -5.584  12.184  17.314  0.00  0.00    +0.000 A 
ENDBRANCH  25  27
ENDBRANCH  22  23
ENDBRANCH  21  22
ENDBRANCH   6  21
TORSDOF 8
ENDMDL
