MODEL 1
REMARK VINA RESULT:      -7.4      0.000      0.000
REMARK  Name = 
REMARK  8 active torsions:
REMARK  status: ('A' for Active; 'I' for Inactive)
REMARK    1  A    between atoms: C_1  and  C_2
REMARK    2  A    between atoms: C_2  and  C_3
REMARK    3  A    between atoms: C_2  and  N_15
REMARK    4  A    between atoms: N_5  and  C_6
REMARK    5  A    between atoms: C_6  and  C_7
REMARK    6  A    between atoms: C_7  and  C_8
REMARK    7  A    between atoms: C_7  and  O_9
REMARK    8  A    between atoms: C_7  and  C_10
REMARK                            x       y       z     vdW  Elec       q    Type
REMARK                         _______ _______ _______ _____ _____    ______ ____
ROOT
ATOM      1  C   UNL     1       4.896   3.336  18.350  0.00  0.00    +0.000 C 
ATOM      2  O   UNL     1       5.563   3.746  19.298  0.00  0.00    +0.000 OA
ATOM      3  N   UNL     1       5.247   3.588  17.034  0.00  0.00    +0.000 N 
ATOM      4  H   UNL     1       4.801   2.945  16.376  0.00  0.00    +0.000 HD
ENDROOT
BRANCH   1   6
ATOM      5  C   UNL     1       2.924   2.332  17.158  0.00  0.00    +0.000 C 
ATOM      6  C   UNL     1       3.561   2.573  18.525  0.00  0.00    +0.000 C 
BRANCH   6   7
ATOM      7  N   UNL     1       2.677   3.290  19.475  0.00  0.00    +0.000 N 
ATOM      8  C   UNL     1       2.639   2.956  20.911  0.00  0.00    +0.000 C 
ATOM      9  C   UNL     1       1.888   4.092  21.629  0.00  0.00    +0.000 C 
ATOM     10  C   UNL     1       2.059   5.200  20.645  0.00  0.00    +0.000 A 
ATOM     11  C   UNL     1       1.772   6.545  20.820  0.00  0.00    +0.000 A 
ATOM     12  C   UNL     1       1.969   7.405  19.743  0.00  0.00    +0.000 A 
ATOM     13  C   UNL     1       2.440   6.907  18.521  0.00  0.00    +0.000 A 
ATOM     14  C   UNL     1       2.712   5.542  18.359  0.00  0.00    +0.000 A 
ATOM     15  C   UNL     1       2.526   4.682  19.430  0.00  0.00    +0.000 A 
ENDBRANCH   6   7
ENDBRANCH   1   6
BRANCH   3  16
ATOM     16  C   UNL     1       6.534   4.217  16.757  0.00  0.00    +0.000 C 
BRANCH  16  17
ATOM     17  C   UNL     1       6.507   5.343  15.688  0.00  0.00    +0.000 C 
ATOM     18  C   UNL     1       5.246   6.207  15.827  0.00  0.00    +0.000 C 
BRANCH  17  19
ATOM     19  C   UNL     1       6.587   4.737  14.289  0.00  0.00    +0.000 A 
ATOM     20  C   UNL     1       7.559   5.095  13.287  0.00  0.00    +0.000 A 
ATOM     21  C   UNL     1       7.392   4.408  12.104  0.00  0.00    +0.000 A 
ATOM     22  S   UNL     1       6.078   3.322  12.177  0.00  0.00    +0.000 S 
ATOM     23  C   UNL     1       5.728   3.772  13.788  0.00  0.00    +0.000 A 
ENDBRANCH  17  19
BRANCH  17  24
ATOM     24  O   UNL     1       7.629   6.216  15.915  0.00  0.00    +0.000 OA
ATOM     25  H   UNL     1       8.382   5.646  16.153  0.00  0.00    +0.000 HD
ENDBRANCH  17  24
ENDBRANCH  16  17
ENDBRANCH   3  16
TORSDOF 6
ENDMDL
MODEL 2
REMARK VINA RESULT:      -7.4      2.253      3.531
REMARK  Name = 
REMARK  8 active torsions:
REMARK  status: ('A' for Active; 'I' for Inactive)
REMARK    1  A    between atoms: C_1  and  C_2
REMARK    2  A    between atoms: C_2  and  C_3
REMARK    3  A    between atoms: C_2  and  N_15
REMARK    4  A    between atoms: N_5  and  C_6
REMARK    5  A    between atoms: C_6  and  C_7
REMARK    6  A    between atoms: C_7  and  C_8
REMARK    7  A    between atoms: C_7  and  O_9
REMARK    8  A    between atoms: C_7  and  C_10
REMARK                            x       y       z     vdW  Elec       q    Type
REMARK                         _______ _______ _______ _____ _____    ______ ____
ROOT
ATOM      1  C   UNL     1       3.766   4.785  19.433  0.00  0.00    +0.000 C 
ATOM      2  O   UNL     1       3.897   3.681  19.960  0.00  0.00    +0.000 OA
ATOM      3  N   UNL     1       4.842   5.624  19.196  0.00  0.00    +0.000 N 
ATOM      4  H   UNL     1       4.639   6.338  18.494  0.00  0.00    +0.000 HD
ENDROOT
BRANCH   1   6
ATOM      5  C   UNL     1       1.836   4.661  17.829  0.00  0.00    +0.000 C 
ATOM      6  C   UNL     1       2.388   5.381  19.057  0.00  0.00    +0.000 C 
BRANCH   6   7
ATOM      7  N   UNL     1       2.490   6.851  18.890  0.00  0.00    +0.000 N 
ATOM      8  C   UNL     1       2.458   7.489  17.561  0.00  0.00    +0.000 C 
ATOM      9  C   UNL     1       2.249   8.998  17.780  0.00  0.00    +0.000 C 
ATOM     10  C   UNL     1       1.638   8.997  19.140  0.00  0.00    +0.000 A 
ATOM     11  C   UNL     1       1.038  10.057  19.804  0.00  0.00    +0.000 A 
ATOM     12  C   UNL     1       0.569   9.841  21.098  0.00  0.00    +0.000 A 
ATOM     13  C   UNL     1       0.714   8.583  21.699  0.00  0.00    +0.000 A 
ATOM     14  C   UNL     1       1.334   7.529  21.016  0.00  0.00    +0.000 A 
ATOM     15  C   UNL     1       1.795   7.735  19.726  0.00  0.00    +0.000 A 
ENDBRANCH   6   7
ENDBRANCH   1   6
BRANCH   3  16
ATOM     16  C   UNL     1       6.191   5.120  19.428  0.00  0.00    +0.000 C 
BRANCH  16  17
ATOM     17  C   UNL     1       7.212   5.408  18.294  0.00  0.00    +0.000 C 
ATOM     18  C   UNL     1       7.846   6.796  18.461  0.00  0.00    +0.000 C 
BRANCH  17  19
ATOM     19  C   UNL     1       6.527   5.295  16.934  0.00  0.00    +0.000 A 
ATOM     20  C   UNL     1       5.720   6.323  16.326  0.00  0.00    +0.000 A 
ATOM     21  C   UNL     1       5.205   5.952  15.104  0.00  0.00    +0.000 A 
ATOM     22  S   UNL     1       5.684   4.375  14.661  0.00  0.00    +0.000 S 
ATOM     23  C   UNL     1       6.577   4.185  16.106  0.00  0.00    +0.000 A 
ENDBRANCH  17  19
BRANCH  17  24
ATOM     24  O   UNL     1       8.284   4.453  18.390  0.00  0.00    +0.000 OA
ATOM     25  H   UNL     1       9.096   4.915  18.113  0.00  0.00    +0.000 HD
ENDBRANCH  17  24
ENDBRANCH  16  17
ENDBRANCH   3  16
TORSDOF 6
ENDMDL
MODEL 3
REMARK VINA RESULT:      -7.4      2.094      3.550
REMARK  Name = 
REMARK  8 active torsions:
REMARK  status: ('A' for Active; 'I' for Inactive)
REMARK    1  A    between atoms: C_1  and  C_2
REMARK    2  A    between atoms: C_2  and  C_3
REMARK    3  A    between atoms: C_2  and  N_15
REMARK    4  A    between atoms: N_5  and  C_6
REMARK    5  A    between atoms: C_6  and  C_7
REMARK    6  A    between atoms: C_7  and  C_8
REMARK    7  A    between atoms: C_7  and  O_9
REMARK    8  A    between atoms: C_7  and  C_10
REMARK                            x       y       z     vdW  Elec       q    Type
REMARK                         _______ _______ _______ _____ _____    ______ ____
ROOT
ATOM      1  C   UNL     1       3.378   4.753  19.220  0.00  0.00    +0.000 C 
ATOM      2  O   UNL     1       2.825   3.934  18.488  0.00  0.00    +0.000 OA
ATOM      3  N   UNL     1       4.756   4.820  19.346  0.00  0.00    +0.000 N 
ATOM      4  H   UNL     1       5.076   5.714  19.722  0.00  0.00    +0.000 HD
ENDROOT
BRANCH   1   6
ATOM      5  C   UNL     1       1.238   5.135  20.479  0.00  0.00    +0.000 C 
ATOM      6  C   UNL     1       2.600   5.731  20.132  0.00  0.00    +0.000 C 
BRANCH   6   7
ATOM      7  N   UNL     1       2.520   7.072  19.503  0.00  0.00    +0.000 N 
ATOM      8  C   UNL     1       2.416   7.243  18.042  0.00  0.00    +0.000 C 
ATOM      9  C   UNL     1       2.021   8.707  17.777  0.00  0.00    +0.000 C 
ATOM     10  C   UNL     1       1.408   9.068  19.088  0.00  0.00    +0.000 A 
ATOM     11  C   UNL     1       0.680  10.206  19.402  0.00  0.00    +0.000 A 
ATOM     12  C   UNL     1       0.235  10.361  20.712  0.00  0.00    +0.000 A 
ATOM     13  C   UNL     1       0.531   9.388  21.676  0.00  0.00    +0.000 A 
ATOM     14  C   UNL     1       1.279   8.252  21.343  0.00  0.00    +0.000 A 
ATOM     15  C   UNL     1       1.718   8.088  20.039  0.00  0.00    +0.000 A 
ENDBRANCH   6   7
ENDBRANCH   1   6
BRANCH   3  16
ATOM     16  C   UNL     1       5.584   4.006  18.463  0.00  0.00    +0.000 C 
BRANCH  16  17
ATOM     17  C   UNL     1       6.717   4.769  17.724  0.00  0.00    +0.000 C 
ATOM     18  C   UNL     1       6.743   6.248  18.131  0.00  0.00    +0.000 C 
BRANCH  17  19
ATOM     19  C   UNL     1       6.539   4.634  16.214  0.00  0.00    +0.000 A 
ATOM     20  C   UNL     1       5.363   4.112  15.563  0.00  0.00    +0.000 A 
ATOM     21  C   UNL     1       5.475   4.083  14.190  0.00  0.00    +0.000 A 
ATOM     22  S   UNL     1       6.981   4.685  13.659  0.00  0.00    +0.000 S 
ATOM     23  C   UNL     1       7.487   4.982  15.265  0.00  0.00    +0.000 A 
ENDBRANCH  17  19
BRANCH  17  24
ATOM     24  O   UNL     1       7.981   4.210  18.126  0.00  0.00    +0.000 OA
ATOM     25  H   UNL     1       8.147   3.447  17.544  0.00  0.00    +0.000 HD
ENDBRANCH  17  24
ENDBRANCH  16  17
ENDBRANCH   3  16
TORSDOF 6
ENDMDL
MODEL 4
REMARK VINA RESULT:      -7.3      4.633      7.913
REMARK  Name = 
REMARK  8 active torsions:
REMARK  status: ('A' for Active; 'I' for Inactive)
REMARK    1  A    between atoms: C_1  and  C_2
REMARK    2  A    between atoms: C_2  and  C_3
REMARK    3  A    between atoms: C_2  and  N_15
REMARK    4  A    between atoms: N_5  and  C_6
REMARK    5  A    between atoms: C_6  and  C_7
REMARK    6  A    between atoms: C_7  and  C_8
REMARK    7  A    between atoms: C_7  and  O_9
REMARK    8  A    between atoms: C_7  and  C_10
REMARK                            x       y       z     vdW  Elec       q    Type
REMARK                         _______ _______ _______ _____ _____    ______ ____
ROOT
ATOM      1  C   UNL     1       2.621   7.701  18.403  0.00  0.00    +0.000 C 
ATOM      2  O   UNL     1       2.373   8.435  17.448  0.00  0.00    +0.000 OA
ATOM      3  N   UNL     1       2.125   7.945  19.673  0.00  0.00    +0.000 N 
ATOM      4  H   UNL     1       2.146   7.117  20.271  0.00  0.00    +0.000 HD
ENDROOT
BRANCH   1   6
ATOM      5  C   UNL     1       4.573   6.704  17.174  0.00  0.00    +0.000 C 
ATOM      6  C   UNL     1       3.571   6.484  18.306  0.00  0.00    +0.000 C 
BRANCH   6   7
ATOM      7  N   UNL     1       2.792   5.228  18.175  0.00  0.00    +0.000 N 
ATOM      8  C   UNL     1       3.043   4.264  17.088  0.00  0.00    +0.000 C 
ATOM      9  C   UNL     1       2.308   2.961  17.450  0.00  0.00    +0.000 C 
ATOM     10  C   UNL     1       2.182   3.118  18.928  0.00  0.00    +0.000 A 
ATOM     11  C   UNL     1       1.784   2.165  19.853  0.00  0.00    +0.000 A 
ATOM     12  C   UNL     1       1.695   2.543  21.190  0.00  0.00    +0.000 A 
ATOM     13  C   UNL     1       1.997   3.858  21.571  0.00  0.00    +0.000 A 
ATOM     14  C   UNL     1       2.385   4.809  20.620  0.00  0.00    +0.000 A 
ATOM     15  C   UNL     1       2.484   4.437  19.289  0.00  0.00    +0.000 A 
ENDBRANCH   6   7
ENDBRANCH   1   6
BRANCH   3  16
ATOM     16  C   UNL     1       1.146   9.012  19.852  0.00  0.00    +0.000 C 
BRANCH  16  17
ATOM     17  C   UNL     1       0.683   9.250  21.316  0.00  0.00    +0.000 C 
ATOM     18  C   UNL     1      -0.484   8.324  21.683  0.00  0.00    +0.000 C 
BRANCH  17  19
ATOM     19  C   UNL     1       0.285  10.711  21.506  0.00  0.00    +0.000 A 
ATOM     20  C   UNL     1       0.845  11.823  20.778  0.00  0.00    +0.000 A 
ATOM     21  C   UNL     1       0.319  13.037  21.161  0.00  0.00    +0.000 A 
ATOM     22  S   UNL     1      -0.854  12.867  22.388  0.00  0.00    +0.000 S 
ATOM     23  C   UNL     1      -0.658  11.170  22.411  0.00  0.00    +0.000 A 
ENDBRANCH  17  19
BRANCH  17  24
ATOM     24  O   UNL     1       1.768   8.913  22.199  0.00  0.00    +0.000 OA
ATOM     25  H   UNL     1       2.031   9.738  22.645  0.00  0.00    +0.000 HD
ENDBRANCH  17  24
ENDBRANCH  16  17
ENDBRANCH   3  16
TORSDOF 6
ENDMDL
MODEL 5
REMARK VINA RESULT:      -7.3      1.798      3.176
REMARK  Name = 
REMARK  8 active torsions:
REMARK  status: ('A' for Active; 'I' for Inactive)
REMARK    1  A    between atoms: C_1  and  C_2
REMARK    2  A    between atoms: C_2  and  C_3
REMARK    3  A    between atoms: C_2  and  N_15
REMARK    4  A    between atoms: N_5  and  C_6
REMARK    5  A    between atoms: C_6  and  C_7
REMARK    6  A    between atoms: C_7  and  C_8
REMARK    7  A    between atoms: C_7  and  O_9
REMARK    8  A    between atoms: C_7  and  C_10
REMARK                            x       y       z     vdW  Elec       q    Type
REMARK                         _______ _______ _______ _____ _____    ______ ____
ROOT
ATOM      1  C   UNL     1       4.319   5.436  18.749  0.00  0.00    +0.000 C 
ATOM      2  O   UNL     1       5.388   5.530  19.351  0.00  0.00    +0.000 OA
ATOM      3  N   UNL     1       4.247   5.021  17.430  0.00  0.00    +0.000 N 
ATOM      4  H   UNL     1       3.315   4.696  17.168  0.00  0.00    +0.000 HD
ENDROOT
BRANCH   1   6
ATOM      5  C   UNL     1       1.864   4.914  18.864  0.00  0.00    +0.000 C 
ATOM      6  C   UNL     1       2.963   5.846  19.370  0.00  0.00    +0.000 C 
BRANCH   6   7
ATOM      7  N   UNL     1       2.691   7.281  19.116  0.00  0.00    +0.000 N 
ATOM      8  C   UNL     1       2.578   7.824  17.750  0.00  0.00    +0.000 C 
ATOM      9  C   UNL     1       1.972   9.234  17.863  0.00  0.00    +0.000 C 
ATOM     10  C   UNL     1       1.298   9.139  19.191  0.00  0.00    +0.000 A 
ATOM     11  C   UNL     1       0.405  10.035  19.758  0.00  0.00    +0.000 A 
ATOM     12  C   UNL     1      -0.072   9.767  21.039  0.00  0.00    +0.000 A 
ATOM     13  C   UNL     1       0.356   8.621  21.723  0.00  0.00    +0.000 A 
ATOM     14  C   UNL     1       1.269   7.735  21.139  0.00  0.00    +0.000 A 
ATOM     15  C   UNL     1       1.740   7.991  19.861  0.00  0.00    +0.000 A 
ENDBRANCH   6   7
ENDBRANCH   1   6
BRANCH   3  16
ATOM     16  C   UNL     1       5.456   4.523  16.782  0.00  0.00    +0.000 C 
BRANCH  16  17
ATOM     17  C   UNL     1       6.093   5.480  15.738  0.00  0.00    +0.000 C 
ATOM     18  C   UNL     1       5.256   6.755  15.575  0.00  0.00    +0.000 C 
BRANCH  17  19
ATOM     19  C   UNL     1       6.243   4.765  14.397  0.00  0.00    +0.000 A 
ATOM     20  C   UNL     1       5.266   3.875  13.821  0.00  0.00    +0.000 A 
ATOM     21  C   UNL     1       5.663   3.350  12.610  0.00  0.00    +0.000 A 
ATOM     22  S   UNL     1       7.204   3.916  12.143  0.00  0.00    +0.000 S 
ATOM     23  C   UNL     1       7.343   4.861  13.560  0.00  0.00    +0.000 A 
ENDBRANCH  17  19
BRANCH  17  24
ATOM     24  O   UNL     1       7.382   5.894  16.225  0.00  0.00    +0.000 OA
ATOM     25  H   UNL     1       7.386   6.868  16.211  0.00  0.00    +0.000 HD
ENDBRANCH  17  24
ENDBRANCH  16  17
ENDBRANCH   3  16
TORSDOF 6
ENDMDL
MODEL 6
REMARK VINA RESULT:      -7.3      4.467      7.464
REMARK  Name = 
REMARK  8 active torsions:
REMARK  status: ('A' for Active; 'I' for Inactive)
REMARK    1  A    between atoms: C_1  and  C_2
REMARK    2  A    between atoms: C_2  and  C_3
REMARK    3  A    between atoms: C_2  and  N_15
REMARK    4  A    between atoms: N_5  and  C_6
REMARK    5  A    between atoms: C_6  and  C_7
REMARK    6  A    between atoms: C_7  and  C_8
REMARK    7  A    between atoms: C_7  and  O_9
REMARK    8  A    between atoms: C_7  and  C_10
REMARK                            x       y       z     vdW  Elec       q    Type
REMARK                         _______ _______ _______ _____ _____    ______ ____
ROOT
ATOM      1  C   UNL     1       2.215   7.035  19.060  0.00  0.00    +0.000 C 
ATOM      2  O   UNL     1       1.999   6.734  20.232  0.00  0.00    +0.000 OA
ATOM      3  N   UNL     1       1.854   8.264  18.533  0.00  0.00    +0.000 N 
ATOM      4  H   UNL     1       2.359   8.490  17.674  0.00  0.00    +0.000 HD
ENDROOT
BRANCH   1   6
ATOM      5  C   UNL     1       2.096   4.716  18.100  0.00  0.00    +0.000 C 
ATOM      6  C   UNL     1       2.833   6.052  18.037  0.00  0.00    +0.000 C 
BRANCH   6   7
ATOM      7  N   UNL     1       4.296   5.935  18.250  0.00  0.00    +0.000 N 
ATOM      8  C   UNL     1       4.861   5.343  19.476  0.00  0.00    +0.000 C 
ATOM      9  C   UNL     1       6.355   5.081  19.214  0.00  0.00    +0.000 C 
ATOM     10  C   UNL     1       6.368   5.029  17.723  0.00  0.00    +0.000 A 
ATOM     11  C   UNL     1       7.403   4.620  16.896  0.00  0.00    +0.000 A 
ATOM     12  C   UNL     1       7.213   4.696  15.519  0.00  0.00    +0.000 A 
ATOM     13  C   UNL     1       6.004   5.181  15.001  0.00  0.00    +0.000 A 
ATOM     14  C   UNL     1       4.976   5.601  15.853  0.00  0.00    +0.000 A 
ATOM     15  C   UNL     1       5.156   5.521  17.224  0.00  0.00    +0.000 A 
ENDBRANCH   6   7
ENDBRANCH   1   6
BRANCH   3  16
ATOM     16  C   UNL     1       1.351   9.295  19.434  0.00  0.00    +0.000 C 
BRANCH  16  17
ATOM     17  C   UNL     1       1.034  10.662  18.770  0.00  0.00    +0.000 C 
ATOM     18  C   UNL     1       1.440  11.827  19.682  0.00  0.00    +0.000 C 
BRANCH  17  19
ATOM     19  C   UNL     1      -0.452  10.745  18.428  0.00  0.00    +0.000 A 
ATOM     20  C   UNL     1      -1.141   9.866  17.517  0.00  0.00    +0.000 A 
ATOM     21  C   UNL     1      -2.476  10.174  17.376  0.00  0.00    +0.000 A 
ATOM     22  S   UNL     1      -2.927  11.512  18.335  0.00  0.00    +0.000 S 
ATOM     23  C   UNL     1      -1.336  11.683  18.937  0.00  0.00    +0.000 A 
ENDBRANCH  17  19
BRANCH  17  24
ATOM     24  O   UNL     1       1.825  10.784  17.573  0.00  0.00    +0.000 OA
ATOM     25  H   UNL     1       1.983   9.879  17.250  0.00  0.00    +0.000 HD
ENDBRANCH  17  24
ENDBRANCH  16  17
ENDBRANCH   3  16
TORSDOF 6
ENDMDL
MODEL 7
REMARK VINA RESULT:      -7.2      4.626      7.997
REMARK  Name = 
REMARK  8 active torsions:
REMARK  status: ('A' for Active; 'I' for Inactive)
REMARK    1  A    between atoms: C_1  and  C_2
REMARK    2  A    between atoms: C_2  and  C_3
REMARK    3  A    between atoms: C_2  and  N_15
REMARK    4  A    between atoms: N_5  and  C_6
REMARK    5  A    between atoms: C_6  and  C_7
REMARK    6  A    between atoms: C_7  and  C_8
REMARK    7  A    between atoms: C_7  and  O_9
REMARK    8  A    between atoms: C_7  and  C_10
REMARK                            x       y       z     vdW  Elec       q    Type
REMARK                         _______ _______ _______ _____ _____    ______ ____
ROOT
ATOM      1  C   UNL     1       2.598   7.818  18.371  0.00  0.00    +0.000 C 
ATOM      2  O   UNL     1       2.439   8.495  17.356  0.00  0.00    +0.000 OA
ATOM      3  N   UNL     1       2.020   8.154  19.583  0.00  0.00    +0.000 N 
ATOM      4  H   UNL     1       1.976   7.366  20.233  0.00  0.00    +0.000 HD
ENDROOT
BRANCH   1   6
ATOM      5  C   UNL     1       4.637   6.726  17.388  0.00  0.00    +0.000 C 
ATOM      6  C   UNL     1       3.520   6.576  18.419  0.00  0.00    +0.000 C 
BRANCH   6   7
ATOM      7  N   UNL     1       2.725   5.335  18.259  0.00  0.00    +0.000 N 
ATOM      8  C   UNL     1       2.953   4.401  17.141  0.00  0.00    +0.000 C 
ATOM      9  C   UNL     1       2.206   3.096  17.471  0.00  0.00    +0.000 C 
ATOM     10  C   UNL     1       2.095   3.210  18.955  0.00  0.00    +0.000 A 
ATOM     11  C   UNL     1       1.693   2.236  19.855  0.00  0.00    +0.000 A 
ATOM     12  C   UNL     1       1.621   2.575  21.204  0.00  0.00    +0.000 A 
ATOM     13  C   UNL     1       1.944   3.874  21.620  0.00  0.00    +0.000 A 
ATOM     14  C   UNL     1       2.335   4.849  20.694  0.00  0.00    +0.000 A 
ATOM     15  C   UNL     1       2.416   4.514  19.352  0.00  0.00    +0.000 A 
ENDBRANCH   6   7
ENDBRANCH   1   6
BRANCH   3  16
ATOM     16  C   UNL     1       1.060   9.252  19.625  0.00  0.00    +0.000 C 
BRANCH  16  17
ATOM     17  C   UNL     1       0.452   9.551  21.022  0.00  0.00    +0.000 C 
ATOM     18  C   UNL     1      -0.242   8.311  21.600  0.00  0.00    +0.000 C 
BRANCH  17  19
ATOM     19  C   UNL     1      -0.531  10.716  20.925  0.00  0.00    +0.000 A 
ATOM     20  C   UNL     1      -0.983  11.511  22.039  0.00  0.00    +0.000 A 
ATOM     21  C   UNL     1      -1.885  12.486  21.674  0.00  0.00    +0.000 A 
ATOM     22  S   UNL     1      -2.199  12.470  19.997  0.00  0.00    +0.000 S 
ATOM     23  C   UNL     1      -1.132  11.156  19.757  0.00  0.00    +0.000 A 
ENDBRANCH  17  19
BRANCH  17  24
ATOM     24  O   UNL     1       1.523   9.881  21.926  0.00  0.00    +0.000 OA
ATOM     25  H   UNL     1       2.264  10.197  21.378  0.00  0.00    +0.000 HD
ENDBRANCH  17  24
ENDBRANCH  16  17
ENDBRANCH   3  16
TORSDOF 6
ENDMDL
MODEL 8
REMARK VINA RESULT:      -7.2      4.359      7.250
REMARK  Name = 
REMARK  8 active torsions:
REMARK  status: ('A' for Active; 'I' for Inactive)
REMARK    1  A    between atoms: C_1  and  C_2
REMARK    2  A    between atoms: C_2  and  C_3
REMARK    3  A    between atoms: C_2  and  N_15
REMARK    4  A    between atoms: N_5  and  C_6
REMARK    5  A    between atoms: C_6  and  C_7
REMARK    6  A    between atoms: C_7  and  C_8
REMARK    7  A    between atoms: C_7  and  O_9
REMARK    8  A    between atoms: C_7  and  C_10
REMARK                            x       y       z     vdW  Elec       q    Type
REMARK                         _______ _______ _______ _____ _____    ______ ____
ROOT
ATOM      1  C   UNL     1       3.145   7.575  17.724  0.00  0.00    +0.000 C 
ATOM      2  O   UNL     1       3.460   8.051  16.634  0.00  0.00    +0.000 OA
ATOM      3  N   UNL     1       2.173   8.148  18.528  0.00  0.00    +0.000 N 
ATOM      4  H   UNL     1       1.804   7.499  19.225  0.00  0.00    +0.000 HD
ENDROOT
BRANCH   1   6
ATOM      5  C   UNL     1       5.254   6.209  17.752  0.00  0.00    +0.000 C 
ATOM      6  C   UNL     1       3.852   6.347  18.344  0.00  0.00    +0.000 C 
BRANCH   6   7
ATOM      7  N   UNL     1       3.016   5.133  18.183  0.00  0.00    +0.000 N 
ATOM      8  C   UNL     1       3.285   4.134  17.132  0.00  0.00    +0.000 C 
ATOM      9  C   UNL     1       2.458   2.880  17.467  0.00  0.00    +0.000 C 
ATOM     10  C   UNL     1       2.242   3.074  18.930  0.00  0.00    +0.000 A 
ATOM     11  C   UNL     1       1.730   2.165  19.842  0.00  0.00    +0.000 A 
ATOM     12  C   UNL     1       1.572   2.576  21.163  0.00  0.00    +0.000 A 
ATOM     13  C   UNL     1       1.920   3.880  21.541  0.00  0.00    +0.000 A 
ATOM     14  C   UNL     1       2.423   4.789  20.601  0.00  0.00    +0.000 A 
ATOM     15  C   UNL     1       2.590   4.383  19.287  0.00  0.00    +0.000 A 
ENDBRANCH   6   7
ENDBRANCH   1   6
BRANCH   3  16
ATOM     16  C   UNL     1       1.382   9.252  17.997  0.00  0.00    +0.000 C 
BRANCH  16  17
ATOM     17  C   UNL     1       0.643  10.112  19.059  0.00  0.00    +0.000 C 
ATOM     18  C   UNL     1       0.549   9.372  20.400  0.00  0.00    +0.000 C 
BRANCH  17  19
ATOM     19  C   UNL     1      -0.750  10.481  18.554  0.00  0.00    +0.000 A 
ATOM     20  C   UNL     1      -1.603  11.484  19.141  0.00  0.00    +0.000 A 
ATOM     21  C   UNL     1      -2.817  11.602  18.500  0.00  0.00    +0.000 A 
ATOM     22  S   UNL     1      -2.951  10.523  17.184  0.00  0.00    +0.000 S 
ATOM     23  C   UNL     1      -1.388   9.895  17.473  0.00  0.00    +0.000 A 
ENDBRANCH  17  19
BRANCH  17  24
ATOM     24  O   UNL     1       1.415  11.303  19.301  0.00  0.00    +0.000 OA
ATOM     25  H   UNL     1       1.879  11.508  18.469  0.00  0.00    +0.000 HD
ENDBRANCH  17  24
ENDBRANCH  16  17
ENDBRANCH   3  16
TORSDOF 6
ENDMDL
MODEL 9
REMARK VINA RESULT:      -7.2      4.730      7.474
REMARK  Name = 
REMARK  8 active torsions:
REMARK  status: ('A' for Active; 'I' for Inactive)
REMARK    1  A    between atoms: C_1  and  C_2
REMARK    2  A    between atoms: C_2  and  C_3
REMARK    3  A    between atoms: C_2  and  N_15
REMARK    4  A    between atoms: N_5  and  C_6
REMARK    5  A    between atoms: C_6  and  C_7
REMARK    6  A    between atoms: C_7  and  C_8
REMARK    7  A    between atoms: C_7  and  O_9
REMARK    8  A    between atoms: C_7  and  C_10
REMARK                            x       y       z     vdW  Elec       q    Type
REMARK                         _______ _______ _______ _____ _____    ______ ____
ROOT
ATOM      1  C   UNL     1       2.652   7.870  18.061  0.00  0.00    +0.000 C 
ATOM      2  O   UNL     1       2.971   8.250  16.936  0.00  0.00    +0.000 OA
ATOM      3  N   UNL     1       1.795   8.595  18.872  0.00  0.00    +0.000 N 
ATOM      4  H   UNL     1       1.382   8.030  19.617  0.00  0.00    +0.000 HD
ENDROOT
BRANCH   1   6
ATOM      5  C   UNL     1       4.568   6.244  18.062  0.00  0.00    +0.000 C 
ATOM      6  C   UNL     1       3.232   6.593  18.716  0.00  0.00    +0.000 C 
BRANCH   6   7
ATOM      7  N   UNL     1       2.241   5.492  18.669  0.00  0.00    +0.000 N 
ATOM      8  C   UNL     1       2.009   4.702  17.446  0.00  0.00    +0.000 C 
ATOM      9  C   UNL     1       1.187   3.463  17.847  0.00  0.00    +0.000 C 
ATOM     10  C   UNL     1       1.503   3.382  19.302  0.00  0.00    +0.000 A 
ATOM     11  C   UNL     1       1.216   2.347  20.179  0.00  0.00    +0.000 A 
ATOM     12  C   UNL     1       1.567   2.501  21.517  0.00  0.00    +0.000 A 
ATOM     13  C   UNL     1       2.187   3.681  21.950  0.00  0.00    +0.000 A 
ATOM     14  C   UNL     1       2.458   4.721  21.052  0.00  0.00    +0.000 A 
ATOM     15  C   UNL     1       2.118   4.570  19.717  0.00  0.00    +0.000 A 
ENDBRANCH   6   7
ENDBRANCH   1   6
BRANCH   3  16
ATOM     16  C   UNL     1       1.120   9.763  18.317  0.00  0.00    +0.000 C 
BRANCH  16  17
ATOM     17  C   UNL     1       0.045  10.408  19.232  0.00  0.00    +0.000 C 
ATOM     18  C   UNL     1      -0.167   9.577  20.505  0.00  0.00    +0.000 C 
BRANCH  17  19
ATOM     19  C   UNL     1      -1.269  10.559  18.469  0.00  0.00    +0.000 A 
ATOM     20  C   UNL     1      -1.620   9.829  17.276  0.00  0.00    +0.000 A 
ATOM     21  C   UNL     1      -2.858  10.173  16.780  0.00  0.00    +0.000 A 
ATOM     22  S   UNL     1      -3.621  11.365  17.733  0.00  0.00    +0.000 S 
ATOM     23  C   UNL     1      -2.294  11.426  18.809  0.00  0.00    +0.000 A 
ENDBRANCH  17  19
BRANCH  17  24
ATOM     24  O   UNL     1       0.521  11.698  19.659  0.00  0.00    +0.000 OA
ATOM     25  H   UNL     1       0.192  12.346  19.010  0.00  0.00    +0.000 HD
ENDBRANCH  17  24
ENDBRANCH  16  17
ENDBRANCH   3  16
TORSDOF 6
ENDMDL
