MODEL 1
REMARK VINA RESULT:      -7.8      0.000      0.000
REMARK  Name = 
REMARK  12 active torsions:
REMARK  status: ('A' for Active; 'I' for Inactive)
REMARK    1  A    between atoms: C_1  and  C_2
REMARK    2  A    between atoms: C_2  and  O_3
REMARK    3  A    between atoms: C_2  and  C_4
REMARK    4  A    between atoms: C_4  and  N_5
REMARK    5  A    between atoms: C_6  and  C_8
REMARK    6  A    between atoms: C_13  and  C_14
REMARK    7  A    between atoms: C_14  and  O_15
REMARK    8  A    between atoms: C_14  and  C_16
REMARK    9  A    between atoms: C_14  and  C_22
REMARK   10  A    between atoms: N_28  and  C_29
REMARK   11  A    between atoms: C_29  and  C_30
REMARK   12  A    between atoms: C_30  and  N_31
REMARK                            x       y       z     vdW  Elec       q    Type
REMARK                         _______ _______ _______ _____ _____    ______ ____
ROOT
ATOM      1  C   UNL     1       3.255   6.531  18.947  0.00  0.00    +0.000 A 
ATOM      2  C   UNL     1       3.552   7.240  17.776  0.00  0.00    +0.000 A 
ATOM      3  C   UNL     1       2.870   8.430  17.461  0.00  0.00    +0.000 A 
ATOM      4  C   UNL     1       1.900   8.920  18.351  0.00  0.00    +0.000 A 
ATOM      5  N   UNL     1       1.139  10.056  18.289  0.00  0.00    +0.000 NA
ATOM      6  C   UNL     1       0.389  10.080  19.391  0.00  0.00    +0.000 A 
ATOM      7  N   UNL     1       0.673   8.966  20.174  0.00  0.00    +0.000 N 
ATOM      8  C   UNL     1       1.612   8.203  19.501  0.00  0.00    +0.000 A 
ATOM      9  C   UNL     1       2.243   6.986  19.803  0.00  0.00    +0.000 A 
ENDROOT
BRANCH   1  11
ATOM     10  N   UNL     1       3.197   4.132  19.437  0.00  0.00    +0.000 N 
ATOM     11  C   UNL     1       3.959   5.276  19.340  0.00  0.00    +0.000 C 
ATOM     12  O   UNL     1       5.172   5.284  19.526  0.00  0.00    +0.000 OA
ATOM     13  H   UNL     1       2.298   4.108  18.975  0.00  0.00    +0.000 HD
BRANCH  10  14
ATOM     14  C   UNL     1       3.816   2.852  19.746  0.00  0.00    +0.000 C 
BRANCH  14  16
ATOM     15  C   UNL     1       2.509   2.238  17.675  0.00  0.00    +0.000 C 
ATOM     16  C   UNL     1       3.245   1.703  18.900  0.00  0.00    +0.000 C 
BRANCH  16  17
ATOM     17  O   UNL     1       4.313   0.854  18.458  0.00  0.00    +0.000 OA
ATOM     18  H   UNL     1       5.072   0.997  19.048  0.00  0.00    +0.000 HD
ENDBRANCH  16  17
ENDBRANCH  14  16
ENDBRANCH  10  14
ENDBRANCH   1  11
BRANCH   6  19
ATOM     19  C   UNL     1      -0.578  11.247  19.704  0.00  0.00    +0.000 C 
BRANCH  19  20
ATOM     20  C   UNL     1       0.130  12.622  19.628  0.00  0.00    +0.000 A 
ATOM     21  C   UNL     1       1.062  13.028  20.606  0.00  0.00    +0.000 A 
ATOM     22  C   UNL     1       1.619  14.307  20.603  0.00  0.00    +0.000 A 
ATOM     23  C   UNL     1       1.298  15.197  19.587  0.00  0.00    +0.000 A 
ATOM     24  C   UNL     1       0.438  14.802  18.569  0.00  0.00    +0.000 A 
ATOM     25  C   UNL     1      -0.148  13.531  18.590  0.00  0.00    +0.000 A 
ENDBRANCH  19  20
BRANCH  19  26
ATOM     26  C   UNL     1      -1.916  11.205  18.944  0.00  0.00    +0.000 A 
ATOM     27  C   UNL     1      -2.091  10.500  17.747  0.00  0.00    +0.000 A 
ATOM     28  C   UNL     1      -3.239  10.663  16.969  0.00  0.00    +0.000 A 
ATOM     29  C   UNL     1      -4.275  11.473  17.421  0.00  0.00    +0.000 A 
ATOM     30  C   UNL     1      -4.184  12.080  18.669  0.00  0.00    +0.000 A 
ATOM     31  C   UNL     1      -3.022  11.937  19.430  0.00  0.00    +0.000 A 
ENDBRANCH  19  26
BRANCH  19  32
ATOM     32  O   UNL     1      -0.969  11.047  21.083  0.00  0.00    +0.000 OA
ATOM     33  H   UNL     1      -1.880  10.691  21.035  0.00  0.00    +0.000 HD
ENDBRANCH  19  32
ENDBRANCH   6  19
BRANCH   7  34
ATOM     34  C   UNL     1       0.171   8.592  21.488  0.00  0.00    +0.000 C 
BRANCH  34  35
ATOM     35  C   UNL     1       0.978   9.166  22.669  0.00  0.00    +0.000 C 
BRANCH  35  36
ATOM     36  N   UNL     1       0.117   9.676  23.736  0.00  0.00    +0.000 NA
ATOM     37  H   UNL     1       0.256   9.131  24.587  0.00  0.00    +0.000 HD
ATOM     38  H   UNL     1      -0.856   9.540  23.471  0.00  0.00    +0.000 HD
ENDBRANCH  35  36
ENDBRANCH  34  35
ENDBRANCH   7  34
TORSDOF 11
ENDMDL
MODEL 2
REMARK VINA RESULT:      -7.6      0.995      1.310
REMARK  Name = 
REMARK  12 active torsions:
REMARK  status: ('A' for Active; 'I' for Inactive)
REMARK    1  A    between atoms: C_1  and  C_2
REMARK    2  A    between atoms: C_2  and  O_3
REMARK    3  A    between atoms: C_2  and  C_4
REMARK    4  A    between atoms: C_4  and  N_5
REMARK    5  A    between atoms: C_6  and  C_8
REMARK    6  A    between atoms: C_13  and  C_14
REMARK    7  A    between atoms: C_14  and  O_15
REMARK    8  A    between atoms: C_14  and  C_16
REMARK    9  A    between atoms: C_14  and  C_22
REMARK   10  A    between atoms: N_28  and  C_29
REMARK   11  A    between atoms: C_29  and  C_30
REMARK   12  A    between atoms: C_30  and  N_31
REMARK                            x       y       z     vdW  Elec       q    Type
REMARK                         _______ _______ _______ _____ _____    ______ ____
ROOT
ATOM      1  C   UNL     1       2.723   6.378  19.255  0.00  0.00    +0.000 A 
ATOM      2  C   UNL     1       3.249   6.948  18.088  0.00  0.00    +0.000 A 
ATOM      3  C   UNL     1       2.850   8.231  17.670  0.00  0.00    +0.000 A 
ATOM      4  C   UNL     1       1.935   8.954  18.454  0.00  0.00    +0.000 A 
ATOM      5  N   UNL     1       1.429  10.214  18.282  0.00  0.00    +0.000 NA
ATOM      6  C   UNL     1       0.617  10.447  19.315  0.00  0.00    +0.000 A 
ATOM      7  N   UNL     1       0.606   9.343  20.161  0.00  0.00    +0.000 N 
ATOM      8  C   UNL     1       1.419   8.373  19.600  0.00  0.00    +0.000 A 
ATOM      9  C   UNL     1       1.762   7.072  20.002  0.00  0.00    +0.000 A 
ENDROOT
BRANCH   1  11
ATOM     10  N   UNL     1       3.923   4.267  18.930  0.00  0.00    +0.000 N 
ATOM     11  C   UNL     1       3.125   5.031  19.754  0.00  0.00    +0.000 C 
ATOM     12  O   UNL     1       2.775   4.659  20.870  0.00  0.00    +0.000 OA
ATOM     13  H   UNL     1       4.435   4.728  18.189  0.00  0.00    +0.000 HD
BRANCH  10  14
ATOM     14  C   UNL     1       4.418   2.971  19.368  0.00  0.00    +0.000 C 
BRANCH  14  16
ATOM     15  C   UNL     1       2.657   2.227  17.720  0.00  0.00    +0.000 C 
ATOM     16  C   UNL     1       3.521   1.812  18.907  0.00  0.00    +0.000 C 
BRANCH  16  17
ATOM     17  O   UNL     1       4.336   0.699  18.514  0.00  0.00    +0.000 OA
ATOM     18  H   UNL     1       5.010   0.565  19.202  0.00  0.00    +0.000 HD
ENDBRANCH  16  17
ENDBRANCH  14  16
ENDBRANCH  10  14
ENDBRANCH   1  11
BRANCH   6  19
ATOM     19  C   UNL     1      -0.113  11.800  19.498  0.00  0.00    +0.000 C 
BRANCH  19  20
ATOM     20  C   UNL     1       0.766  12.997  19.058  0.00  0.00    +0.000 A 
ATOM     21  C   UNL     1       2.095  12.815  18.622  0.00  0.00    +0.000 A 
ATOM     22  C   UNL     1       2.926  13.897  18.329  0.00  0.00    +0.000 A 
ATOM     23  C   UNL     1       2.430  15.191  18.415  0.00  0.00    +0.000 A 
ATOM     24  C   UNL     1       1.102  15.400  18.773  0.00  0.00    +0.000 A 
ATOM     25  C   UNL     1       0.278  14.316  19.099  0.00  0.00    +0.000 A 
ENDBRANCH  19  20
BRANCH  19  26
ATOM     26  C   UNL     1      -1.543  11.850  18.930  0.00  0.00    +0.000 A 
ATOM     27  C   UNL     1      -2.647  12.272  19.682  0.00  0.00    +0.000 A 
ATOM     28  C   UNL     1      -3.952  12.095  19.218  0.00  0.00    +0.000 A 
ATOM     29  C   UNL     1      -4.173  11.567  17.950  0.00  0.00    +0.000 A 
ATOM     30  C   UNL     1      -3.092  11.265  17.130  0.00  0.00    +0.000 A 
ATOM     31  C   UNL     1      -1.789  11.416  17.609  0.00  0.00    +0.000 A 
ENDBRANCH  19  26
BRANCH  19  32
ATOM     32  O   UNL     1      -0.315  11.924  20.925  0.00  0.00    +0.000 OA
ATOM     33  H   UNL     1      -0.046  11.057  21.293  0.00  0.00    +0.000 HD
ENDBRANCH  19  32
ENDBRANCH   6  19
BRANCH   7  34
ATOM     34  C   UNL     1      -0.061   9.150  21.439  0.00  0.00    +0.000 C 
BRANCH  34  35
ATOM     35  C   UNL     1       0.858   9.289  22.669  0.00  0.00    +0.000 C 
BRANCH  35  36
ATOM     36  N   UNL     1       0.116   9.634  23.882  0.00  0.00    +0.000 NA
ATOM     37  H   UNL     1       0.670  10.263  24.463  0.00  0.00    +0.000 HD
ATOM     38  H   UNL     1      -0.023   8.791  24.436  0.00  0.00    +0.000 HD
ENDBRANCH  35  36
ENDBRANCH  34  35
ENDBRANCH   7  34
TORSDOF 11
ENDMDL
MODEL 3
REMARK VINA RESULT:      -7.6      1.124      3.380
REMARK  Name = 
REMARK  12 active torsions:
REMARK  status: ('A' for Active; 'I' for Inactive)
REMARK    1  A    between atoms: C_1  and  C_2
REMARK    2  A    between atoms: C_2  and  O_3
REMARK    3  A    between atoms: C_2  and  C_4
REMARK    4  A    between atoms: C_4  and  N_5
REMARK    5  A    between atoms: C_6  and  C_8
REMARK    6  A    between atoms: C_13  and  C_14
REMARK    7  A    between atoms: C_14  and  O_15
REMARK    8  A    between atoms: C_14  and  C_16
REMARK    9  A    between atoms: C_14  and  C_22
REMARK   10  A    between atoms: N_28  and  C_29
REMARK   11  A    between atoms: C_29  and  C_30
REMARK   12  A    between atoms: C_30  and  N_31
REMARK                            x       y       z     vdW  Elec       q    Type
REMARK                         _______ _______ _______ _____ _____    ______ ____
ROOT
ATOM      1  C   UNL     1       3.179   6.500  19.038  0.00  0.00    +0.000 A 
ATOM      2  C   UNL     1       3.666   7.081  17.859  0.00  0.00    +0.000 A 
ATOM      3  C   UNL     1       3.126   8.286  17.373  0.00  0.00    +0.000 A 
ATOM      4  C   UNL     1       2.107   8.923  18.100  0.00  0.00    +0.000 A 
ATOM      5  N   UNL     1       1.456  10.103  17.858  0.00  0.00    +0.000 NA
ATOM      6  C   UNL     1       0.591  10.278  18.858  0.00  0.00    +0.000 A 
ATOM      7  N   UNL     1       0.689   9.218  19.754  0.00  0.00    +0.000 N 
ATOM      8  C   UNL     1       1.631   8.332  19.259  0.00  0.00    +0.000 A 
ATOM      9  C   UNL     1       2.119   7.102  19.728  0.00  0.00    +0.000 A 
ENDROOT
BRANCH   1  11
ATOM     10  N   UNL     1       2.818   4.319  20.091  0.00  0.00    +0.000 N 
ATOM     11  C   UNL     1       3.727   5.236  19.609  0.00  0.00    +0.000 C 
ATOM     12  O   UNL     1       4.936   5.032  19.603  0.00  0.00    +0.000 OA
ATOM     13  H   UNL     1       1.855   4.386  19.789  0.00  0.00    +0.000 HD
BRANCH  10  14
ATOM     14  C   UNL     1       3.262   3.030  20.600  0.00  0.00    +0.000 C 
BRANCH  14  16
ATOM     15  C   UNL     1       2.275   2.186  18.435  0.00  0.00    +0.000 C 
ATOM     16  C   UNL     1       3.343   1.959  19.501  0.00  0.00    +0.000 C 
BRANCH  16  17
ATOM     17  O   UNL     1       4.633   2.007  18.876  0.00  0.00    +0.000 OA
ATOM     18  H   UNL     1       4.519   2.378  17.985  0.00  0.00    +0.000 HD
ENDBRANCH  16  17
ENDBRANCH  14  16
ENDBRANCH  10  14
ENDBRANCH   1  11
BRANCH   6  19
ATOM     19  C   UNL     1      -0.304  11.537  18.961  0.00  0.00    +0.000 C 
BRANCH  19  20
ATOM     20  C   UNL     1      -1.782  11.228  18.618  0.00  0.00    +0.000 A 
ATOM     21  C   UNL     1      -2.145  10.071  17.896  0.00  0.00    +0.000 A 
ATOM     22  C   UNL     1      -3.460   9.843  17.489  0.00  0.00    +0.000 A 
ATOM     23  C   UNL     1      -4.457  10.743  17.841  0.00  0.00    +0.000 A 
ATOM     24  C   UNL     1      -4.143  11.856  18.612  0.00  0.00    +0.000 A 
ATOM     25  C   UNL     1      -2.818  12.103  18.992  0.00  0.00    +0.000 A 
ENDBRANCH  19  20
BRANCH  19  26
ATOM     26  C   UNL     1      -0.135  12.351  20.257  0.00  0.00    +0.000 A 
ATOM     27  C   UNL     1      -1.079  12.341  21.291  0.00  0.00    +0.000 A 
ATOM     28  C   UNL     1      -1.011  13.255  22.345  0.00  0.00    +0.000 A 
ATOM     29  C   UNL     1       0.057  14.142  22.428  0.00  0.00    +0.000 A 
ATOM     30  C   UNL     1       1.079  14.082  21.487  0.00  0.00    +0.000 A 
ATOM     31  C   UNL     1       0.991  13.187  20.419  0.00  0.00    +0.000 A 
ENDBRANCH  19  26
BRANCH  19  32
ATOM     32  O   UNL     1       0.192  12.431  17.937  0.00  0.00    +0.000 OA
ATOM     33  H   UNL     1      -0.466  12.375  17.215  0.00  0.00    +0.000 HD
ENDBRANCH  19  32
ENDBRANCH   6  19
BRANCH   7  34
ATOM     34  C   UNL     1       0.012   8.999  21.023  0.00  0.00    +0.000 C 
BRANCH  34  35
ATOM     35  C   UNL     1       0.934   9.048  22.257  0.00  0.00    +0.000 C 
BRANCH  35  36
ATOM     36  N   UNL     1       0.407   9.915  23.312  0.00  0.00    +0.000 NA
ATOM     37  H   UNL     1      -0.569  10.141  23.122  0.00  0.00    +0.000 HD
ATOM     38  H   UNL     1       0.908  10.801  23.294  0.00  0.00    +0.000 HD
ENDBRANCH  35  36
ENDBRANCH  34  35
ENDBRANCH   7  34
TORSDOF 11
ENDMDL
MODEL 4
REMARK VINA RESULT:      -7.5      2.871      8.649
REMARK  Name = 
REMARK  12 active torsions:
REMARK  status: ('A' for Active; 'I' for Inactive)
REMARK    1  A    between atoms: C_1  and  C_2
REMARK    2  A    between atoms: C_2  and  O_3
REMARK    3  A    between atoms: C_2  and  C_4
REMARK    4  A    between atoms: C_4  and  N_5
REMARK    5  A    between atoms: C_6  and  C_8
REMARK    6  A    between atoms: C_13  and  C_14
REMARK    7  A    between atoms: C_14  and  O_15
REMARK    8  A    between atoms: C_14  and  C_16
REMARK    9  A    between atoms: C_14  and  C_22
REMARK   10  A    between atoms: N_28  and  C_29
REMARK   11  A    between atoms: C_29  and  C_30
REMARK   12  A    between atoms: C_30  and  N_31
REMARK                            x       y       z     vdW  Elec       q    Type
REMARK                         _______ _______ _______ _____ _____    ______ ____
ROOT
ATOM      1  C   UNL     1       0.349   9.724  20.485  0.00  0.00    +0.000 A 
ATOM      2  C   UNL     1       0.460  10.367  19.245  0.00  0.00    +0.000 A 
ATOM      3  C   UNL     1       1.286   9.842  18.233  0.00  0.00    +0.000 A 
ATOM      4  C   UNL     1       1.981   8.644  18.468  0.00  0.00    +0.000 A 
ATOM      5  N   UNL     1       2.804   7.926  17.643  0.00  0.00    +0.000 NA
ATOM      6  C   UNL     1       3.195   6.851  18.329  0.00  0.00    +0.000 A 
ATOM      7  N   UNL     1       2.616   6.866  19.594  0.00  0.00    +0.000 N 
ATOM      8  C   UNL     1       1.867   8.026  19.702  0.00  0.00    +0.000 A 
ATOM      9  C   UNL     1       1.093   8.564  20.742  0.00  0.00    +0.000 A 
ENDROOT
BRANCH   1  11
ATOM     10  N   UNL     1      -1.141  11.442  21.394  0.00  0.00    +0.000 N 
ATOM     11  C   UNL     1      -0.525  10.224  21.585  0.00  0.00    +0.000 C 
ATOM     12  O   UNL     1      -0.700   9.543  22.590  0.00  0.00    +0.000 OA
ATOM     13  H   UNL     1      -1.224  11.801  20.452  0.00  0.00    +0.000 HD
BRANCH  10  14
ATOM     14  C   UNL     1      -2.065  11.971  22.385  0.00  0.00    +0.000 C 
BRANCH  14  16
ATOM     15  C   UNL     1      -2.662  13.899  23.903  0.00  0.00    +0.000 C 
ATOM     16  C   UNL     1      -1.707  13.401  22.821  0.00  0.00    +0.000 C 
BRANCH  16  17
ATOM     17  O   UNL     1      -0.371  13.426  23.341  0.00  0.00    +0.000 OA
ATOM     18  H   UNL     1      -0.246  14.273  23.801  0.00  0.00    +0.000 HD
ENDBRANCH  16  17
ENDBRANCH  14  16
ENDBRANCH  10  14
ENDBRANCH   1  11
BRANCH   6  19
ATOM     19  C   UNL     1       4.105   5.764  17.708  0.00  0.00    +0.000 C 
BRANCH  19  20
ATOM     20  C   UNL     1       5.592   5.966  18.088  0.00  0.00    +0.000 A 
ATOM     21  C   UNL     1       6.152   5.352  19.229  0.00  0.00    +0.000 A 
ATOM     22  C   UNL     1       7.459   5.617  19.637  0.00  0.00    +0.000 A 
ATOM     23  C   UNL     1       8.260   6.464  18.884  0.00  0.00    +0.000 A 
ATOM     24  C   UNL     1       7.760   7.029  17.715  0.00  0.00    +0.000 A 
ATOM     25  C   UNL     1       6.437   6.790  17.322  0.00  0.00    +0.000 A 
ENDBRANCH  19  20
BRANCH  19  26
ATOM     26  C   UNL     1       3.616   4.317  17.901  0.00  0.00    +0.000 A 
ATOM     27  C   UNL     1       2.362   3.871  17.463  0.00  0.00    +0.000 A 
ATOM     28  C   UNL     1       1.858   2.627  17.849  0.00  0.00    +0.000 A 
ATOM     29  C   UNL     1       2.640   1.768  18.613  0.00  0.00    +0.000 A 
ATOM     30  C   UNL     1       3.939   2.131  18.949  0.00  0.00    +0.000 A 
ATOM     31  C   UNL     1       4.428   3.387  18.586  0.00  0.00    +0.000 A 
ENDBRANCH  19  26
BRANCH  19  32
ATOM     32  O   UNL     1       4.001   5.964  16.279  0.00  0.00    +0.000 OA
ATOM     33  H   UNL     1       3.648   6.871  16.178  0.00  0.00    +0.000 HD
ENDBRANCH  19  32
ENDBRANCH   6  19
BRANCH   7  34
ATOM     34  C   UNL     1       2.681   5.884  20.666  0.00  0.00    +0.000 C 
BRANCH  34  35
ATOM     35  C   UNL     1       1.470   4.933  20.737  0.00  0.00    +0.000 C 
BRANCH  35  36
ATOM     36  N   UNL     1       1.780   3.688  21.440  0.00  0.00    +0.000 NA
ATOM     37  H   UNL     1       1.841   3.860  22.443  0.00  0.00    +0.000 HD
ATOM     38  H   UNL     1       2.703   3.367  21.154  0.00  0.00    +0.000 HD
ENDBRANCH  35  36
ENDBRANCH  34  35
ENDBRANCH   7  34
TORSDOF 11
ENDMDL
MODEL 5
REMARK VINA RESULT:      -7.5      1.460      1.771
REMARK  Name = 
REMARK  12 active torsions:
REMARK  status: ('A' for Active; 'I' for Inactive)
REMARK    1  A    between atoms: C_1  and  C_2
REMARK    2  A    between atoms: C_2  and  O_3
REMARK    3  A    between atoms: C_2  and  C_4
REMARK    4  A    between atoms: C_4  and  N_5
REMARK    5  A    between atoms: C_6  and  C_8
REMARK    6  A    between atoms: C_13  and  C_14
REMARK    7  A    between atoms: C_14  and  O_15
REMARK    8  A    between atoms: C_14  and  C_16
REMARK    9  A    between atoms: C_14  and  C_22
REMARK   10  A    between atoms: N_28  and  C_29
REMARK   11  A    between atoms: C_29  and  C_30
REMARK   12  A    between atoms: C_30  and  N_31
REMARK                            x       y       z     vdW  Elec       q    Type
REMARK                         _______ _______ _______ _____ _____    ______ ____
ROOT
ATOM      1  C   UNL     1       2.581   7.022  18.988  0.00  0.00    +0.000 A 
ATOM      2  C   UNL     1       2.572   7.629  17.725  0.00  0.00    +0.000 A 
ATOM      3  C   UNL     1       2.004   8.904  17.543  0.00  0.00    +0.000 A 
ATOM      4  C   UNL     1       1.466   9.580  18.651  0.00  0.00    +0.000 A 
ATOM      5  N   UNL     1       0.900  10.823  18.736  0.00  0.00    +0.000 NA
ATOM      6  C   UNL     1       0.570  11.010  20.015  0.00  0.00    +0.000 A 
ATOM      7  N   UNL     1       0.933   9.893  20.760  0.00  0.00    +0.000 N 
ATOM      8  C   UNL     1       1.475   8.962  19.890  0.00  0.00    +0.000 A 
ATOM      9  C   UNL     1       1.987   7.669  20.080  0.00  0.00    +0.000 A 
ENDROOT
BRANCH   1  11
ATOM     10  N   UNL     1       2.430   4.578  18.913  0.00  0.00    +0.000 N 
ATOM     11  C   UNL     1       3.186   5.683  19.243  0.00  0.00    +0.000 C 
ATOM     12  O   UNL     1       4.324   5.598  19.692  0.00  0.00    +0.000 OA
ATOM     13  H   UNL     1       1.660   4.693  18.268  0.00  0.00    +0.000 HD
BRANCH  10  14
ATOM     14  C   UNL     1       2.971   3.236  19.063  0.00  0.00    +0.000 C 
BRANCH  14  16
ATOM     15  C   UNL     1       1.121   2.936  20.754  0.00  0.00    +0.000 C 
ATOM     16  C   UNL     1       1.956   2.256  19.672  0.00  0.00    +0.000 C 
BRANCH  16  17
ATOM     17  O   UNL     1       1.075   1.776  18.647  0.00  0.00    +0.000 OA
ATOM     18  H   UNL     1       0.166   1.828  18.987  0.00  0.00    +0.000 HD
ENDBRANCH  16  17
ENDBRANCH  14  16
ENDBRANCH  10  14
ENDBRANCH   1  11
BRANCH   6  19
ATOM     19  C   UNL     1      -0.058  12.332  20.517  0.00  0.00    +0.000 C 
BRANCH  19  20
ATOM     20  C   UNL     1       0.593  13.572  19.857  0.00  0.00    +0.000 A 
ATOM     21  C   UNL     1       1.988  13.784  19.902  0.00  0.00    +0.000 A 
ATOM     22  C   UNL     1       2.568  14.951  19.405  0.00  0.00    +0.000 A 
ATOM     23  C   UNL     1       1.772  15.916  18.802  0.00  0.00    +0.000 A 
ATOM     24  C   UNL     1       0.404  15.704  18.680  0.00  0.00    +0.000 A 
ATOM     25  C   UNL     1      -0.184  14.548  19.207  0.00  0.00    +0.000 A 
ENDBRANCH  19  20
BRANCH  19  26
ATOM     26  C   UNL     1      -1.597  12.369  20.500  0.00  0.00    +0.000 A 
ATOM     27  C   UNL     1      -2.358  11.936  19.407  0.00  0.00    +0.000 A 
ATOM     28  C   UNL     1      -3.729  12.189  19.330  0.00  0.00    +0.000 A 
ATOM     29  C   UNL     1      -4.382  12.807  20.391  0.00  0.00    +0.000 A 
ATOM     30  C   UNL     1      -3.675  13.126  21.545  0.00  0.00    +0.000 A 
ATOM     31  C   UNL     1      -2.299  12.898  21.605  0.00  0.00    +0.000 A 
ENDBRANCH  19  26
BRANCH  19  32
ATOM     32  O   UNL     1       0.262  12.384  21.927  0.00  0.00    +0.000 OA
ATOM     33  H   UNL     1      -0.032  11.521  22.283  0.00  0.00    +0.000 HD
ENDBRANCH  19  32
ENDBRANCH   6  19
BRANCH   7  34
ATOM     34  C   UNL     1       0.847   9.656  22.193  0.00  0.00    +0.000 C 
BRANCH  34  35
ATOM     35  C   UNL     1      -0.553   9.244  22.691  0.00  0.00    +0.000 C 
BRANCH  35  36
ATOM     36  N   UNL     1      -1.166  10.268  23.537  0.00  0.00    +0.000 NA
ATOM     37  H   UNL     1      -1.970   9.879  24.028  0.00  0.00    +0.000 HD
ATOM     38  H   UNL     1      -1.531  11.012  22.946  0.00  0.00    +0.000 HD
ENDBRANCH  35  36
ENDBRANCH  34  35
ENDBRANCH   7  34
TORSDOF 11
ENDMDL
MODEL 6
REMARK VINA RESULT:      -7.5      1.335      1.788
REMARK  Name = 
REMARK  12 active torsions:
REMARK  status: ('A' for Active; 'I' for Inactive)
REMARK    1  A    between atoms: C_1  and  C_2
REMARK    2  A    between atoms: C_2  and  O_3
REMARK    3  A    between atoms: C_2  and  C_4
REMARK    4  A    between atoms: C_4  and  N_5
REMARK    5  A    between atoms: C_6  and  C_8
REMARK    6  A    between atoms: C_13  and  C_14
REMARK    7  A    between atoms: C_14  and  O_15
REMARK    8  A    between atoms: C_14  and  C_16
REMARK    9  A    between atoms: C_14  and  C_22
REMARK   10  A    between atoms: N_28  and  C_29
REMARK   11  A    between atoms: C_29  and  C_30
REMARK   12  A    between atoms: C_30  and  N_31
REMARK                            x       y       z     vdW  Elec       q    Type
REMARK                         _______ _______ _______ _____ _____    ______ ____
ROOT
ATOM      1  C   UNL     1       2.467   6.686  19.368  0.00  0.00    +0.000 A 
ATOM      2  C   UNL     1       2.531   7.182  18.060  0.00  0.00    +0.000 A 
ATOM      3  C   UNL     1       2.066   8.476  17.756  0.00  0.00    +0.000 A 
ATOM      4  C   UNL     1       1.560   9.282  18.788  0.00  0.00    +0.000 A 
ATOM      5  N   UNL     1       1.090  10.567  18.755  0.00  0.00    +0.000 NA
ATOM      6  C   UNL     1       0.749  10.887  20.004  0.00  0.00    +0.000 A 
ATOM      7  N   UNL     1       1.010   9.814  20.849  0.00  0.00    +0.000 N 
ATOM      8  C   UNL     1       1.496   8.774  20.075  0.00  0.00    +0.000 A 
ATOM      9  C   UNL     1       1.903   7.467  20.386  0.00  0.00    +0.000 A 
ENDROOT
BRANCH   1  11
ATOM     10  N   UNL     1       2.053   4.469  20.321  0.00  0.00    +0.000 N 
ATOM     11  C   UNL     1       2.963   5.332  19.750  0.00  0.00    +0.000 C 
ATOM     12  O   UNL     1       4.125   5.015  19.520  0.00  0.00    +0.000 OA
ATOM     13  H   UNL     1       1.066   4.652  20.197  0.00  0.00    +0.000 HD
BRANCH  10  14
ATOM     14  C   UNL     1       2.434   3.106  20.660  0.00  0.00    +0.000 C 
BRANCH  14  16
ATOM     15  C   UNL     1       0.853   2.488  18.791  0.00  0.00    +0.000 C 
ATOM     16  C   UNL     1       2.138   2.112  19.525  0.00  0.00    +0.000 C 
BRANCH  16  17
ATOM     17  O   UNL     1       3.221   2.117  18.585  0.00  0.00    +0.000 OA
ATOM     18  H   UNL     1       2.890   1.754  17.746  0.00  0.00    +0.000 HD
ENDBRANCH  16  17
ENDBRANCH  14  16
ENDBRANCH  10  14
ENDBRANCH   1  11
BRANCH   6  19
ATOM     19  C   UNL     1       0.214  12.291  20.377  0.00  0.00    +0.000 C 
BRANCH  19  20
ATOM     20  C   UNL     1       1.056  13.421  19.736  0.00  0.00    +0.000 A 
ATOM     21  C   UNL     1       2.466  13.377  19.727  0.00  0.00    +0.000 A 
ATOM     22  C   UNL     1       3.230  14.442  19.250  0.00  0.00    +0.000 A 
ATOM     23  C   UNL     1       2.601  15.560  18.719  0.00  0.00    +0.000 A 
ATOM     24  C   UNL     1       1.213  15.603  18.649  0.00  0.00    +0.000 A 
ATOM     25  C   UNL     1       0.445  14.550  19.158  0.00  0.00    +0.000 A 
ENDBRANCH  19  20
BRANCH  19  26
ATOM     26  C   UNL     1      -1.302  12.479  20.194  0.00  0.00    +0.000 A 
ATOM     27  C   UNL     1      -2.111  13.119  21.142  0.00  0.00    +0.000 A 
ATOM     28  C   UNL     1      -3.504  13.075  21.055  0.00  0.00    +0.000 A 
ATOM     29  C   UNL     1      -4.114  12.460  19.967  0.00  0.00    +0.000 A 
ATOM     30  C   UNL     1      -3.334  11.934  18.944  0.00  0.00    +0.000 A 
ATOM     31  C   UNL     1      -1.941  11.954  19.049  0.00  0.00    +0.000 A 
ENDBRANCH  19  26
BRANCH  19  32
ATOM     32  O   UNL     1       0.393  12.389  21.810  0.00  0.00    +0.000 OA
ATOM     33  H   UNL     1      -0.347  11.873  22.190  0.00  0.00    +0.000 HD
ENDBRANCH  19  32
ENDBRANCH   6  19
BRANCH   7  34
ATOM     34  C   UNL     1       0.877   9.707  22.294  0.00  0.00    +0.000 C 
BRANCH  34  35
ATOM     35  C   UNL     1      -0.536   9.331  22.781  0.00  0.00    +0.000 C 
BRANCH  35  36
ATOM     36  N   UNL     1      -1.216  10.450  23.434  0.00  0.00    +0.000 NA
ATOM     37  H   UNL     1      -0.544  11.004  23.965  0.00  0.00    +0.000 HD
ATOM     38  H   UNL     1      -1.878  10.084  24.115  0.00  0.00    +0.000 HD
ENDBRANCH  35  36
ENDBRANCH  34  35
ENDBRANCH   7  34
TORSDOF 11
ENDMDL
MODEL 7
REMARK VINA RESULT:      -7.4      2.545      9.230
REMARK  Name = 
REMARK  12 active torsions:
REMARK  status: ('A' for Active; 'I' for Inactive)
REMARK    1  A    between atoms: C_1  and  C_2
REMARK    2  A    between atoms: C_2  and  O_3
REMARK    3  A    between atoms: C_2  and  C_4
REMARK    4  A    between atoms: C_4  and  N_5
REMARK    5  A    between atoms: C_6  and  C_8
REMARK    6  A    between atoms: C_13  and  C_14
REMARK    7  A    between atoms: C_14  and  O_15
REMARK    8  A    between atoms: C_14  and  C_16
REMARK    9  A    between atoms: C_14  and  C_22
REMARK   10  A    between atoms: N_28  and  C_29
REMARK   11  A    between atoms: C_29  and  C_30
REMARK   12  A    between atoms: C_30  and  N_31
REMARK                            x       y       z     vdW  Elec       q    Type
REMARK                         _______ _______ _______ _____ _____    ______ ____
ROOT
ATOM      1  C   UNL     1       0.820   9.687  19.789  0.00  0.00    +0.000 A 
ATOM      2  C   UNL     1       1.162  10.109  18.497  0.00  0.00    +0.000 A 
ATOM      3  C   UNL     1       2.034   9.347  17.697  0.00  0.00    +0.000 A 
ATOM      4  C   UNL     1       2.541   8.136  18.198  0.00  0.00    +0.000 A 
ATOM      5  N   UNL     1       3.363   7.213  17.609  0.00  0.00    +0.000 NA
ATOM      6  C   UNL     1       3.529   6.226  18.491  0.00  0.00    +0.000 A 
ATOM      7  N   UNL     1       2.806   6.504  19.646  0.00  0.00    +0.000 N 
ATOM      8  C   UNL     1       2.199   7.737  19.480  0.00  0.00    +0.000 A 
ATOM      9  C   UNL     1       1.376   8.512  20.312  0.00  0.00    +0.000 A 
ENDROOT
BRANCH   1  11
ATOM     10  N   UNL     1      -0.294  11.783  20.394  0.00  0.00    +0.000 N 
ATOM     11  C   UNL     1      -0.114  10.445  20.671  0.00  0.00    +0.000 C 
ATOM     12  O   UNL     1      -0.712   9.868  21.574  0.00  0.00    +0.000 OA
ATOM     13  H   UNL     1      -0.042  12.126  19.477  0.00  0.00    +0.000 HD
BRANCH  10  14
ATOM     14  C   UNL     1      -1.240  12.580  21.161  0.00  0.00    +0.000 C 
BRANCH  14  16
ATOM     15  C   UNL     1      -1.064  13.953  23.271  0.00  0.00    +0.000 C 
ATOM     16  C   UNL     1      -0.579  13.793  21.833  0.00  0.00    +0.000 C 
BRANCH  16  17
ATOM     17  O   UNL     1       0.845  13.622  21.845  0.00  0.00    +0.000 OA
ATOM     18  H   UNL     1       1.031  12.668  21.812  0.00  0.00    +0.000 HD
ENDBRANCH  16  17
ENDBRANCH  14  16
ENDBRANCH  10  14
ENDBRANCH   1  11
BRANCH   6  19
ATOM     19  C   UNL     1       4.366   4.965  18.167  0.00  0.00    +0.000 C 
BRANCH  19  20
ATOM     20  C   UNL     1       3.528   3.669  18.278  0.00  0.00    +0.000 A 
ATOM     21  C   UNL     1       2.203   3.603  17.795  0.00  0.00    +0.000 A 
ATOM     22  C   UNL     1       1.407   2.474  17.990  0.00  0.00    +0.000 A 
ATOM     23  C   UNL     1       1.934   1.359  18.627  0.00  0.00    +0.000 A 
ATOM     24  C   UNL     1       3.258   1.367  19.051  0.00  0.00    +0.000 A 
ATOM     25  C   UNL     1       4.048   2.511  18.886  0.00  0.00    +0.000 A 
ENDBRANCH  19  20
BRANCH  19  26
ATOM     26  C   UNL     1       5.194   5.049  16.872  0.00  0.00    +0.000 A 
ATOM     27  C   UNL     1       4.770   4.492  15.659  0.00  0.00    +0.000 A 
ATOM     28  C   UNL     1       5.634   4.386  14.567  0.00  0.00    +0.000 A 
ATOM     29  C   UNL     1       6.917   4.918  14.642  0.00  0.00    +0.000 A 
ATOM     30  C   UNL     1       7.318   5.595  15.788  0.00  0.00    +0.000 A 
ATOM     31  C   UNL     1       6.461   5.672  16.888  0.00  0.00    +0.000 A 
ENDBRANCH  19  26
BRANCH  19  32
ATOM     32  O   UNL     1       5.373   4.910  19.204  0.00  0.00    +0.000 OA
ATOM     33  H   UNL     1       5.112   5.603  19.844  0.00  0.00    +0.000 HD
ENDBRANCH  19  32
ENDBRANCH   6  19
BRANCH   7  34
ATOM     34  C   UNL     1       2.615   5.703  20.847  0.00  0.00    +0.000 C 
BRANCH  34  35
ATOM     35  C   UNL     1       1.372   4.792  20.818  0.00  0.00    +0.000 C 
BRANCH  35  36
ATOM     36  N   UNL     1       1.603   3.515  21.493  0.00  0.00    +0.000 NA
ATOM     37  H   UNL     1       1.947   3.678  22.440  0.00  0.00    +0.000 HD
ATOM     38  H   UNL     1       2.343   3.013  21.008  0.00  0.00    +0.000 HD
ENDBRANCH  35  36
ENDBRANCH  34  35
ENDBRANCH   7  34
TORSDOF 11
ENDMDL
MODEL 8
REMARK VINA RESULT:      -7.4      1.437      2.064
REMARK  Name = 
REMARK  12 active torsions:
REMARK  status: ('A' for Active; 'I' for Inactive)
REMARK    1  A    between atoms: C_1  and  C_2
REMARK    2  A    between atoms: C_2  and  O_3
REMARK    3  A    between atoms: C_2  and  C_4
REMARK    4  A    between atoms: C_4  and  N_5
REMARK    5  A    between atoms: C_6  and  C_8
REMARK    6  A    between atoms: C_13  and  C_14
REMARK    7  A    between atoms: C_14  and  O_15
REMARK    8  A    between atoms: C_14  and  C_16
REMARK    9  A    between atoms: C_14  and  C_22
REMARK   10  A    between atoms: N_28  and  C_29
REMARK   11  A    between atoms: C_29  and  C_30
REMARK   12  A    between atoms: C_30  and  N_31
REMARK                            x       y       z     vdW  Elec       q    Type
REMARK                         _______ _______ _______ _____ _____    ______ ____
ROOT
ATOM      1  C   UNL     1       2.575   6.895  18.989  0.00  0.00    +0.000 A 
ATOM      2  C   UNL     1       2.641   7.527  17.741  0.00  0.00    +0.000 A 
ATOM      3  C   UNL     1       2.145   8.832  17.567  0.00  0.00    +0.000 A 
ATOM      4  C   UNL     1       1.605   9.513  18.671  0.00  0.00    +0.000 A 
ATOM      5  N   UNL     1       1.101  10.782  18.764  0.00  0.00    +0.000 NA
ATOM      6  C   UNL     1       0.737  10.961  20.035  0.00  0.00    +0.000 A 
ATOM      7  N   UNL     1       1.017   9.812  20.768  0.00  0.00    +0.000 N 
ATOM      8  C   UNL     1       1.540   8.872  19.897  0.00  0.00    +0.000 A 
ATOM      9  C   UNL     1       1.978   7.550  20.075  0.00  0.00    +0.000 A 
ENDROOT
BRANCH   1  11
ATOM     10  N   UNL     1       2.378   4.469  18.718  0.00  0.00    +0.000 N 
ATOM     11  C   UNL     1       3.103   5.522  19.235  0.00  0.00    +0.000 C 
ATOM     12  O   UNL     1       4.157   5.367  19.842  0.00  0.00    +0.000 OA
ATOM     13  H   UNL     1       1.717   4.654  17.975  0.00  0.00    +0.000 HD
BRANCH  10  14
ATOM     14  C   UNL     1       2.858   3.102  18.851  0.00  0.00    +0.000 C 
BRANCH  14  16
ATOM     15  C   UNL     1       1.193   2.901  20.738  0.00  0.00    +0.000 C 
ATOM     16  C   UNL     1       1.843   2.188  19.556  0.00  0.00    +0.000 C 
BRANCH  16  17
ATOM     17  O   UNL     1       0.817   1.802  18.632  0.00  0.00    +0.000 OA
ATOM     18  H   UNL     1       0.189   1.231  19.104  0.00  0.00    +0.000 HD
ENDBRANCH  16  17
ENDBRANCH  14  16
ENDBRANCH  10  14
ENDBRANCH   1  11
BRANCH   6  19
ATOM     19  C   UNL     1       0.160  12.303  20.545  0.00  0.00    +0.000 C 
BRANCH  19  20
ATOM     20  C   UNL     1       1.011  13.512  20.085  0.00  0.00    +0.000 A 
ATOM     21  C   UNL     1       0.490  14.494  19.217  0.00  0.00    +0.000 A 
ATOM     22  C   UNL     1       1.284  15.525  18.713  0.00  0.00    +0.000 A 
ATOM     23  C   UNL     1       2.611  15.630  19.107  0.00  0.00    +0.000 A 
ATOM     24  C   UNL     1       3.135  14.719  20.018  0.00  0.00    +0.000 A 
ATOM     25  C   UNL     1       2.348  13.665  20.498  0.00  0.00    +0.000 A 
ENDBRANCH  19  20
BRANCH  19  26
ATOM     26  C   UNL     1      -1.349  12.494  20.310  0.00  0.00    +0.000 A 
ATOM     27  C   UNL     1      -2.186  13.149  21.222  0.00  0.00    +0.000 A 
ATOM     28  C   UNL     1      -3.576  13.109  21.091  0.00  0.00    +0.000 A 
ATOM     29  C   UNL     1      -4.152  12.482  19.992  0.00  0.00    +0.000 A 
ATOM     30  C   UNL     1      -3.340  11.941  19.001  0.00  0.00    +0.000 A 
ATOM     31  C   UNL     1      -1.952  11.957  19.151  0.00  0.00    +0.000 A 
ENDBRANCH  19  26
BRANCH  19  32
ATOM     32  O   UNL     1       0.268  12.232  21.986  0.00  0.00    +0.000 OA
ATOM     33  H   UNL     1       0.876  12.960  22.228  0.00  0.00    +0.000 HD
ENDBRANCH  19  32
ENDBRANCH   6  19
BRANCH   7  34
ATOM     34  C   UNL     1       0.870   9.551  22.191  0.00  0.00    +0.000 C 
BRANCH  34  35
ATOM     35  C   UNL     1      -0.555   9.153  22.626  0.00  0.00    +0.000 C 
BRANCH  35  36
ATOM     36  N   UNL     1      -1.226  10.217  23.374  0.00  0.00    +0.000 NA
ATOM     37  H   UNL     1      -1.860  10.729  22.760  0.00  0.00    +0.000 HD
ATOM     38  H   UNL     1      -0.531  10.892  23.685  0.00  0.00    +0.000 HD
ENDBRANCH  35  36
ENDBRANCH  34  35
ENDBRANCH   7  34
TORSDOF 11
ENDMDL
MODEL 9
REMARK VINA RESULT:      -7.3      2.714      8.711
REMARK  Name = 
REMARK  12 active torsions:
REMARK  status: ('A' for Active; 'I' for Inactive)
REMARK    1  A    between atoms: C_1  and  C_2
REMARK    2  A    between atoms: C_2  and  O_3
REMARK    3  A    between atoms: C_2  and  C_4
REMARK    4  A    between atoms: C_4  and  N_5
REMARK    5  A    between atoms: C_6  and  C_8
REMARK    6  A    between atoms: C_13  and  C_14
REMARK    7  A    between atoms: C_14  and  O_15
REMARK    8  A    between atoms: C_14  and  C_16
REMARK    9  A    between atoms: C_14  and  C_22
REMARK   10  A    between atoms: N_28  and  C_29
REMARK   11  A    between atoms: C_29  and  C_30
REMARK   12  A    between atoms: C_30  and  N_31
REMARK                            x       y       z     vdW  Elec       q    Type
REMARK                         _______ _______ _______ _____ _____    ______ ____
ROOT
ATOM      1  C   UNL     1       0.357   9.858  20.192  0.00  0.00    +0.000 A 
ATOM      2  C   UNL     1       0.563  10.449  18.939  0.00  0.00    +0.000 A 
ATOM      3  C   UNL     1       1.435   9.866  18.001  0.00  0.00    +0.000 A 
ATOM      4  C   UNL     1       2.082   8.661  18.322  0.00  0.00    +0.000 A 
ATOM      5  N   UNL     1       2.934   7.891  17.578  0.00  0.00    +0.000 NA
ATOM      6  C   UNL     1       3.252   6.834  18.326  0.00  0.00    +0.000 A 
ATOM      7  N   UNL     1       2.597   6.912  19.550  0.00  0.00    +0.000 N 
ATOM      8  C   UNL     1       1.874   8.093  19.569  0.00  0.00    +0.000 A 
ATOM      9  C   UNL     1       1.051   8.690  20.537  0.00  0.00    +0.000 A 
ENDROOT
BRANCH   1  11
ATOM     10  N   UNL     1      -1.212  11.599  20.901  0.00  0.00    +0.000 N 
ATOM     11  C   UNL     1      -0.570  10.421  21.215  0.00  0.00    +0.000 C 
ATOM     12  O   UNL     1      -0.762   9.821  22.268  0.00  0.00    +0.000 OA
ATOM     13  H   UNL     1      -1.270  11.876  19.929  0.00  0.00    +0.000 HD
BRANCH  10  14
ATOM     14  C   UNL     1      -2.185  12.181  21.812  0.00  0.00    +0.000 C 
BRANCH  14  16
ATOM     15  C   UNL     1      -4.137  13.770  22.016  0.00  0.00    +0.000 C 
ATOM     16  C   UNL     1      -3.348  12.864  21.074  0.00  0.00    +0.000 C 
BRANCH  16  17
ATOM     17  O   UNL     1      -2.835  13.658  19.997  0.00  0.00    +0.000 OA
ATOM     18  H   UNL     1      -2.597  14.530  20.355  0.00  0.00    +0.000 HD
ENDBRANCH  16  17
ENDBRANCH  14  16
ENDBRANCH  10  14
ENDBRANCH   1  11
BRANCH   6  19
ATOM     19  C   UNL     1       4.169   5.701  17.804  0.00  0.00    +0.000 C 
BRANCH  19  20
ATOM     20  C   UNL     1       5.660   5.967  18.127  0.00  0.00    +0.000 A 
ATOM     21  C   UNL     1       6.294   5.362  19.232  0.00  0.00    +0.000 A 
ATOM     22  C   UNL     1       7.604   5.682  19.592  0.00  0.00    +0.000 A 
ATOM     23  C   UNL     1       8.332   6.578  18.821  0.00  0.00    +0.000 A 
ATOM     24  C   UNL     1       7.759   7.137  17.684  0.00  0.00    +0.000 A 
ATOM     25  C   UNL     1       6.434   6.842  17.342  0.00  0.00    +0.000 A 
ENDBRANCH  19  20
BRANCH  19  26
ATOM     26  C   UNL     1       3.711   4.276  18.161  0.00  0.00    +0.000 A 
ATOM     27  C   UNL     1       4.401   3.458  19.064  0.00  0.00    +0.000 A 
ATOM     28  C   UNL     1       4.094   2.102  19.196  0.00  0.00    +0.000 A 
ATOM     29  C   UNL     1       3.029   1.558  18.486  0.00  0.00    +0.000 A 
ATOM     30  C   UNL     1       2.243   2.378  17.684  0.00  0.00    +0.000 A 
ATOM     31  C   UNL     1       2.572   3.727  17.533  0.00  0.00    +0.000 A 
ENDBRANCH  19  26
BRANCH  19  32
ATOM     32  O   UNL     1       4.032   5.746  16.364  0.00  0.00    +0.000 OA
ATOM     33  H   UNL     1       3.097   5.511  16.194  0.00  0.00    +0.000 HD
ENDBRANCH  19  32
ENDBRANCH   6  19
BRANCH   7  34
ATOM     34  C   UNL     1       2.568   5.970  20.659  0.00  0.00    +0.000 C 
BRANCH  34  35
ATOM     35  C   UNL     1       1.355   5.019  20.660  0.00  0.00    +0.000 C 
BRANCH  35  36
ATOM     36  N   UNL     1       1.664   3.723  21.264  0.00  0.00    +0.000 NA
ATOM     37  H   UNL     1       2.651   3.502  21.131  0.00  0.00    +0.000 HD
ATOM     38  H   UNL     1       1.146   2.997  20.775  0.00  0.00    +0.000 HD
ENDBRANCH  35  36
ENDBRANCH  34  35
ENDBRANCH   7  34
TORSDOF 11
ENDMDL
