MODEL 1
REMARK VINA RESULT:      -7.4      0.000      0.000
REMARK  Name = 
REMARK  16 active torsions:
REMARK  status: ('A' for Active; 'I' for Inactive)
REMARK    1  A    between atoms: C_1  and  O_2
REMARK    2  A    between atoms: O_2  and  C_3
REMARK    3  A    between atoms: C_8  and  C_9
REMARK    4  A    between atoms: N_11  and  C_12
REMARK    5  A    between atoms: C_12  and  C_13
REMARK    6  A    between atoms: C_13  and  O_15
REMARK    7  A    between atoms: O_15  and  C_16
REMARK    8  A    between atoms: C_16  and  C_17
REMARK    9  A    between atoms: C_17  and  C_18
REMARK   10  A    between atoms: C_18  and  O_19
REMARK   11  A    between atoms: O_19  and  C_20
REMARK   12  A    between atoms: C_20  and  C_22
REMARK   13  A    between atoms: C_22  and  N_23
REMARK   14  A    between atoms: C_24  and  C_26
REMARK   15  A    between atoms: C_31  and  O_32
REMARK   16  A    between atoms: O_32  and  C_33
REMARK                            x       y       z     vdW  Elec       q    Type
REMARK                         _______ _______ _______ _____ _____    ______ ____
ROOT
ATOM      1  C   UNL     1       1.846   5.728  20.803  0.00  0.00    +0.000 C 
ENDROOT
BRANCH   1   2
ATOM      2  C   UNL     1       1.134   4.436  20.440  0.00  0.00    +0.000 C 
BRANCH   2   3
ATOM      3  O   UNL     1       2.111   3.481  19.992  0.00  0.00    +0.000 OA
BRANCH   3   4
ATOM      4  C   UNL     1       2.789   2.810  20.966  0.00  0.00    +0.000 C 
ATOM      5  O   UNL     1       2.455   2.731  22.139  0.00  0.00    +0.000 OA
BRANCH   4   6
ATOM      6  C   UNL     1       4.094   2.243  20.415  0.00  0.00    +0.000 C 
BRANCH   6   9
ATOM      7  C   UNL     1       4.578   3.095  18.146  0.00  0.00    +0.000 C 
ATOM      8  O   UNL     1       3.829   2.265  17.634  0.00  0.00    +0.000 OA
ATOM      9  N   UNL     1       4.763   3.162  19.509  0.00  0.00    +0.000 N 
ATOM     10  H   UNL     1       5.468   3.796  19.878  0.00  0.00    +0.000 HD
BRANCH   7  16
ATOM     11  C   UNL     1       6.291   4.985  17.706  0.00  0.00    +0.000 A 
ATOM     12  C   UNL     1       6.878   5.853  16.768  0.00  0.00    +0.000 A 
ATOM     13  C   UNL     1       6.535   5.797  15.415  0.00  0.00    +0.000 A 
ATOM     14  C   UNL     1       5.591   4.879  14.978  0.00  0.00    +0.000 A 
ATOM     15  C   UNL     1       4.984   4.027  15.900  0.00  0.00    +0.000 A 
ATOM     16  C   UNL     1       5.316   4.067  17.270  0.00  0.00    +0.000 A 
BRANCH  11  18
ATOM     17  C   UNL     1       7.841   5.654  19.383  0.00  0.00    +0.000 C 
ATOM     18  O   UNL     1       6.607   5.025  19.043  0.00  0.00    +0.000 OA
ENDBRANCH  11  18
ENDBRANCH   7  16
ENDBRANCH   6   9
ENDBRANCH   4   6
ENDBRANCH   3   4
ENDBRANCH   2   3
ENDBRANCH   1   2
BRANCH   1  19
ATOM     19  C   UNL     1       2.555   6.365  19.620  0.00  0.00    +0.000 C 
BRANCH  19  20
ATOM     20  O   UNL     1       2.206   7.760  19.577  0.00  0.00    +0.000 OA
BRANCH  20  21
ATOM     21  C   UNL     1       2.130   8.325  18.339  0.00  0.00    +0.000 C 
ATOM     22  O   UNL     1       2.407   7.764  17.290  0.00  0.00    +0.000 OA
BRANCH  21  23
ATOM     23  C   UNL     1       1.792   9.802  18.452  0.00  0.00    +0.000 C 
BRANCH  23  24
ATOM     24  N   UNL     1       0.505  10.071  17.837  0.00  0.00    +0.000 N 
ATOM     25  C   UNL     1      -0.639  10.217  18.598  0.00  0.00    +0.000 C 
ATOM     26  O   UNL     1      -0.648  10.064  19.808  0.00  0.00    +0.000 OA
ATOM     27  H   UNL     1       0.464  10.094  16.826  0.00  0.00    +0.000 HD
BRANCH  25  28
ATOM     28  C   UNL     1      -1.884  10.548  17.838  0.00  0.00    +0.000 A 
ATOM     29  C   UNL     1      -2.212   9.705  16.751  0.00  0.00    +0.000 A 
ATOM     30  C   UNL     1      -3.365   9.913  15.996  0.00  0.00    +0.000 A 
ATOM     31  C   UNL     1      -4.222  10.954  16.321  0.00  0.00    +0.000 A 
ATOM     32  C   UNL     1      -3.929  11.775  17.412  0.00  0.00    +0.000 A 
ATOM     33  C   UNL     1      -2.762  11.591  18.176  0.00  0.00    +0.000 A 
BRANCH  33  34
ATOM     34  O   UNL     1      -2.705  12.455  19.236  0.00  0.00    +0.000 OA
ATOM     35  C   UNL     1      -3.749  12.402  20.197  0.00  0.00    +0.000 C 
ENDBRANCH  33  34
ENDBRANCH  25  28
ENDBRANCH  23  24
ENDBRANCH  21  23
ENDBRANCH  20  21
ENDBRANCH  19  20
ENDBRANCH   1  19
TORSDOF 14
ENDMDL
MODEL 2
REMARK VINA RESULT:      -7.4      1.638      8.965
REMARK  Name = 
REMARK  16 active torsions:
REMARK  status: ('A' for Active; 'I' for Inactive)
REMARK    1  A    between atoms: C_1  and  O_2
REMARK    2  A    between atoms: O_2  and  C_3
REMARK    3  A    between atoms: C_8  and  C_9
REMARK    4  A    between atoms: N_11  and  C_12
REMARK    5  A    between atoms: C_12  and  C_13
REMARK    6  A    between atoms: C_13  and  O_15
REMARK    7  A    between atoms: O_15  and  C_16
REMARK    8  A    between atoms: C_16  and  C_17
REMARK    9  A    between atoms: C_17  and  C_18
REMARK   10  A    between atoms: C_18  and  O_19
REMARK   11  A    between atoms: O_19  and  C_20
REMARK   12  A    between atoms: C_20  and  C_22
REMARK   13  A    between atoms: C_22  and  N_23
REMARK   14  A    between atoms: C_24  and  C_26
REMARK   15  A    between atoms: C_31  and  O_32
REMARK   16  A    between atoms: O_32  and  C_33
REMARK                            x       y       z     vdW  Elec       q    Type
REMARK                         _______ _______ _______ _____ _____    ______ ____
ROOT
ATOM      1  C   UNL     1       4.547   7.151  17.355  0.00  0.00    +0.000 C 
ENDROOT
BRANCH   1   2
ATOM      2  C   UNL     1       3.159   6.823  17.880  0.00  0.00    +0.000 C 
BRANCH   2   3
ATOM      3  O   UNL     1       2.680   7.940  18.647  0.00  0.00    +0.000 OA
BRANCH   3   4
ATOM      4  C   UNL     1       2.068   7.644  19.828  0.00  0.00    +0.000 C 
ATOM      5  O   UNL     1       1.953   6.525  20.307  0.00  0.00    +0.000 OA
BRANCH   4   6
ATOM      6  C   UNL     1       1.446   8.897  20.437  0.00  0.00    +0.000 C 
BRANCH   6   9
ATOM      7  C   UNL     1       0.054  10.246  18.905  0.00  0.00    +0.000 C 
ATOM      8  O   UNL     1       1.027  10.898  18.534  0.00  0.00    +0.000 OA
ATOM      9  N   UNL     1       0.168   9.235  19.834  0.00  0.00    +0.000 N 
ATOM     10  H   UNL     1      -0.678   8.794  20.185  0.00  0.00    +0.000 HD
BRANCH   7  16
ATOM     11  C   UNL     1      -2.195  11.526  18.825  0.00  0.00    +0.000 A 
ATOM     12  C   UNL     1      -3.446  11.679  18.200  0.00  0.00    +0.000 A 
ATOM     13  C   UNL     1      -3.802  10.908  17.091  0.00  0.00    +0.000 A 
ATOM     14  C   UNL     1      -2.917   9.962  16.593  0.00  0.00    +0.000 A 
ATOM     15  C   UNL     1      -1.681   9.784  17.215  0.00  0.00    +0.000 A 
ATOM     16  C   UNL     1      -1.303  10.551  18.336  0.00  0.00    +0.000 A 
BRANCH  11  18
ATOM     17  C   UNL     1      -2.881  12.711  20.771  0.00  0.00    +0.000 C 
ATOM     18  O   UNL     1      -1.825  12.267  19.921  0.00  0.00    +0.000 OA
ENDBRANCH  11  18
ENDBRANCH   7  16
ENDBRANCH   6   9
ENDBRANCH   4   6
ENDBRANCH   3   4
ENDBRANCH   2   3
ENDBRANCH   1   2
BRANCH   1  19
ATOM     19  C   UNL     1       4.920   6.341  16.125  0.00  0.00    +0.000 C 
BRANCH  19  20
ATOM     20  O   UNL     1       6.321   6.022  16.195  0.00  0.00    +0.000 OA
BRANCH  20  21
ATOM     21  C   UNL     1       6.635   4.784  16.669  0.00  0.00    +0.000 C 
ATOM     22  O   UNL     1       7.730   4.448  17.093  0.00  0.00    +0.000 OA
BRANCH  21  23
ATOM     23  C   UNL     1       5.472   3.828  16.462  0.00  0.00    +0.000 C 
BRANCH  23  24
ATOM     24  N   UNL     1       4.725   3.672  17.696  0.00  0.00    +0.000 N 
ATOM     25  C   UNL     1       3.377   3.369  17.688  0.00  0.00    +0.000 C 
ATOM     26  O   UNL     1       2.729   3.282  16.657  0.00  0.00    +0.000 OA
ATOM     27  H   UNL     1       5.214   3.846  18.565  0.00  0.00    +0.000 HD
BRANCH  25  28
ATOM     28  C   UNL     1       2.747   3.181  19.030  0.00  0.00    +0.000 A 
ATOM     29  C   UNL     1       1.341   3.317  19.100  0.00  0.00    +0.000 A 
ATOM     30  C   UNL     1       0.655   3.136  20.301  0.00  0.00    +0.000 A 
ATOM     31  C   UNL     1       1.355   2.798  21.449  0.00  0.00    +0.000 A 
ATOM     32  C   UNL     1       2.740   2.628  21.389  0.00  0.00    +0.000 A 
ATOM     33  C   UNL     1       3.452   2.822  20.191  0.00  0.00    +0.000 A 
BRANCH  33  34
ATOM     34  O   UNL     1       4.783   2.536  20.336  0.00  0.00    +0.000 OA
ATOM     35  C   UNL     1       5.148   1.195  20.627  0.00  0.00    +0.000 C 
ENDBRANCH  33  34
ENDBRANCH  25  28
ENDBRANCH  23  24
ENDBRANCH  21  23
ENDBRANCH  20  21
ENDBRANCH  19  20
ENDBRANCH   1  19
TORSDOF 14
ENDMDL
MODEL 3
REMARK VINA RESULT:      -7.3      2.162      9.203
REMARK  Name = 
REMARK  16 active torsions:
REMARK  status: ('A' for Active; 'I' for Inactive)
REMARK    1  A    between atoms: C_1  and  O_2
REMARK    2  A    between atoms: O_2  and  C_3
REMARK    3  A    between atoms: C_8  and  C_9
REMARK    4  A    between atoms: N_11  and  C_12
REMARK    5  A    between atoms: C_12  and  C_13
REMARK    6  A    between atoms: C_13  and  O_15
REMARK    7  A    between atoms: O_15  and  C_16
REMARK    8  A    between atoms: C_16  and  C_17
REMARK    9  A    between atoms: C_17  and  C_18
REMARK   10  A    between atoms: C_18  and  O_19
REMARK   11  A    between atoms: O_19  and  C_20
REMARK   12  A    between atoms: C_20  and  C_22
REMARK   13  A    between atoms: C_22  and  N_23
REMARK   14  A    between atoms: C_24  and  C_26
REMARK   15  A    between atoms: C_31  and  O_32
REMARK   16  A    between atoms: O_32  and  C_33
REMARK                            x       y       z     vdW  Elec       q    Type
REMARK                         _______ _______ _______ _____ _____    ______ ____
ROOT
ATOM      1  C   UNL     1       4.167   6.466  16.470  0.00  0.00    +0.000 C 
ENDROOT
BRANCH   1   2
ATOM      2  C   UNL     1       3.913   7.548  17.507  0.00  0.00    +0.000 C 
BRANCH   2   3
ATOM      3  O   UNL     1       2.518   7.535  17.853  0.00  0.00    +0.000 OA
BRANCH   3   4
ATOM      4  C   UNL     1       1.980   8.729  18.234  0.00  0.00    +0.000 C 
ATOM      5  O   UNL     1       1.844   9.708  17.515  0.00  0.00    +0.000 OA
BRANCH   4   6
ATOM      6  C   UNL     1       1.653   8.717  19.724  0.00  0.00    +0.000 C 
BRANCH   6   9
ATOM      7  C   UNL     1       0.449  10.168  21.321  0.00  0.00    +0.000 C 
ATOM      8  O   UNL     1       1.265   9.932  22.209  0.00  0.00    +0.000 OA
ATOM      9  N   UNL     1       0.565   9.620  20.063  0.00  0.00    +0.000 N 
ATOM     10  H   UNL     1      -0.187   9.762  19.394  0.00  0.00    +0.000 HD
BRANCH   7  16
ATOM     11  C   UNL     1      -1.300  11.966  20.682  0.00  0.00    +0.000 A 
ATOM     12  C   UNL     1      -2.369  12.778  21.104  0.00  0.00    +0.000 A 
ATOM     13  C   UNL     1      -2.872  12.697  22.404  0.00  0.00    +0.000 A 
ATOM     14  C   UNL     1      -2.309  11.809  23.310  0.00  0.00    +0.000 A 
ATOM     15  C   UNL     1      -1.235  11.012  22.913  0.00  0.00    +0.000 A 
ATOM     16  C   UNL     1      -0.712  11.080  21.604  0.00  0.00    +0.000 A 
BRANCH  11  18
ATOM     17  C   UNL     1      -1.718  11.901  18.340  0.00  0.00    +0.000 C 
ATOM     18  O   UNL     1      -0.784  12.033  19.410  0.00  0.00    +0.000 OA
ENDBRANCH  11  18
ENDBRANCH   7  16
ENDBRANCH   6   9
ENDBRANCH   4   6
ENDBRANCH   3   4
ENDBRANCH   2   3
ENDBRANCH   1   2
BRANCH   1  19
ATOM     19  C   UNL     1       5.435   6.703  15.668  0.00  0.00    +0.000 C 
BRANCH  19  20
ATOM     20  O   UNL     1       6.567   6.376  16.493  0.00  0.00    +0.000 OA
BRANCH  20  21
ATOM     21  C   UNL     1       7.113   5.141  16.307  0.00  0.00    +0.000 C 
ATOM     22  O   UNL     1       7.454   4.676  15.230  0.00  0.00    +0.000 OA
BRANCH  21  23
ATOM     23  C   UNL     1       7.105   4.357  17.609  0.00  0.00    +0.000 C 
BRANCH  23  24
ATOM     24  N   UNL     1       5.742   4.067  18.012  0.00  0.00    +0.000 N 
ATOM     25  C   UNL     1       5.180   4.657  19.128  0.00  0.00    +0.000 C 
ATOM     26  O   UNL     1       5.810   5.395  19.869  0.00  0.00    +0.000 OA
ATOM     27  H   UNL     1       5.232   3.375  17.478  0.00  0.00    +0.000 HD
BRANCH  25  28
ATOM     28  C   UNL     1       3.750   4.312  19.394  0.00  0.00    +0.000 A 
ATOM     29  C   UNL     1       3.024   5.195  20.225  0.00  0.00    +0.000 A 
ATOM     30  C   UNL     1       1.677   4.975  20.513  0.00  0.00    +0.000 A 
ATOM     31  C   UNL     1       1.025   3.882  19.963  0.00  0.00    +0.000 A 
ATOM     32  C   UNL     1       1.721   3.018  19.114  0.00  0.00    +0.000 A 
ATOM     33  C   UNL     1       3.084   3.214  18.825  0.00  0.00    +0.000 A 
BRANCH  33  34
ATOM     34  O   UNL     1       3.550   2.298  17.920  0.00  0.00    +0.000 OA
ATOM     35  C   UNL     1       3.927   1.017  18.401  0.00  0.00    +0.000 C 
ENDBRANCH  33  34
ENDBRANCH  25  28
ENDBRANCH  23  24
ENDBRANCH  21  23
ENDBRANCH  20  21
ENDBRANCH  19  20
ENDBRANCH   1  19
TORSDOF 14
ENDMDL
MODEL 4
REMARK VINA RESULT:      -7.2      2.251      4.686
REMARK  Name = 
REMARK  16 active torsions:
REMARK  status: ('A' for Active; 'I' for Inactive)
REMARK    1  A    between atoms: C_1  and  O_2
REMARK    2  A    between atoms: O_2  and  C_3
REMARK    3  A    between atoms: C_8  and  C_9
REMARK    4  A    between atoms: N_11  and  C_12
REMARK    5  A    between atoms: C_12  and  C_13
REMARK    6  A    between atoms: C_13  and  O_15
REMARK    7  A    between atoms: O_15  and  C_16
REMARK    8  A    between atoms: C_16  and  C_17
REMARK    9  A    between atoms: C_17  and  C_18
REMARK   10  A    between atoms: C_18  and  O_19
REMARK   11  A    between atoms: O_19  and  C_20
REMARK   12  A    between atoms: C_20  and  C_22
REMARK   13  A    between atoms: C_22  and  N_23
REMARK   14  A    between atoms: C_24  and  C_26
REMARK   15  A    between atoms: C_31  and  O_32
REMARK   16  A    between atoms: O_32  and  C_33
REMARK                            x       y       z     vdW  Elec       q    Type
REMARK                         _______ _______ _______ _____ _____    ______ ____
ROOT
ATOM      1  C   UNL     1       4.440   7.120  16.572  0.00  0.00    +0.000 C 
ENDROOT
BRANCH   1   2
ATOM      2  C   UNL     1       5.840   6.720  17.004  0.00  0.00    +0.000 C 
BRANCH   2   3
ATOM      3  O   UNL     1       6.412   5.877  15.990  0.00  0.00    +0.000 OA
BRANCH   3   4
ATOM      4  C   UNL     1       6.848   4.652  16.397  0.00  0.00    +0.000 C 
ATOM      5  O   UNL     1       8.000   4.370  16.694  0.00  0.00    +0.000 OA
BRANCH   4   6
ATOM      6  C   UNL     1       5.712   3.635  16.342  0.00  0.00    +0.000 C 
BRANCH   6   9
ATOM      7  C   UNL     1       3.626   3.354  17.637  0.00  0.00    +0.000 C 
ATOM      8  O   UNL     1       2.958   3.254  16.610  0.00  0.00    +0.000 OA
ATOM      9  N   UNL     1       4.991   3.535  17.600  0.00  0.00    +0.000 N 
ATOM     10  H   UNL     1       5.486   3.714  18.470  0.00  0.00    +0.000 HD
BRANCH   7  16
ATOM     11  C   UNL     1       3.536   2.818  20.168  0.00  0.00    +0.000 A 
ATOM     12  C   UNL     1       2.760   2.781  21.341  0.00  0.00    +0.000 A 
ATOM     13  C   UNL     1       1.434   3.218  21.347  0.00  0.00    +0.000 A 
ATOM     14  C   UNL     1       0.855   3.691  20.178  0.00  0.00    +0.000 A 
ATOM     15  C   UNL     1       1.605   3.715  19.002  0.00  0.00    +0.000 A 
ATOM     16  C   UNL     1       2.946   3.277  18.974  0.00  0.00    +0.000 A 
BRANCH  11  18
ATOM     17  C   UNL     1       5.074   1.043  20.550  0.00  0.00    +0.000 C 
ATOM     18  O   UNL     1       4.840   2.387  20.135  0.00  0.00    +0.000 OA
ENDBRANCH  11  18
ENDBRANCH   7  16
ENDBRANCH   6   9
ENDBRANCH   4   6
ENDBRANCH   3   4
ENDBRANCH   2   3
ENDBRANCH   1   2
BRANCH   1  19
ATOM     19  C   UNL     1       3.426   7.033  17.700  0.00  0.00    +0.000 C 
BRANCH  19  20
ATOM     20  O   UNL     1       3.204   8.356  18.218  0.00  0.00    +0.000 OA
BRANCH  20  21
ATOM     21  C   UNL     1       1.903   8.737  18.362  0.00  0.00    +0.000 C 
ATOM     22  O   UNL     1       1.184   9.143  17.462  0.00  0.00    +0.000 OA
BRANCH  21  23
ATOM     23  C   UNL     1       1.509   8.729  19.829  0.00  0.00    +0.000 C 
BRANCH  23  24
ATOM     24  N   UNL     1       0.630   9.847  20.119  0.00  0.00    +0.000 N 
ATOM     25  C   UNL     1      -0.137   9.881  21.268  0.00  0.00    +0.000 C 
ATOM     26  O   UNL     1      -0.171   8.956  22.063  0.00  0.00    +0.000 OA
ATOM     27  H   UNL     1       0.556  10.578  19.422  0.00  0.00    +0.000 HD
BRANCH  25  28
ATOM     28  C   UNL     1      -0.953  11.118  21.466  0.00  0.00    +0.000 A 
ATOM     29  C   UNL     1      -1.085  11.590  22.792  0.00  0.00    +0.000 A 
ATOM     30  C   UNL     1      -1.804  12.749  23.080  0.00  0.00    +0.000 A 
ATOM     31  C   UNL     1      -2.389  13.470  22.049  0.00  0.00    +0.000 A 
ATOM     32  C   UNL     1      -2.240  13.034  20.731  0.00  0.00    +0.000 A 
ATOM     33  C   UNL     1      -1.533  11.858  20.422  0.00  0.00    +0.000 A 
BRANCH  33  34
ATOM     34  O   UNL     1      -1.447  11.654  19.071  0.00  0.00    +0.000 OA
ATOM     35  C   UNL     1      -0.851  12.670  18.279  0.00  0.00    +0.000 C 
ENDBRANCH  33  34
ENDBRANCH  25  28
ENDBRANCH  23  24
ENDBRANCH  21  23
ENDBRANCH  20  21
ENDBRANCH  19  20
ENDBRANCH   1  19
TORSDOF 14
ENDMDL
MODEL 5
REMARK VINA RESULT:      -7.2      2.352      9.218
REMARK  Name = 
REMARK  16 active torsions:
REMARK  status: ('A' for Active; 'I' for Inactive)
REMARK    1  A    between atoms: C_1  and  O_2
REMARK    2  A    between atoms: O_2  and  C_3
REMARK    3  A    between atoms: C_8  and  C_9
REMARK    4  A    between atoms: N_11  and  C_12
REMARK    5  A    between atoms: C_12  and  C_13
REMARK    6  A    between atoms: C_13  and  O_15
REMARK    7  A    between atoms: O_15  and  C_16
REMARK    8  A    between atoms: C_16  and  C_17
REMARK    9  A    between atoms: C_17  and  C_18
REMARK   10  A    between atoms: C_18  and  O_19
REMARK   11  A    between atoms: O_19  and  C_20
REMARK   12  A    between atoms: C_20  and  C_22
REMARK   13  A    between atoms: C_22  and  N_23
REMARK   14  A    between atoms: C_24  and  C_26
REMARK   15  A    between atoms: C_31  and  O_32
REMARK   16  A    between atoms: O_32  and  C_33
REMARK                            x       y       z     vdW  Elec       q    Type
REMARK                         _______ _______ _______ _____ _____    ______ ____
ROOT
ATOM      1  C   UNL     1       1.958   5.333  17.936  0.00  0.00    +0.000 C 
ENDROOT
BRANCH   1   2
ATOM      2  C   UNL     1       2.479   5.890  19.251  0.00  0.00    +0.000 C 
BRANCH   2   3
ATOM      3  O   UNL     1       2.290   7.315  19.255  0.00  0.00    +0.000 OA
BRANCH   3   4
ATOM      4  C   UNL     1       2.686   7.980  18.134  0.00  0.00    +0.000 C 
ATOM      5  O   UNL     1       3.766   7.852  17.576  0.00  0.00    +0.000 OA
BRANCH   4   6
ATOM      6  C   UNL     1       1.628   8.995  17.711  0.00  0.00    +0.000 C 
BRANCH   6   9
ATOM      7  C   UNL     1       0.170  10.615  18.876  0.00  0.00    +0.000 C 
ATOM      8  O   UNL     1      -0.794  10.306  18.179  0.00  0.00    +0.000 OA
ATOM      9  N   UNL     1       1.401  10.016  18.721  0.00  0.00    +0.000 N 
ATOM     10  H   UNL     1       2.192  10.376  19.249  0.00  0.00    +0.000 HD
BRANCH   7  16
ATOM     11  C   UNL     1      -0.348  11.449  21.271  0.00  0.00    +0.000 A 
ATOM     12  C   UNL     1      -0.480  12.550  22.137  0.00  0.00    +0.000 A 
ATOM     13  C   UNL     1      -0.230  13.851  21.697  0.00  0.00    +0.000 A 
ATOM     14  C   UNL     1       0.147  14.077  20.381  0.00  0.00    +0.000 A 
ATOM     15  C   UNL     1       0.262  12.998  19.505  0.00  0.00    +0.000 A 
ATOM     16  C   UNL     1       0.013  11.676  19.929  0.00  0.00    +0.000 A 
BRANCH  11  18
ATOM     17  C   UNL     1      -0.522   9.914  23.081  0.00  0.00    +0.000 C 
ATOM     18  O   UNL     1      -0.595  10.160  21.678  0.00  0.00    +0.000 OA
ENDBRANCH  11  18
ENDBRANCH   7  16
ENDBRANCH   6   9
ENDBRANCH   4   6
ENDBRANCH   3   4
ENDBRANCH   2   3
ENDBRANCH   1   2
BRANCH   1  19
ATOM     19  C   UNL     1       1.064   4.119  18.121  0.00  0.00    +0.000 C 
BRANCH  19  20
ATOM     20  O   UNL     1       1.729   2.973  17.564  0.00  0.00    +0.000 OA
BRANCH  20  21
ATOM     21  C   UNL     1       2.232   2.074  18.456  0.00  0.00    +0.000 C 
ATOM     22  O   UNL     1       1.679   1.719  19.487  0.00  0.00    +0.000 OA
BRANCH  21  23
ATOM     23  C   UNL     1       3.647   1.678  18.069  0.00  0.00    +0.000 C 
BRANCH  23  24
ATOM     24  N   UNL     1       4.420   2.856  17.720  0.00  0.00    +0.000 N 
ATOM     25  C   UNL     1       5.135   3.556  18.672  0.00  0.00    +0.000 C 
ATOM     26  O   UNL     1       5.106   3.270  19.858  0.00  0.00    +0.000 OA
ATOM     27  H   UNL     1       4.373   3.179  16.762  0.00  0.00    +0.000 HD
BRANCH  25  28
ATOM     28  C   UNL     1       5.931   4.714  18.163  0.00  0.00    +0.000 A 
ATOM     29  C   UNL     1       6.852   5.301  19.062  0.00  0.00    +0.000 A 
ATOM     30  C   UNL     1       7.660   6.370  18.675  0.00  0.00    +0.000 A 
ATOM     31  C   UNL     1       7.578   6.861  17.381  0.00  0.00    +0.000 A 
ATOM     32  C   UNL     1       6.697   6.272  16.472  0.00  0.00    +0.000 A 
ATOM     33  C   UNL     1       5.861   5.204  16.848  0.00  0.00    +0.000 A 
BRANCH  33  34
ATOM     34  O   UNL     1       5.131   4.731  15.791  0.00  0.00    +0.000 OA
ATOM     35  C   UNL     1       5.835   4.268  14.648  0.00  0.00    +0.000 C 
ENDBRANCH  33  34
ENDBRANCH  25  28
ENDBRANCH  23  24
ENDBRANCH  21  23
ENDBRANCH  20  21
ENDBRANCH  19  20
ENDBRANCH   1  19
TORSDOF 14
ENDMDL
MODEL 6
REMARK VINA RESULT:      -7.2      5.271      7.691
REMARK  Name = 
REMARK  16 active torsions:
REMARK  status: ('A' for Active; 'I' for Inactive)
REMARK    1  A    between atoms: C_1  and  O_2
REMARK    2  A    between atoms: O_2  and  C_3
REMARK    3  A    between atoms: C_8  and  C_9
REMARK    4  A    between atoms: N_11  and  C_12
REMARK    5  A    between atoms: C_12  and  C_13
REMARK    6  A    between atoms: C_13  and  O_15
REMARK    7  A    between atoms: O_15  and  C_16
REMARK    8  A    between atoms: C_16  and  C_17
REMARK    9  A    between atoms: C_17  and  C_18
REMARK   10  A    between atoms: C_18  and  O_19
REMARK   11  A    between atoms: O_19  and  C_20
REMARK   12  A    between atoms: C_20  and  C_22
REMARK   13  A    between atoms: C_22  and  N_23
REMARK   14  A    between atoms: C_24  and  C_26
REMARK   15  A    between atoms: C_31  and  O_32
REMARK   16  A    between atoms: O_32  and  C_33
REMARK                            x       y       z     vdW  Elec       q    Type
REMARK                         _______ _______ _______ _____ _____    ______ ____
ROOT
ATOM      1  C   UNL     1       7.616   9.008  17.799  0.00  0.00    +0.000 C 
ENDROOT
BRANCH   1   2
ATOM      2  C   UNL     1       7.745   7.494  17.772  0.00  0.00    +0.000 C 
BRANCH   2   3
ATOM      3  O   UNL     1       6.847   6.972  16.779  0.00  0.00    +0.000 OA
BRANCH   3   4
ATOM      4  C   UNL     1       7.187   5.774  16.226  0.00  0.00    +0.000 C 
ATOM      5  O   UNL     1       7.455   5.585  15.049  0.00  0.00    +0.000 OA
BRANCH   4   6
ATOM      6  C   UNL     1       7.094   4.660  17.265  0.00  0.00    +0.000 C 
BRANCH   6   9
ATOM      7  C   UNL     1       5.434   4.752  19.093  0.00  0.00    +0.000 C 
ATOM      8  O   UNL     1       6.278   5.159  19.890  0.00  0.00    +0.000 OA
ATOM      9  N   UNL     1       5.745   4.488  17.778  0.00  0.00    +0.000 N 
ATOM     10  H   UNL     1       5.041   4.057  17.184  0.00  0.00    +0.000 HD
BRANCH   7  16
ATOM     11  C   UNL     1       3.404   3.282  19.741  0.00  0.00    +0.000 A 
ATOM     12  C   UNL     1       2.062   3.239  20.158  0.00  0.00    +0.000 A 
ATOM     13  C   UNL     1       1.346   4.409  20.420  0.00  0.00    +0.000 A 
ATOM     14  C   UNL     1       1.957   5.644  20.261  0.00  0.00    +0.000 A 
ATOM     15  C   UNL     1       3.282   5.704  19.829  0.00  0.00    +0.000 A 
ATOM     16  C   UNL     1       4.022   4.534  19.557  0.00  0.00    +0.000 A 
BRANCH  11  18
ATOM     17  C   UNL     1       3.642   1.325  18.409  0.00  0.00    +0.000 C 
ATOM     18  O   UNL     1       4.127   2.145  19.470  0.00  0.00    +0.000 OA
ENDBRANCH  11  18
ENDBRANCH   7  16
ENDBRANCH   6   9
ENDBRANCH   4   6
ENDBRANCH   3   4
ENDBRANCH   2   3
ENDBRANCH   1   2
BRANCH   1  19
ATOM     19  C   UNL     1       8.872   9.699  18.301  0.00  0.00    +0.000 C 
BRANCH  19  20
ATOM     20  O   UNL     1       8.713  11.118  18.129  0.00  0.00    +0.000 OA
BRANCH  20  21
ATOM     21  C   UNL     1       9.859  11.842  17.990  0.00  0.00    +0.000 C 
ATOM     22  O   UNL     1      10.991  11.400  18.115  0.00  0.00    +0.000 OA
BRANCH  21  23
ATOM     23  C   UNL     1       9.536  13.314  17.802  0.00  0.00    +0.000 C 
BRANCH  23  24
ATOM     24  N   UNL     1       8.221  13.612  18.339  0.00  0.00    +0.000 N 
ATOM     25  C   UNL     1       7.593  14.815  18.078  0.00  0.00    +0.000 C 
ATOM     26  O   UNL     1       8.125  15.711  17.445  0.00  0.00    +0.000 OA
ATOM     27  H   UNL     1       7.802  12.929  18.958  0.00  0.00    +0.000 HD
BRANCH  25  28
ATOM     28  C   UNL     1       6.219  14.964  18.648  0.00  0.00    +0.000 A 
ATOM     29  C   UNL     1       5.143  14.963  17.729  0.00  0.00    +0.000 A 
ATOM     30  C   UNL     1       3.822  15.072  18.162  0.00  0.00    +0.000 A 
ATOM     31  C   UNL     1       3.547  15.164  19.518  0.00  0.00    +0.000 A 
ATOM     32  C   UNL     1       4.596  15.133  20.439  0.00  0.00    +0.000 A 
ATOM     33  C   UNL     1       5.936  15.041  20.022  0.00  0.00    +0.000 A 
BRANCH  33  34
ATOM     34  O   UNL     1       6.797  14.954  21.084  0.00  0.00    +0.000 OA
ATOM     35  C   UNL     1       6.987  16.112  21.884  0.00  0.00    +0.000 C 
ENDBRANCH  33  34
ENDBRANCH  25  28
ENDBRANCH  23  24
ENDBRANCH  21  23
ENDBRANCH  20  21
ENDBRANCH  19  20
ENDBRANCH   1  19
TORSDOF 14
ENDMDL
MODEL 7
REMARK VINA RESULT:      -7.1      1.686      9.368
REMARK  Name = 
REMARK  16 active torsions:
REMARK  status: ('A' for Active; 'I' for Inactive)
REMARK    1  A    between atoms: C_1  and  O_2
REMARK    2  A    between atoms: O_2  and  C_3
REMARK    3  A    between atoms: C_8  and  C_9
REMARK    4  A    between atoms: N_11  and  C_12
REMARK    5  A    between atoms: C_12  and  C_13
REMARK    6  A    between atoms: C_13  and  O_15
REMARK    7  A    between atoms: O_15  and  C_16
REMARK    8  A    between atoms: C_16  and  C_17
REMARK    9  A    between atoms: C_17  and  C_18
REMARK   10  A    between atoms: C_18  and  O_19
REMARK   11  A    between atoms: O_19  and  C_20
REMARK   12  A    between atoms: C_20  and  C_22
REMARK   13  A    between atoms: C_22  and  N_23
REMARK   14  A    between atoms: C_24  and  C_26
REMARK   15  A    between atoms: C_31  and  O_32
REMARK   16  A    between atoms: O_32  and  C_33
REMARK                            x       y       z     vdW  Elec       q    Type
REMARK                         _______ _______ _______ _____ _____    ______ ____
ROOT
ATOM      1  C   UNL     1       2.522   5.992  18.133  0.00  0.00    +0.000 C 
ENDROOT
BRANCH   1   2
ATOM      2  C   UNL     1       1.821   7.338  18.215  0.00  0.00    +0.000 C 
BRANCH   2   3
ATOM      3  O   UNL     1       2.334   8.056  19.349  0.00  0.00    +0.000 OA
BRANCH   3   4
ATOM      4  C   UNL     1       1.554   8.055  20.467  0.00  0.00    +0.000 C 
ATOM      5  O   UNL     1       1.292   7.075  21.150  0.00  0.00    +0.000 OA
BRANCH   4   6
ATOM      6  C   UNL     1       0.961   9.440  20.706  0.00  0.00    +0.000 C 
BRANCH   6   9
ATOM      7  C   UNL     1      -0.299  10.522  18.876  0.00  0.00    +0.000 C 
ATOM      8  O   UNL     1       0.700  11.132  18.499  0.00  0.00    +0.000 OA
ATOM      9  N   UNL     1      -0.261   9.661  19.950  0.00  0.00    +0.000 N 
ATOM     10  H   UNL     1      -1.132   9.259  20.288  0.00  0.00    +0.000 HD
BRANCH   7  16
ATOM     11  C   UNL     1      -2.555  11.711  18.434  0.00  0.00    +0.000 A 
ATOM     12  C   UNL     1      -3.744  11.748  17.683  0.00  0.00    +0.000 A 
ATOM     13  C   UNL     1      -3.977  10.839  16.649  0.00  0.00    +0.000 A 
ATOM     14  C   UNL     1      -3.030   9.869  16.353  0.00  0.00    +0.000 A 
ATOM     15  C   UNL     1      -1.855   9.806  17.103  0.00  0.00    +0.000 A 
ATOM     16  C   UNL     1      -1.601  10.714  18.152  0.00  0.00    +0.000 A 
BRANCH  11  18
ATOM     17  C   UNL     1      -3.130  12.461  20.618  0.00  0.00    +0.000 C 
ATOM     18  O   UNL     1      -2.306  12.589  19.461  0.00  0.00    +0.000 OA
ENDBRANCH  11  18
ENDBRANCH   7  16
ENDBRANCH   6   9
ENDBRANCH   4   6
ENDBRANCH   3   4
ENDBRANCH   2   3
ENDBRANCH   1   2
BRANCH   1  19
ATOM     19  C   UNL     1       1.628   4.835  18.547  0.00  0.00    +0.000 C 
BRANCH  19  20
ATOM     20  O   UNL     1       1.793   3.768  17.596  0.00  0.00    +0.000 OA
BRANCH  20  21
ATOM     21  C   UNL     1       1.896   2.511  18.112  0.00  0.00    +0.000 C 
ATOM     22  O   UNL     1       1.017   1.926  18.726  0.00  0.00    +0.000 OA
BRANCH  21  23
ATOM     23  C   UNL     1       3.313   1.986  17.947  0.00  0.00    +0.000 C 
BRANCH  23  24
ATOM     24  N   UNL     1       4.225   3.081  17.674  0.00  0.00    +0.000 N 
ATOM     25  C   UNL     1       5.042   3.600  18.660  0.00  0.00    +0.000 C 
ATOM     26  O   UNL     1       4.997   3.220  19.819  0.00  0.00    +0.000 OA
ATOM     27  H   UNL     1       4.204   3.488  16.748  0.00  0.00    +0.000 HD
BRANCH  25  28
ATOM     28  C   UNL     1       5.972   4.686  18.225  0.00  0.00    +0.000 A 
ATOM     29  C   UNL     1       6.715   5.336  19.239  0.00  0.00    +0.000 A 
ATOM     30  C   UNL     1       7.627   6.345  18.934  0.00  0.00    +0.000 A 
ATOM     31  C   UNL     1       7.832   6.712  17.612  0.00  0.00    +0.000 A 
ATOM     32  C   UNL     1       7.131   6.057  16.597  0.00  0.00    +0.000 A 
ATOM     33  C   UNL     1       6.193   5.049  16.886  0.00  0.00    +0.000 A 
BRANCH  33  34
ATOM     34  O   UNL     1       5.675   4.493  15.747  0.00  0.00    +0.000 OA
ATOM     35  C   UNL     1       6.542   4.318  14.636  0.00  0.00    +0.000 C 
ENDBRANCH  33  34
ENDBRANCH  25  28
ENDBRANCH  23  24
ENDBRANCH  21  23
ENDBRANCH  20  21
ENDBRANCH  19  20
ENDBRANCH   1  19
TORSDOF 14
ENDMDL
MODEL 8
REMARK VINA RESULT:      -7.1      1.464      2.151
REMARK  Name = 
REMARK  16 active torsions:
REMARK  status: ('A' for Active; 'I' for Inactive)
REMARK    1  A    between atoms: C_1  and  O_2
REMARK    2  A    between atoms: O_2  and  C_3
REMARK    3  A    between atoms: C_8  and  C_9
REMARK    4  A    between atoms: N_11  and  C_12
REMARK    5  A    between atoms: C_12  and  C_13
REMARK    6  A    between atoms: C_13  and  O_15
REMARK    7  A    between atoms: O_15  and  C_16
REMARK    8  A    between atoms: C_16  and  C_17
REMARK    9  A    between atoms: C_17  and  C_18
REMARK   10  A    between atoms: C_18  and  O_19
REMARK   11  A    between atoms: O_19  and  C_20
REMARK   12  A    between atoms: C_20  and  C_22
REMARK   13  A    between atoms: C_22  and  N_23
REMARK   14  A    between atoms: C_24  and  C_26
REMARK   15  A    between atoms: C_31  and  O_32
REMARK   16  A    between atoms: O_32  and  C_33
REMARK                            x       y       z     vdW  Elec       q    Type
REMARK                         _______ _______ _______ _____ _____    ______ ____
ROOT
ATOM      1  C   UNL     1       2.495   5.612  19.921  0.00  0.00    +0.000 C 
ENDROOT
BRANCH   1   2
ATOM      2  C   UNL     1       1.419   4.658  19.430  0.00  0.00    +0.000 C 
BRANCH   2   3
ATOM      3  O   UNL     1       1.950   3.884  18.342  0.00  0.00    +0.000 OA
BRANCH   3   4
ATOM      4  C   UNL     1       2.258   2.586  18.618  0.00  0.00    +0.000 C 
ATOM      5  O   UNL     1       1.631   1.851  19.367  0.00  0.00    +0.000 OA
BRANCH   4   6
ATOM      6  C   UNL     1       3.564   2.189  17.936  0.00  0.00    +0.000 C 
BRANCH   6   9
ATOM      7  C   UNL     1       5.275   3.832  18.631  0.00  0.00    +0.000 C 
ATOM      8  O   UNL     1       5.357   3.328  19.750  0.00  0.00    +0.000 OA
ATOM      9  N   UNL     1       4.423   3.331  17.671  0.00  0.00    +0.000 N 
ATOM     10  H   UNL     1       4.315   3.841  16.798  0.00  0.00    +0.000 HD
BRANCH   7  16
ATOM     11  C   UNL     1       5.999   5.812  17.130  0.00  0.00    +0.000 A 
ATOM     12  C   UNL     1       6.885   6.888  16.939  0.00  0.00    +0.000 A 
ATOM     13  C   UNL     1       7.856   7.205  17.891  0.00  0.00    +0.000 A 
ATOM     14  C   UNL     1       7.966   6.446  19.047  0.00  0.00    +0.000 A 
ATOM     15  C   UNL     1       7.108   5.364  19.242  0.00  0.00    +0.000 A 
ATOM     16  C   UNL     1       6.121   5.026  18.292  0.00  0.00    +0.000 A 
BRANCH  11  18
ATOM     17  C   UNL     1       5.508   5.147  14.899  0.00  0.00    +0.000 C 
ATOM     18  O   UNL     1       5.040   5.476  16.205  0.00  0.00    +0.000 OA
ENDBRANCH  11  18
ENDBRANCH   7  16
ENDBRANCH   6   9
ENDBRANCH   4   6
ENDBRANCH   3   4
ENDBRANCH   2   3
ENDBRANCH   1   2
BRANCH   1  19
ATOM     19  C   UNL     1       2.850   6.679  18.899  0.00  0.00    +0.000 C 
BRANCH  19  20
ATOM     20  O   UNL     1       1.660   7.423  18.585  0.00  0.00    +0.000 OA
BRANCH  20  21
ATOM     21  C   UNL     1       1.831   8.748  18.313  0.00  0.00    +0.000 C 
ATOM     22  O   UNL     1       2.562   9.201  17.445  0.00  0.00    +0.000 OA
BRANCH  21  23
ATOM     23  C   UNL     1       1.098   9.597  19.337  0.00  0.00    +0.000 C 
BRANCH  23  24
ATOM     24  N   UNL     1      -0.262   9.850  18.898  0.00  0.00    +0.000 N 
ATOM     25  C   UNL     1      -0.668  11.109  18.501  0.00  0.00    +0.000 C 
ATOM     26  O   UNL     1       0.064  12.084  18.558  0.00  0.00    +0.000 OA
ATOM     27  H   UNL     1      -0.920   9.082  18.945  0.00  0.00    +0.000 HD
BRANCH  25  28
ATOM     28  C   UNL     1      -2.079  11.213  18.020  0.00  0.00    +0.000 A 
ATOM     29  C   UNL     1      -2.377  10.605  16.779  0.00  0.00    +0.000 A 
ATOM     30  C   UNL     1      -3.669  10.624  16.254  0.00  0.00    +0.000 A 
ATOM     31  C   UNL     1      -4.692  11.233  16.966  0.00  0.00    +0.000 A 
ATOM     32  C   UNL     1      -4.420  11.811  18.208  0.00  0.00    +0.000 A 
ATOM     33  C   UNL     1      -3.120  11.816  18.746  0.00  0.00    +0.000 A 
BRANCH  33  34
ATOM     34  O   UNL     1      -3.088  12.367  19.999  0.00  0.00    +0.000 OA
ATOM     35  C   UNL     1      -4.318  12.774  20.580  0.00  0.00    +0.000 C 
ENDBRANCH  33  34
ENDBRANCH  25  28
ENDBRANCH  23  24
ENDBRANCH  21  23
ENDBRANCH  20  21
ENDBRANCH  19  20
ENDBRANCH   1  19
TORSDOF 14
ENDMDL
MODEL 9
REMARK VINA RESULT:      -7.0      2.475      9.391
REMARK  Name = 
REMARK  16 active torsions:
REMARK  status: ('A' for Active; 'I' for Inactive)
REMARK    1  A    between atoms: C_1  and  O_2
REMARK    2  A    between atoms: O_2  and  C_3
REMARK    3  A    between atoms: C_8  and  C_9
REMARK    4  A    between atoms: N_11  and  C_12
REMARK    5  A    between atoms: C_12  and  C_13
REMARK    6  A    between atoms: C_13  and  O_15
REMARK    7  A    between atoms: O_15  and  C_16
REMARK    8  A    between atoms: C_16  and  C_17
REMARK    9  A    between atoms: C_17  and  C_18
REMARK   10  A    between atoms: C_18  and  O_19
REMARK   11  A    between atoms: O_19  and  C_20
REMARK   12  A    between atoms: C_20  and  C_22
REMARK   13  A    between atoms: C_22  and  N_23
REMARK   14  A    between atoms: C_24  and  C_26
REMARK   15  A    between atoms: C_31  and  O_32
REMARK   16  A    between atoms: O_32  and  C_33
REMARK                            x       y       z     vdW  Elec       q    Type
REMARK                         _______ _______ _______ _____ _____    ______ ____
ROOT
ATOM      1  C   UNL     1       3.086   6.057  19.572  0.00  0.00    +0.000 C 
ENDROOT
BRANCH   1   2
ATOM      2  C   UNL     1       2.236   7.297  19.353  0.00  0.00    +0.000 C 
BRANCH   2   3
ATOM      3  O   UNL     1       1.711   7.726  20.621  0.00  0.00    +0.000 OA
BRANCH   3   4
ATOM      4  C   UNL     1       1.245   9.006  20.680  0.00  0.00    +0.000 C 
ATOM      5  O   UNL     1       0.940   9.604  21.702  0.00  0.00    +0.000 OA
BRANCH   4   6
ATOM      6  C   UNL     1       1.059   9.573  19.276  0.00  0.00    +0.000 C 
BRANCH   6   9
ATOM      7  C   UNL     1       1.579  11.886  18.582  0.00  0.00    +0.000 C 
ATOM      8  O   UNL     1       2.536  11.509  17.907  0.00  0.00    +0.000 OA
ATOM      9  N   UNL     1       0.791  11.002  19.283  0.00  0.00    +0.000 N 
ATOM     10  H   UNL     1       0.076  11.369  19.906  0.00  0.00    +0.000 HD
BRANCH   7  16
ATOM     11  C   UNL     1      -0.038  13.897  18.784  0.00  0.00    +0.000 A 
ATOM     12  C   UNL     1      -0.188  15.295  18.807  0.00  0.00    +0.000 A 
ATOM     13  C   UNL     1       0.918  16.145  18.729  0.00  0.00    +0.000 A 
ATOM     14  C   UNL     1       2.194  15.611  18.617  0.00  0.00    +0.000 A 
ATOM     15  C   UNL     1       2.357  14.226  18.572  0.00  0.00    +0.000 A 
ATOM     16  C   UNL     1       1.253  13.351  18.648  0.00  0.00    +0.000 A 
BRANCH  11  18
ATOM     17  C   UNL     1      -1.950  13.168  20.000  0.00  0.00    +0.000 C 
ATOM     18  O   UNL     1      -1.111  13.041  18.853  0.00  0.00    +0.000 OA
ENDBRANCH  11  18
ENDBRANCH   7  16
ENDBRANCH   6   9
ENDBRANCH   4   6
ENDBRANCH   3   4
ENDBRANCH   2   3
ENDBRANCH   1   2
BRANCH   1  19
ATOM     19  C   UNL     1       2.501   5.115  20.610  0.00  0.00    +0.000 C 
BRANCH  19  20
ATOM     20  O   UNL     1       3.062   3.807  20.406  0.00  0.00    +0.000 OA
BRANCH  20  21
ATOM     21  C   UNL     1       2.178   2.809  20.123  0.00  0.00    +0.000 C 
ATOM     22  O   UNL     1       1.107   2.635  20.684  0.00  0.00    +0.000 OA
BRANCH  21  23
ATOM     23  C   UNL     1       2.772   1.848  19.107  0.00  0.00    +0.000 C 
BRANCH  23  24
ATOM     24  N   UNL     1       3.884   2.473  18.415  0.00  0.00    +0.000 N 
ATOM     25  C   UNL     1       3.685   3.257  17.295  0.00  0.00    +0.000 C 
ATOM     26  O   UNL     1       2.586   3.414  16.788  0.00  0.00    +0.000 OA
ATOM     27  H   UNL     1       4.817   2.271  18.750  0.00  0.00    +0.000 HD
BRANCH  25  28
ATOM     28  C   UNL     1       4.913   3.885  16.717  0.00  0.00    +0.000 A 
ATOM     29  C   UNL     1       4.916   4.116  15.322  0.00  0.00    +0.000 A 
ATOM     30  C   UNL     1       6.004   4.719  14.691  0.00  0.00    +0.000 A 
ATOM     31  C   UNL     1       7.099   5.121  15.440  0.00  0.00    +0.000 A 
ATOM     32  C   UNL     1       7.097   4.929  16.824  0.00  0.00    +0.000 A 
ATOM     33  C   UNL     1       6.017   4.307  17.477  0.00  0.00    +0.000 A 
BRANCH  33  34
ATOM     34  O   UNL     1       6.187   4.284  18.835  0.00  0.00    +0.000 OA
ATOM     35  C   UNL     1       6.743   5.433  19.457  0.00  0.00    +0.000 C 
ENDBRANCH  33  34
ENDBRANCH  25  28
ENDBRANCH  23  24
ENDBRANCH  21  23
ENDBRANCH  20  21
ENDBRANCH  19  20
ENDBRANCH   1  19
TORSDOF 14
ENDMDL
