MODEL 1
REMARK VINA RESULT:      -8.0      0.000      0.000
REMARK  Name = 
REMARK  10 active torsions:
REMARK  status: ('A' for Active; 'I' for Inactive)
REMARK    1  A    between atoms: C_1  and  C_2
REMARK    2  A    between atoms: C_7  and  C_8
REMARK    3  A    between atoms: C_8  and  O_10
REMARK    4  A    between atoms: O_10  and  C_11
REMARK    5  A    between atoms: C_11  and  C_12
REMARK    6  A    between atoms: N_14  and  C_15
REMARK    7  A    between atoms: N_14  and  C_19
REMARK    8  A    between atoms: C_15  and  C_16
REMARK    9  A    between atoms: C_16  and  C_17
REMARK   10  A    between atoms: C_16  and  C_18
REMARK                            x       y       z     vdW  Elec       q    Type
REMARK                         _______ _______ _______ _____ _____    ______ ____
ROOT
ATOM      1  C   UNL     1       3.000   7.598  18.282  0.00  0.00    +0.000 C 
ENDROOT
BRANCH   1   2
ATOM      2  C   UNL     1       3.082   6.231  19.013  0.00  0.00    +0.000 C 
ATOM      3  O   UNL     1       2.449   6.043  20.049  0.00  0.00    +0.000 OA
ATOM      4  N   UNL     1       3.939   5.241  18.456  0.00  0.00    +0.000 N 
BRANCH   4   5
ATOM      5  C   UNL     1       4.661   5.476  17.176  0.00  0.00    +0.000 C 
ATOM      6  C   UNL     1       4.588   4.421  16.050  0.00  0.00    +0.000 C 
ATOM      7  C   UNL     1       5.930   3.735  15.856  0.00  0.00    +0.000 C 
ATOM      8  S   UNL     1       7.159   4.878  16.421  0.00  0.00    +0.000 S 
ATOM      9  O   UNL     1       7.605   5.656  15.280  0.00  0.00    +0.000 OA
ATOM     10  O   UNL     1       8.083   4.183  17.289  0.00  0.00    +0.000 OA
ATOM     11  C   UNL     1       6.111   5.909  17.405  0.00  0.00    +0.000 C 
ENDBRANCH   4   5
BRANCH   4  12
ATOM     12  C   UNL     1       4.024   3.943  19.168  0.00  0.00    +0.000 C 
BRANCH  12  13
ATOM     13  C   UNL     1       2.998   2.868  18.760  0.00  0.00    +0.000 C 
ATOM     14  C   UNL     1       3.624   1.555  18.298  0.00  0.00    +0.000 C 
ATOM     15  C   UNL     1       2.009   2.597  19.902  0.00  0.00    +0.000 C 
ENDBRANCH  12  13
ENDBRANCH   4  12
ENDBRANCH   1   2
BRANCH   1  16
ATOM     16  O   UNL     1       1.705   8.160  18.094  0.00  0.00    +0.000 OA
BRANCH  16  17
ATOM     17  C   UNL     1       1.636   9.523  18.213  0.00  0.00    +0.000 C 
ATOM     18  O   UNL     1       2.259  10.296  17.489  0.00  0.00    +0.000 OA
BRANCH  17  25
ATOM     19  C   UNL     1      -2.746  12.946  22.785  0.00  0.00    +0.000 C 
ATOM     20  C   UNL     1      -1.808  11.912  22.211  0.00  0.00    +0.000 A 
ATOM     21  C   UNL     1      -1.251  10.887  23.156  0.00  0.00    +0.000 A 
ATOM     22  C   UNL     1      -0.392  10.011  22.618  0.00  0.00    +0.000 A 
ATOM     23  N   UNL     1      -0.068  10.096  21.269  0.00  0.00    +0.000 N 
ATOM     24  N   UNL     1       0.798   9.346  20.553  0.00  0.00    +0.000 NA
ATOM     25  C   UNL     1       0.780   9.942  19.344  0.00  0.00    +0.000 A 
ATOM     26  N   UNL     1      -0.133  10.974  19.248  0.00  0.00    +0.000 NA
ATOM     27  C   UNL     1      -0.638  11.076  20.454  0.00  0.00    +0.000 A 
ATOM     28  N   UNL     1      -1.534  11.984  20.941  0.00  0.00    +0.000 NA
ENDBRANCH  17  25
ENDBRANCH  16  17
ENDBRANCH   1  16
TORSDOF 7
ENDMDL
MODEL 2
REMARK VINA RESULT:      -7.6      1.977      2.415
REMARK  Name = 
REMARK  10 active torsions:
REMARK  status: ('A' for Active; 'I' for Inactive)
REMARK    1  A    between atoms: C_1  and  C_2
REMARK    2  A    between atoms: C_7  and  C_8
REMARK    3  A    between atoms: C_8  and  O_10
REMARK    4  A    between atoms: O_10  and  C_11
REMARK    5  A    between atoms: C_11  and  C_12
REMARK    6  A    between atoms: N_14  and  C_15
REMARK    7  A    between atoms: N_14  and  C_19
REMARK    8  A    between atoms: C_15  and  C_16
REMARK    9  A    between atoms: C_16  and  C_17
REMARK   10  A    between atoms: C_16  and  C_18
REMARK                            x       y       z     vdW  Elec       q    Type
REMARK                         _______ _______ _______ _____ _____    ______ ____
ROOT
ATOM      1  C   UNL     1       2.630   8.100  18.060  0.00  0.00    +0.000 C 
ENDROOT
BRANCH   1   2
ATOM      2  C   UNL     1       2.715   6.898  19.039  0.00  0.00    +0.000 C 
ATOM      3  O   UNL     1       2.005   6.864  20.041  0.00  0.00    +0.000 OA
ATOM      4  N   UNL     1       3.664   5.880  18.745  0.00  0.00    +0.000 N 
BRANCH   4   5
ATOM      5  C   UNL     1       4.481   5.922  17.502  0.00  0.00    +0.000 C 
ATOM      6  C   UNL     1       4.397   4.758  16.490  0.00  0.00    +0.000 C 
ATOM      7  C   UNL     1       5.691   3.962  16.464  0.00  0.00    +0.000 C 
ATOM      8  S   UNL     1       6.967   5.069  16.992  0.00  0.00    +0.000 S 
ATOM      9  O   UNL     1       7.544   5.684  15.810  0.00  0.00    +0.000 OA
ATOM     10  O   UNL     1       7.778   4.409  17.992  0.00  0.00    +0.000 OA
ATOM     11  C   UNL     1       5.943   6.274  17.787  0.00  0.00    +0.000 C 
ENDBRANCH   4   5
BRANCH   4  12
ATOM     12  C   UNL     1       3.750   4.743  19.693  0.00  0.00    +0.000 C 
BRANCH  12  13
ATOM     13  C   UNL     1       2.779   3.571  19.450  0.00  0.00    +0.000 C 
ATOM     14  C   UNL     1       3.469   2.240  19.165  0.00  0.00    +0.000 C 
ATOM     15  C   UNL     1       1.811   3.411  20.631  0.00  0.00    +0.000 C 
ENDBRANCH  12  13
ENDBRANCH   4  12
ENDBRANCH   1   2
BRANCH   1  16
ATOM     16  O   UNL     1       1.336   8.635  17.796  0.00  0.00    +0.000 OA
BRANCH  16  17
ATOM     17  C   UNL     1       1.183   9.965  18.085  0.00  0.00    +0.000 C 
ATOM     18  O   UNL     1       2.124  10.715  18.331  0.00  0.00    +0.000 OA
BRANCH  17  25
ATOM     19  C   UNL     1      -5.285  12.670  19.722  0.00  0.00    +0.000 C 
ATOM     20  C   UNL     1      -4.200  11.892  19.017  0.00  0.00    +0.000 A 
ATOM     21  C   UNL     1      -4.631  10.875  18.001  0.00  0.00    +0.000 A 
ATOM     22  C   UNL     1      -3.642  10.178  17.426  0.00  0.00    +0.000 A 
ATOM     23  N   UNL     1      -2.322  10.416  17.790  0.00  0.00    +0.000 N 
ATOM     24  N   UNL     1      -1.197   9.798  17.366  0.00  0.00    +0.000 NA
ATOM     25  C   UNL     1      -0.241  10.366  18.127  0.00  0.00    +0.000 A 
ATOM     26  N   UNL     1      -0.708  11.380  18.941  0.00  0.00    +0.000 NA
ATOM     27  C   UNL     1      -2.004  11.388  18.740  0.00  0.00    +0.000 A 
ATOM     28  N   UNL     1      -2.966  12.143  19.346  0.00  0.00    +0.000 NA
ENDBRANCH  17  25
ENDBRANCH  16  17
ENDBRANCH   1  16
TORSDOF 7
ENDMDL
MODEL 3
REMARK VINA RESULT:      -7.5      1.096      1.560
REMARK  Name = 
REMARK  10 active torsions:
REMARK  status: ('A' for Active; 'I' for Inactive)
REMARK    1  A    between atoms: C_1  and  C_2
REMARK    2  A    between atoms: C_7  and  C_8
REMARK    3  A    between atoms: C_8  and  O_10
REMARK    4  A    between atoms: O_10  and  C_11
REMARK    5  A    between atoms: C_11  and  C_12
REMARK    6  A    between atoms: N_14  and  C_15
REMARK    7  A    between atoms: N_14  and  C_19
REMARK    8  A    between atoms: C_15  and  C_16
REMARK    9  A    between atoms: C_16  and  C_17
REMARK   10  A    between atoms: C_16  and  C_18
REMARK                            x       y       z     vdW  Elec       q    Type
REMARK                         _______ _______ _______ _____ _____    ______ ____
ROOT
ATOM      1  C   UNL     1       2.594   7.413  18.760  0.00  0.00    +0.000 C 
ENDROOT
BRANCH   1   2
ATOM      2  C   UNL     1       2.723   6.015  19.422  0.00  0.00    +0.000 C 
ATOM      3  O   UNL     1       2.037   5.726  20.400  0.00  0.00    +0.000 OA
ATOM      4  N   UNL     1       3.683   5.118  18.876  0.00  0.00    +0.000 N 
BRANCH   4   5
ATOM      5  C   UNL     1       4.471   5.473  17.665  0.00  0.00    +0.000 C 
ATOM      6  C   UNL     1       4.523   4.495  16.471  0.00  0.00    +0.000 C 
ATOM      7  C   UNL     1       5.908   3.888  16.321  0.00  0.00    +0.000 C 
ATOM      8  S   UNL     1       7.038   5.046  17.039  0.00  0.00    +0.000 S 
ATOM      9  O   UNL     1       7.515   5.921  15.982  0.00  0.00    +0.000 OA
ATOM     10  O   UNL     1       7.941   4.339  17.919  0.00  0.00    +0.000 OA
ATOM     11  C   UNL     1       5.879   5.958  18.017  0.00  0.00    +0.000 C 
ENDBRANCH   4   5
BRANCH   4  12
ATOM     12  C   UNL     1       3.812   3.790  19.524  0.00  0.00    +0.000 C 
BRANCH  12  13
ATOM     13  C   UNL     1       2.813   2.707  19.073  0.00  0.00    +0.000 C 
ATOM     14  C   UNL     1       1.699   3.227  18.167  0.00  0.00    +0.000 C 
ATOM     15  C   UNL     1       3.542   1.546  18.384  0.00  0.00    +0.000 C 
ENDBRANCH  12  13
ENDBRANCH   4  12
ENDBRANCH   1   2
BRANCH   1  16
ATOM     16  O   UNL     1       1.678   8.331  19.349  0.00  0.00    +0.000 OA
BRANCH  16  17
ATOM     17  C   UNL     1       1.449   9.473  18.628  0.00  0.00    +0.000 C 
ATOM     18  O   UNL     1       1.907   9.665  17.505  0.00  0.00    +0.000 OA
BRANCH  17  25
ATOM     19  C   UNL     1      -1.345  13.945  23.530  0.00  0.00    +0.000 C 
ATOM     20  C   UNL     1      -1.169  13.151  22.258  0.00  0.00    +0.000 A 
ATOM     21  C   UNL     1      -2.343  13.076  21.326  0.00  0.00    +0.000 A 
ATOM     22  C   UNL     1      -2.161  12.330  20.227  0.00  0.00    +0.000 A 
ATOM     23  N   UNL     1      -0.949  11.684  20.019  0.00  0.00    +0.000 N 
ATOM     24  N   UNL     1      -0.585  10.861  19.011  0.00  0.00    +0.000 NA
ATOM     25  C   UNL     1       0.646  10.458  19.385  0.00  0.00    +0.000 A 
ATOM     26  N   UNL     1       1.104  11.070  20.536  0.00  0.00    +0.000 NA
ATOM     27  C   UNL     1       0.099  11.812  20.933  0.00  0.00    +0.000 A 
ATOM     28  N   UNL     1      -0.020  12.573  22.061  0.00  0.00    +0.000 NA
ENDBRANCH  17  25
ENDBRANCH  16  17
ENDBRANCH   1  16
TORSDOF 7
ENDMDL
MODEL 4
REMARK VINA RESULT:      -7.5      1.321      1.703
REMARK  Name = 
REMARK  10 active torsions:
REMARK  status: ('A' for Active; 'I' for Inactive)
REMARK    1  A    between atoms: C_1  and  C_2
REMARK    2  A    between atoms: C_7  and  C_8
REMARK    3  A    between atoms: C_8  and  O_10
REMARK    4  A    between atoms: O_10  and  C_11
REMARK    5  A    between atoms: C_11  and  C_12
REMARK    6  A    between atoms: N_14  and  C_15
REMARK    7  A    between atoms: N_14  and  C_19
REMARK    8  A    between atoms: C_15  and  C_16
REMARK    9  A    between atoms: C_16  and  C_17
REMARK   10  A    between atoms: C_16  and  C_18
REMARK                            x       y       z     vdW  Elec       q    Type
REMARK                         _______ _______ _______ _____ _____    ______ ____
ROOT
ATOM      1  C   UNL     1       2.547   7.456  18.620  0.00  0.00    +0.000 C 
ENDROOT
BRANCH   1   2
ATOM      2  C   UNL     1       2.651   6.063  19.297  0.00  0.00    +0.000 C 
ATOM      3  O   UNL     1       1.935   5.786  20.256  0.00  0.00    +0.000 OA
ATOM      4  N   UNL     1       3.622   5.158  18.786  0.00  0.00    +0.000 N 
BRANCH   4   5
ATOM      5  C   UNL     1       4.446   5.499  17.595  0.00  0.00    +0.000 C 
ATOM      6  C   UNL     1       4.532   4.509  16.413  0.00  0.00    +0.000 C 
ATOM      7  C   UNL     1       5.920   3.899  16.311  0.00  0.00    +0.000 C 
ATOM      8  S   UNL     1       7.030   5.063  17.050  0.00  0.00    +0.000 S 
ATOM      9  O   UNL     1       7.539   5.926  15.999  0.00  0.00    +0.000 OA
ATOM     10  O   UNL     1       7.906   4.363  17.964  0.00  0.00    +0.000 OA
ATOM     11  C   UNL     1       5.844   5.986  17.984  0.00  0.00    +0.000 C 
ENDBRANCH   4   5
BRANCH   4  12
ATOM     12  C   UNL     1       3.726   3.835  19.449  0.00  0.00    +0.000 C 
BRANCH  12  13
ATOM     13  C   UNL     1       2.814   2.719  18.900  0.00  0.00    +0.000 C 
ATOM     14  C   UNL     1       3.565   1.470  18.447  0.00  0.00    +0.000 C 
ATOM     15  C   UNL     1       1.743   2.336  19.929  0.00  0.00    +0.000 C 
ENDBRANCH  12  13
ENDBRANCH   4  12
ENDBRANCH   1   2
BRANCH   1  16
ATOM     16  O   UNL     1       1.790   8.455  19.296  0.00  0.00    +0.000 OA
BRANCH  16  17
ATOM     17  C   UNL     1       1.529   9.585  18.568  0.00  0.00    +0.000 C 
ATOM     18  O   UNL     1       1.667   9.649  17.349  0.00  0.00    +0.000 OA
BRANCH  17  25
ATOM     19  C   UNL     1      -1.277  13.925  23.580  0.00  0.00    +0.000 C 
ATOM     20  C   UNL     1      -0.537  13.455  22.351  0.00  0.00    +0.000 A 
ATOM     21  C   UNL     1      -0.134  14.498  21.349  0.00  0.00    +0.000 A 
ATOM     22  C   UNL     1       0.485  14.037  20.253  0.00  0.00    +0.000 A 
ATOM     23  N   UNL     1       0.708  12.674  20.103  0.00  0.00    +0.000 N 
ATOM     24  N   UNL     1       1.269  12.013  19.067  0.00  0.00    +0.000 NA
ATOM     25  C   UNL     1       1.126  10.721  19.425  0.00  0.00    +0.000 A 
ATOM     26  N   UNL     1       0.585  10.551  20.685  0.00  0.00    +0.000 NA
ATOM     27  C   UNL     1       0.309  11.768  21.088  0.00  0.00    +0.000 A 
ATOM     28  N   UNL     1      -0.309  12.179  22.234  0.00  0.00    +0.000 NA
ENDBRANCH  17  25
ENDBRANCH  16  17
ENDBRANCH   1  16
TORSDOF 7
ENDMDL
MODEL 5
REMARK VINA RESULT:      -7.4      4.845      7.303
REMARK  Name = 
REMARK  10 active torsions:
REMARK  status: ('A' for Active; 'I' for Inactive)
REMARK    1  A    between atoms: C_1  and  C_2
REMARK    2  A    between atoms: C_7  and  C_8
REMARK    3  A    between atoms: C_8  and  O_10
REMARK    4  A    between atoms: O_10  and  C_11
REMARK    5  A    between atoms: C_11  and  C_12
REMARK    6  A    between atoms: N_14  and  C_15
REMARK    7  A    between atoms: N_14  and  C_19
REMARK    8  A    between atoms: C_15  and  C_16
REMARK    9  A    between atoms: C_16  and  C_17
REMARK   10  A    between atoms: C_16  and  C_18
REMARK                            x       y       z     vdW  Elec       q    Type
REMARK                         _______ _______ _______ _____ _____    ______ ____
ROOT
ATOM      1  C   UNL     1       5.986   6.426  17.033  0.00  0.00    +0.000 C 
ENDROOT
BRANCH   1   2
ATOM      2  C   UNL     1       4.519   6.677  17.473  0.00  0.00    +0.000 C 
ATOM      3  O   UNL     1       4.009   7.786  17.328  0.00  0.00    +0.000 OA
ATOM      4  N   UNL     1       3.821   5.593  18.075  0.00  0.00    +0.000 N 
BRANCH   4   5
ATOM      5  C   UNL     1       4.443   4.248  18.200  0.00  0.00    +0.000 C 
ATOM      6  C   UNL     1       3.776   3.029  17.525  0.00  0.00    +0.000 C 
ATOM      7  C   UNL     1       3.205   2.076  18.562  0.00  0.00    +0.000 C 
ATOM      8  S   UNL     1       4.146   2.327  20.040  0.00  0.00    +0.000 S 
ATOM      9  O   UNL     1       5.240   1.372  20.042  0.00  0.00    +0.000 OA
ATOM     10  O   UNL     1       3.239   2.461  21.158  0.00  0.00    +0.000 OA
ATOM     11  C   UNL     1       4.814   3.917  19.648  0.00  0.00    +0.000 C 
ENDBRANCH   4   5
BRANCH   4  12
ATOM     12  C   UNL     1       2.425   5.846  18.507  0.00  0.00    +0.000 C 
BRANCH  12  13
ATOM     13  C   UNL     1       2.210   6.116  20.010  0.00  0.00    +0.000 C 
ATOM     14  C   UNL     1       1.717   7.527  20.323  0.00  0.00    +0.000 C 
ATOM     15  C   UNL     1       1.249   5.085  20.618  0.00  0.00    +0.000 C 
ENDBRANCH  12  13
ENDBRANCH   4  12
ENDBRANCH   1   2
BRANCH   1  16
ATOM     16  O   UNL     1       6.858   7.551  17.000  0.00  0.00    +0.000 OA
BRANCH  16  17
ATOM     17  C   UNL     1       7.783   7.605  18.009  0.00  0.00    +0.000 C 
ATOM     18  O   UNL     1       8.089   6.633  18.696  0.00  0.00    +0.000 OA
BRANCH  17  25
ATOM     19  C   UNL     1      10.745  13.671  20.509  0.00  0.00    +0.000 C 
ATOM     20  C   UNL     1      10.024  12.703  19.602  0.00  0.00    +0.000 A 
ATOM     21  C   UNL     1       9.296  13.277  18.422  0.00  0.00    +0.000 A 
ATOM     22  C   UNL     1       8.636  12.391  17.664  0.00  0.00    +0.000 A 
ATOM     23  N   UNL     1       8.652  11.042  17.999  0.00  0.00    +0.000 N 
ATOM     24  N   UNL     1       8.023  10.008  17.397  0.00  0.00    +0.000 NA
ATOM     25  C   UNL     1       8.314   8.971  18.207  0.00  0.00    +0.000 A 
ATOM     26  N   UNL     1       9.176   9.295  19.237  0.00  0.00    +0.000 NA
ATOM     27  C   UNL     1       9.363  10.587  19.112  0.00  0.00    +0.000 A 
ATOM     28  N   UNL     1      10.069  11.439  19.911  0.00  0.00    +0.000 NA
ENDBRANCH  17  25
ENDBRANCH  16  17
ENDBRANCH   1  16
TORSDOF 7
ENDMDL
MODEL 6
REMARK VINA RESULT:      -7.4      1.880      2.278
REMARK  Name = 
REMARK  10 active torsions:
REMARK  status: ('A' for Active; 'I' for Inactive)
REMARK    1  A    between atoms: C_1  and  C_2
REMARK    2  A    between atoms: C_7  and  C_8
REMARK    3  A    between atoms: C_8  and  O_10
REMARK    4  A    between atoms: O_10  and  C_11
REMARK    5  A    between atoms: C_11  and  C_12
REMARK    6  A    between atoms: N_14  and  C_15
REMARK    7  A    between atoms: N_14  and  C_19
REMARK    8  A    between atoms: C_15  and  C_16
REMARK    9  A    between atoms: C_16  and  C_17
REMARK   10  A    between atoms: C_16  and  C_18
REMARK                            x       y       z     vdW  Elec       q    Type
REMARK                         _______ _______ _______ _____ _____    ______ ____
ROOT
ATOM      1  C   UNL     1       2.287   7.346  18.374  0.00  0.00    +0.000 C 
ENDROOT
BRANCH   1   2
ATOM      2  C   UNL     1       2.738   6.173  19.284  0.00  0.00    +0.000 C 
ATOM      3  O   UNL     1       2.125   5.919  20.318  0.00  0.00    +0.000 OA
ATOM      4  N   UNL     1       3.897   5.446  18.890  0.00  0.00    +0.000 N 
BRANCH   4   5
ATOM      5  C   UNL     1       4.597   5.744  17.611  0.00  0.00    +0.000 C 
ATOM      6  C   UNL     1       4.475   4.763  16.425  0.00  0.00    +0.000 C 
ATOM      7  C   UNL     1       5.796   4.061  16.158  0.00  0.00    +0.000 C 
ATOM      8  S   UNL     1       7.063   5.138  16.765  0.00  0.00    +0.000 S 
ATOM      9  O   UNL     1       7.504   5.976  15.664  0.00  0.00    +0.000 OA
ATOM     10  O   UNL     1       7.989   4.370  17.568  0.00  0.00    +0.000 OA
ATOM     11  C   UNL     1       6.061   6.130  17.834  0.00  0.00    +0.000 C 
ENDBRANCH   4   5
BRANCH   4  12
ATOM     12  C   UNL     1       4.331   4.337  19.773  0.00  0.00    +0.000 C 
BRANCH  12  13
ATOM     13  C   UNL     1       4.078   2.908  19.253  0.00  0.00    +0.000 C 
ATOM     14  C   UNL     1       4.632   1.810  20.158  0.00  0.00    +0.000 C 
ATOM     15  C   UNL     1       2.581   2.673  19.009  0.00  0.00    +0.000 C 
ENDBRANCH  12  13
ENDBRANCH   4  12
ENDBRANCH   1   2
BRANCH   1  16
ATOM     16  O   UNL     1       1.828   8.531  19.018  0.00  0.00    +0.000 OA
BRANCH  16  17
ATOM     17  C   UNL     1       1.544   9.579  18.183  0.00  0.00    +0.000 C 
ATOM     18  O   UNL     1       2.353  10.043  17.384  0.00  0.00    +0.000 OA
BRANCH  17  25
ATOM     19  C   UNL     1      -5.337  11.635  17.686  0.00  0.00    +0.000 C 
ATOM     20  C   UNL     1      -3.937  11.452  18.220  0.00  0.00    +0.000 A 
ATOM     21  C   UNL     1      -3.538  12.285  19.403  0.00  0.00    +0.000 A 
ATOM     22  C   UNL     1      -2.275  12.123  19.824  0.00  0.00    +0.000 A 
ATOM     23  N   UNL     1      -1.433  11.234  19.166  0.00  0.00    +0.000 N 
ATOM     24  N   UNL     1      -0.131  10.963  19.403  0.00  0.00    +0.000 NA
ATOM     25  C   UNL     1       0.183  10.115  18.403  0.00  0.00    +0.000 A 
ATOM     26  N   UNL     1      -0.893   9.772  17.607  0.00  0.00    +0.000 NA
ATOM     27  C   UNL     1      -1.886  10.489  18.076  0.00  0.00    +0.000 A 
ATOM     28  N   UNL     1      -3.167  10.597  17.614  0.00  0.00    +0.000 NA
ENDBRANCH  17  25
ENDBRANCH  16  17
ENDBRANCH   1  16
TORSDOF 7
ENDMDL
MODEL 7
REMARK VINA RESULT:      -7.3      2.142      2.559
REMARK  Name = 
REMARK  10 active torsions:
REMARK  status: ('A' for Active; 'I' for Inactive)
REMARK    1  A    between atoms: C_1  and  C_2
REMARK    2  A    between atoms: C_7  and  C_8
REMARK    3  A    between atoms: C_8  and  O_10
REMARK    4  A    between atoms: O_10  and  C_11
REMARK    5  A    between atoms: C_11  and  C_12
REMARK    6  A    between atoms: N_14  and  C_15
REMARK    7  A    between atoms: N_14  and  C_19
REMARK    8  A    between atoms: C_15  and  C_16
REMARK    9  A    between atoms: C_16  and  C_17
REMARK   10  A    between atoms: C_16  and  C_18
REMARK                            x       y       z     vdW  Elec       q    Type
REMARK                         _______ _______ _______ _____ _____    ______ ____
ROOT
ATOM      1  C   UNL     1       2.516   8.041  18.488  0.00  0.00    +0.000 C 
ENDROOT
BRANCH   1   2
ATOM      2  C   UNL     1       2.405   6.787  19.396  0.00  0.00    +0.000 C 
ATOM      3  O   UNL     1       1.739   6.826  20.428  0.00  0.00    +0.000 OA
ATOM      4  N   UNL     1       3.129   5.627  19.004  0.00  0.00    +0.000 N 
BRANCH   4   5
ATOM      5  C   UNL     1       3.893   5.589  17.727  0.00  0.00    +0.000 C 
ATOM      6  C   UNL     1       3.865   4.314  16.855  0.00  0.00    +0.000 C 
ATOM      7  C   UNL     1       5.217   3.621  16.858  0.00  0.00    +0.000 C 
ATOM      8  S   UNL     1       6.418   4.876  17.200  0.00  0.00    +0.000 S 
ATOM      9  O   UNL     1       6.899   5.394  15.932  0.00  0.00    +0.000 OA
ATOM     10  O   UNL     1       7.317   4.398  18.227  0.00  0.00    +0.000 OA
ATOM     11  C   UNL     1       5.331   6.082  17.903  0.00  0.00    +0.000 C 
ENDBRANCH   4   5
BRANCH   4  12
ATOM     12  C   UNL     1       3.030   4.439  19.885  0.00  0.00    +0.000 C 
BRANCH  12  13
ATOM     13  C   UNL     1       1.620   3.848  20.085  0.00  0.00    +0.000 C 
ATOM     14  C   UNL     1       1.117   3.025  18.902  0.00  0.00    +0.000 C 
ATOM     15  C   UNL     1       1.559   3.005  21.366  0.00  0.00    +0.000 C 
ENDBRANCH  12  13
ENDBRANCH   4  12
ENDBRANCH   1   2
BRANCH   1  16
ATOM     16  O   UNL     1       1.301   8.608  18.008  0.00  0.00    +0.000 OA
BRANCH  16  17
ATOM     17  C   UNL     1       1.199   9.967  18.136  0.00  0.00    +0.000 C 
ATOM     18  O   UNL     1       2.168  10.722  18.108  0.00  0.00    +0.000 OA
BRANCH  17  25
ATOM     19  C   UNL     1      -5.841  11.421  17.759  0.00  0.00    +0.000 C 
ATOM     20  C   UNL     1      -4.416  11.385  18.255  0.00  0.00    +0.000 A 
ATOM     21  C   UNL     1      -4.053  12.316  19.375  0.00  0.00    +0.000 A 
ATOM     22  C   UNL     1      -2.770  12.282  19.761  0.00  0.00    +0.000 A 
ATOM     23  N   UNL     1      -1.876  11.429  19.125  0.00  0.00    +0.000 N 
ATOM     24  N   UNL     1      -0.549  11.279  19.333  0.00  0.00    +0.000 NA
ATOM     25  C   UNL     1      -0.195  10.403  18.372  0.00  0.00    +0.000 A 
ATOM     26  N   UNL     1      -1.261   9.927  17.633  0.00  0.00    +0.000 NA
ATOM     27  C   UNL     1      -2.297  10.586  18.094  0.00  0.00    +0.000 A 
ATOM     28  N   UNL     1      -3.595  10.562  17.671  0.00  0.00    +0.000 NA
ENDBRANCH  17  25
ENDBRANCH  16  17
ENDBRANCH   1  16
TORSDOF 7
ENDMDL
MODEL 8
REMARK VINA RESULT:      -7.2      1.215      1.648
REMARK  Name = 
REMARK  10 active torsions:
REMARK  status: ('A' for Active; 'I' for Inactive)
REMARK    1  A    between atoms: C_1  and  C_2
REMARK    2  A    between atoms: C_7  and  C_8
REMARK    3  A    between atoms: C_8  and  O_10
REMARK    4  A    between atoms: O_10  and  C_11
REMARK    5  A    between atoms: C_11  and  C_12
REMARK    6  A    between atoms: N_14  and  C_15
REMARK    7  A    between atoms: N_14  and  C_19
REMARK    8  A    between atoms: C_15  and  C_16
REMARK    9  A    between atoms: C_16  and  C_17
REMARK   10  A    between atoms: C_16  and  C_18
REMARK                            x       y       z     vdW  Elec       q    Type
REMARK                         _______ _______ _______ _____ _____    ______ ____
ROOT
ATOM      1  C   UNL     1       2.633   7.135  19.655  0.00  0.00    +0.000 C 
ENDROOT
BRANCH   1   2
ATOM      2  C   UNL     1       2.947   5.617  19.728  0.00  0.00    +0.000 C 
ATOM      3  O   UNL     1       2.234   4.868  20.391  0.00  0.00    +0.000 OA
ATOM      4  N   UNL     1       4.100   5.153  19.036  0.00  0.00    +0.000 N 
BRANCH   4   5
ATOM      5  C   UNL     1       4.924   6.071  18.204  0.00  0.00    +0.000 C 
ATOM      6  C   UNL     1       4.566   6.284  16.716  0.00  0.00    +0.000 C 
ATOM      7  C   UNL     1       5.618   5.669  15.808  0.00  0.00    +0.000 C 
ATOM      8  S   UNL     1       7.122   5.637  16.740  0.00  0.00    +0.000 S 
ATOM      9  O   UNL     1       7.857   6.855  16.449  0.00  0.00    +0.000 OA
ATOM     10  O   UNL     1       7.723   4.327  16.618  0.00  0.00    +0.000 OA
ATOM     11  C   UNL     1       6.422   5.799  18.357  0.00  0.00    +0.000 C 
ENDBRANCH   4   5
BRANCH   4  12
ATOM     12  C   UNL     1       4.403   3.704  19.124  0.00  0.00    +0.000 C 
BRANCH  12  13
ATOM     13  C   UNL     1       3.883   2.823  17.971  0.00  0.00    +0.000 C 
ATOM     14  C   UNL     1       3.620   1.372  18.366  0.00  0.00    +0.000 C 
ATOM     15  C   UNL     1       2.616   3.429  17.351  0.00  0.00    +0.000 C 
ENDBRANCH  12  13
ENDBRANCH   4  12
ENDBRANCH   1   2
BRANCH   1  16
ATOM     16  O   UNL     1       1.620   7.548  18.743  0.00  0.00    +0.000 OA
BRANCH  16  17
ATOM     17  C   UNL     1       1.727   8.837  18.293  0.00  0.00    +0.000 C 
ATOM     18  O   UNL     1       2.473   9.171  17.376  0.00  0.00    +0.000 OA
BRANCH  17  25
ATOM     19  C   UNL     1      -2.345  12.137  23.228  0.00  0.00    +0.000 C 
ATOM     20  C   UNL     1      -1.610  11.857  21.939  0.00  0.00    +0.000 A 
ATOM     21  C   UNL     1      -1.919  12.740  20.765  0.00  0.00    +0.000 A 
ATOM     22  C   UNL     1      -1.275  12.436  19.629  0.00  0.00    +0.000 A 
ATOM     23  N   UNL     1      -0.398  11.359  19.595  0.00  0.00    +0.000 N 
ATOM     24  N   UNL     1       0.306  10.867  18.552  0.00  0.00    +0.000 NA
ATOM     25  C   UNL     1       0.892   9.773  19.077  0.00  0.00    +0.000 A 
ATOM     26  N   UNL     1       0.660   9.614  20.429  0.00  0.00    +0.000 NA
ATOM     27  C   UNL     1      -0.159  10.591  20.737  0.00  0.00    +0.000 A 
ATOM     28  N   UNL     1      -0.770  10.864  21.927  0.00  0.00    +0.000 NA
ENDBRANCH  17  25
ENDBRANCH  16  17
ENDBRANCH   1  16
TORSDOF 7
ENDMDL
MODEL 9
REMARK VINA RESULT:      -7.2      1.089      1.295
REMARK  Name = 
REMARK  10 active torsions:
REMARK  status: ('A' for Active; 'I' for Inactive)
REMARK    1  A    between atoms: C_1  and  C_2
REMARK    2  A    between atoms: C_7  and  C_8
REMARK    3  A    between atoms: C_8  and  O_10
REMARK    4  A    between atoms: O_10  and  C_11
REMARK    5  A    between atoms: C_11  and  C_12
REMARK    6  A    between atoms: N_14  and  C_15
REMARK    7  A    between atoms: N_14  and  C_19
REMARK    8  A    between atoms: C_15  and  C_16
REMARK    9  A    between atoms: C_16  and  C_17
REMARK   10  A    between atoms: C_16  and  C_18
REMARK                            x       y       z     vdW  Elec       q    Type
REMARK                         _______ _______ _______ _____ _____    ______ ____
ROOT
ATOM      1  C   UNL     1       1.958   6.468  17.791  0.00  0.00    +0.000 C 
ENDROOT
BRANCH   1   2
ATOM      2  C   UNL     1       2.163   5.002  18.258  0.00  0.00    +0.000 C 
ATOM      3  O   UNL     1       1.298   4.437  18.924  0.00  0.00    +0.000 OA
ATOM      4  N   UNL     1       3.392   4.372  17.917  0.00  0.00    +0.000 N 
BRANCH   4   5
ATOM      5  C   UNL     1       4.405   5.061  17.072  0.00  0.00    +0.000 C 
ATOM      6  C   UNL     1       4.983   4.345  15.832  0.00  0.00    +0.000 C 
ATOM      7  C   UNL     1       6.445   3.986  16.041  0.00  0.00    +0.000 C 
ATOM      8  S   UNL     1       7.076   5.139  17.226  0.00  0.00    +0.000 S 
ATOM      9  O   UNL     1       7.651   6.258  16.501  0.00  0.00    +0.000 OA
ATOM     10  O   UNL     1       7.813   4.416  18.238  0.00  0.00    +0.000 OA
ATOM     11  C   UNL     1       5.533   5.670  17.909  0.00  0.00    +0.000 C 
ENDBRANCH   4   5
BRANCH   4  12
ATOM     12  C   UNL     1       3.587   2.977  18.380  0.00  0.00    +0.000 C 
BRANCH  12  13
ATOM     13  C   UNL     1       4.096   2.799  19.825  0.00  0.00    +0.000 C 
ATOM     14  C   UNL     1       2.991   2.806  20.878  0.00  0.00    +0.000 C 
ATOM     15  C   UNL     1       4.928   1.515  19.955  0.00  0.00    +0.000 C 
ENDBRANCH  12  13
ENDBRANCH   4  12
ENDBRANCH   1   2
BRANCH   1  16
ATOM     16  O   UNL     1       2.430   7.499  18.654  0.00  0.00    +0.000 OA
BRANCH  16  17
ATOM     17  C   UNL     1       1.936   8.750  18.396  0.00  0.00    +0.000 C 
ATOM     18  O   UNL     1       2.207   9.387  17.381  0.00  0.00    +0.000 OA
BRANCH  17  25
ATOM     19  C   UNL     1      -2.192  12.619  22.848  0.00  0.00    +0.000 C 
ATOM     20  C   UNL     1      -1.350  11.492  22.299  0.00  0.00    +0.000 A 
ATOM     21  C   UNL     1      -0.927  10.419  23.259  0.00  0.00    +0.000 A 
ATOM     22  C   UNL     1      -0.149   9.457  22.744  0.00  0.00    +0.000 A 
ATOM     23  N   UNL     1       0.218   9.504  21.405  0.00  0.00    +0.000 N 
ATOM     24  N   UNL     1       1.022   8.667  20.713  0.00  0.00    +0.000 NA
ATOM     25  C   UNL     1       1.097   9.258  19.504  0.00  0.00    +0.000 A 
ATOM     26  N   UNL     1       0.299  10.379  19.383  0.00  0.00    +0.000 NA
ATOM     27  C   UNL     1      -0.226  10.536  20.574  0.00  0.00    +0.000 A 
ATOM     28  N   UNL     1      -1.036  11.533  21.037  0.00  0.00    +0.000 NA
ENDBRANCH  17  25
ENDBRANCH  16  17
ENDBRANCH   1  16
TORSDOF 7
ENDMDL
