MODEL 1
REMARK VINA RESULT:      -9.1      0.000      0.000
REMARK  Name = 
REMARK  5 active torsions:
REMARK  status: ('A' for Active; 'I' for Inactive)
REMARK    1  A    between atoms: N_6  and  C_7
REMARK    2  A    between atoms: C_7  and  C_8
REMARK    3  A    between atoms: C_16  and  C_17
REMARK    4  A    between atoms: C_16  and  C_21
REMARK    5  A    between atoms: C_26  and  C_27
REMARK                            x       y       z     vdW  Elec       q    Type
REMARK                         _______ _______ _______ _____ _____    ______ ____
ROOT
ATOM      1  O   UNL     1       3.482   1.610  18.458  0.00  0.00    +0.000 OA
ATOM      2  C   UNL     1       3.838   2.647  17.899  0.00  0.00    +0.000 A 
ATOM      3  N   UNL     1       4.727   2.667  16.877  0.00  0.00    +0.000 N 
ATOM      4  C   UNL     1       5.289   3.789  16.345  0.00  0.00    +0.000 A 
ATOM      5  O   UNL     1       6.231   3.679  15.564  0.00  0.00    +0.000 OA
ATOM      6  N   UNL     1       4.758   5.003  16.778  0.00  0.00    +0.000 N 
ATOM      7  C   UNL     1       3.738   5.074  17.728  0.00  0.00    +0.000 A 
ATOM      8  C   UNL     1       3.303   3.950  18.325  0.00  0.00    +0.000 A 
ATOM      9  C   UNL     1       2.272   3.938  19.455  0.00  0.00    +0.000 C 
ATOM     10  N   UNL     1       1.856   5.342  19.839  0.00  0.00    +0.000 NA
ATOM     11  C   UNL     1       2.281   6.365  19.183  0.00  0.00    +0.000 C 
ATOM     12  N   UNL     1       3.157   6.251  18.136  0.00  0.00    +0.000 N 
ATOM     13  H   UNL     1       5.137   1.787  16.601  0.00  0.00    +0.000 HD
ATOM     14  H   UNL     1       3.361   7.090  17.607  0.00  0.00    +0.000 HD
ENDROOT
BRANCH  11  15
ATOM     15  C   UNL     1       1.773   7.647  19.677  0.00  0.00    +0.000 A 
ATOM     16  C   UNL     1       1.387   7.964  20.967  0.00  0.00    +0.000 A 
ATOM     17  C   UNL     1       0.987   9.324  21.104  0.00  0.00    +0.000 A 
ATOM     18  C   UNL     1       1.057   9.998  19.905  0.00  0.00    +0.000 A 
ATOM     19  S   UNL     1       1.608   8.991  18.631  0.00  0.00    +0.000 S 
ENDBRANCH  11  15
BRANCH   9  20
ATOM     20  C   UNL     1       2.873   3.282  20.735  0.00  0.00    +0.000 C 
ATOM     21  F   UNL     1       2.630   4.045  21.839  0.00  0.00    +0.000 F 
ATOM     22  F   UNL     1       2.269   2.091  21.009  0.00  0.00    +0.000 F 
ATOM     23  F   UNL     1       4.192   3.033  20.723  0.00  0.00    +0.000 F 
ENDBRANCH   9  20
BRANCH   9  24
ATOM     24  C   UNL     1       0.991   3.176  19.016  0.00  0.00    +0.000 C 
ATOM     25  F   UNL     1       0.570   3.574  17.784  0.00  0.00    +0.000 F 
ATOM     26  F   UNL     1       1.071   1.835  18.986  0.00  0.00    +0.000 F 
ATOM     27  F   UNL     1      -0.057   3.467  19.838  0.00  0.00    +0.000 F 
ENDBRANCH   9  24
BRANCH   6  28
ATOM     28  C   UNL     1       5.465   6.205  16.324  0.00  0.00    +0.000 C 
BRANCH  28  29
ATOM     29  C   UNL     1       6.498   6.776  17.272  0.00  0.00    +0.000 A 
ATOM     30  C   UNL     1       7.148   6.010  18.247  0.00  0.00    +0.000 A 
ATOM     31  C   UNL     1       8.190   6.558  19.002  0.00  0.00    +0.000 A 
ATOM     32  C   UNL     1       8.594   7.875  18.796  0.00  0.00    +0.000 A 
ATOM     33  C   UNL     1       7.941   8.659  17.850  0.00  0.00    +0.000 A 
ATOM     34  C   UNL     1       6.901   8.113  17.094  0.00  0.00    +0.000 A 
ENDBRANCH  28  29
ENDBRANCH   6  28
TORSDOF 5
ENDMDL
MODEL 2
REMARK VINA RESULT:      -9.0      0.146      1.081
REMARK  Name = 
REMARK  5 active torsions:
REMARK  status: ('A' for Active; 'I' for Inactive)
REMARK    1  A    between atoms: N_6  and  C_7
REMARK    2  A    between atoms: C_7  and  C_8
REMARK    3  A    between atoms: C_16  and  C_17
REMARK    4  A    between atoms: C_16  and  C_21
REMARK    5  A    between atoms: C_26  and  C_27
REMARK                            x       y       z     vdW  Elec       q    Type
REMARK                         _______ _______ _______ _____ _____    ______ ____
ROOT
ATOM      1  O   UNL     1       3.535   1.669  18.380  0.00  0.00    +0.000 OA
ATOM      2  C   UNL     1       3.884   2.711  17.826  0.00  0.00    +0.000 A 
ATOM      3  N   UNL     1       4.766   2.740  16.797  0.00  0.00    +0.000 N 
ATOM      4  C   UNL     1       5.322   3.866  16.270  0.00  0.00    +0.000 A 
ATOM      5  O   UNL     1       6.258   3.765  15.480  0.00  0.00    +0.000 OA
ATOM      6  N   UNL     1       4.791   5.076  16.714  0.00  0.00    +0.000 N 
ATOM      7  C   UNL     1       3.778   5.138  17.672  0.00  0.00    +0.000 A 
ATOM      8  C   UNL     1       3.350   4.009  18.264  0.00  0.00    +0.000 A 
ATOM      9  C   UNL     1       2.327   3.987  19.402  0.00  0.00    +0.000 C 
ATOM     10  N   UNL     1       1.910   5.387  19.797  0.00  0.00    +0.000 NA
ATOM     11  C   UNL     1       2.328   6.416  19.146  0.00  0.00    +0.000 C 
ATOM     12  N   UNL     1       3.196   6.311  18.092  0.00  0.00    +0.000 N 
ATOM     13  H   UNL     1       5.177   1.863  16.512  0.00  0.00    +0.000 HD
ATOM     14  H   UNL     1       3.395   7.154  17.567  0.00  0.00    +0.000 HD
ENDROOT
BRANCH  11  15
ATOM     15  C   UNL     1       1.820   7.693  19.652  0.00  0.00    +0.000 A 
ATOM     16  C   UNL     1       1.450   8.002  20.949  0.00  0.00    +0.000 A 
ATOM     17  C   UNL     1       1.045   9.360  21.097  0.00  0.00    +0.000 A 
ATOM     18  C   UNL     1       1.095  10.039  19.900  0.00  0.00    +0.000 A 
ATOM     19  S   UNL     1       1.634   9.040  18.614  0.00  0.00    +0.000 S 
ENDBRANCH  11  15
BRANCH   9  20
ATOM     20  C   UNL     1       2.939   3.324  20.673  0.00  0.00    +0.000 C 
ATOM     21  F   UNL     1       4.295   3.221  20.570  0.00  0.00    +0.000 F 
ATOM     22  F   UNL     1       2.744   4.101  21.776  0.00  0.00    +0.000 F 
ATOM     23  F   UNL     1       2.483   2.103  20.995  0.00  0.00    +0.000 F 
ENDBRANCH   9  20
BRANCH   9  24
ATOM     24  C   UNL     1       1.045   3.224  18.966  0.00  0.00    +0.000 C 
ATOM     25  F   UNL     1       0.625   3.615  17.732  0.00  0.00    +0.000 F 
ATOM     26  F   UNL     1       1.122   1.883  18.945  0.00  0.00    +0.000 F 
ATOM     27  F   UNL     1      -0.004   3.523  19.786  0.00  0.00    +0.000 F 
ENDBRANCH   9  24
BRANCH   6  28
ATOM     28  C   UNL     1       5.492   6.283  16.263  0.00  0.00    +0.000 C 
BRANCH  28  29
ATOM     29  C   UNL     1       6.628   6.767  17.138  0.00  0.00    +0.000 A 
ATOM     30  C   UNL     1       7.134   8.072  17.083  0.00  0.00    +0.000 A 
ATOM     31  C   UNL     1       8.089   8.503  18.009  0.00  0.00    +0.000 A 
ATOM     32  C   UNL     1       8.554   7.639  18.998  0.00  0.00    +0.000 A 
ATOM     33  C   UNL     1       8.082   6.331  19.050  0.00  0.00    +0.000 A 
ATOM     34  C   UNL     1       7.126   5.899  18.128  0.00  0.00    +0.000 A 
ENDBRANCH  28  29
ENDBRANCH   6  28
TORSDOF 5
ENDMDL
MODEL 3
REMARK VINA RESULT:      -8.7      0.583      1.012
REMARK  Name = 
REMARK  5 active torsions:
REMARK  status: ('A' for Active; 'I' for Inactive)
REMARK    1  A    between atoms: N_6  and  C_7
REMARK    2  A    between atoms: C_7  and  C_8
REMARK    3  A    between atoms: C_16  and  C_17
REMARK    4  A    between atoms: C_16  and  C_21
REMARK    5  A    between atoms: C_26  and  C_27
REMARK                            x       y       z     vdW  Elec       q    Type
REMARK                         _______ _______ _______ _____ _____    ______ ____
ROOT
ATOM      1  O   UNL     1       3.470   1.691  18.392  0.00  0.00    +0.000 OA
ATOM      2  C   UNL     1       3.864   2.710  17.825  0.00  0.00    +0.000 A 
ATOM      3  N   UNL     1       4.785   2.692  16.832  0.00  0.00    +0.000 N 
ATOM      4  C   UNL     1       5.387   3.792  16.297  0.00  0.00    +0.000 A 
ATOM      5  O   UNL     1       6.351   3.648  15.548  0.00  0.00    +0.000 OA
ATOM      6  N   UNL     1       4.867   5.024  16.688  0.00  0.00    +0.000 N 
ATOM      7  C   UNL     1       3.819   5.134  17.604  0.00  0.00    +0.000 A 
ATOM      8  C   UNL     1       3.342   4.031  18.207  0.00  0.00    +0.000 A 
ATOM      9  C   UNL     1       2.276   4.062  19.304  0.00  0.00    +0.000 C 
ATOM     10  N   UNL     1       1.876   5.481  19.646  0.00  0.00    +0.000 NA
ATOM     11  C   UNL     1       2.342   6.483  18.985  0.00  0.00    +0.000 C 
ATOM     12  N   UNL     1       3.248   6.330  17.969  0.00  0.00    +0.000 N 
ATOM     13  H   UNL     1       5.187   1.799  16.586  0.00  0.00    +0.000 HD
ATOM     14  H   UNL     1       3.486   7.154  17.430  0.00  0.00    +0.000 HD
ENDROOT
BRANCH  11  15
ATOM     15  C   UNL     1       1.845   7.784  19.437  0.00  0.00    +0.000 A 
ATOM     16  C   UNL     1       1.669   8.931  18.684  0.00  0.00    +0.000 A 
ATOM     17  C   UNL     1       1.118  10.006  19.438  0.00  0.00    +0.000 A 
ATOM     18  C   UNL     1       0.913   9.652  20.753  0.00  0.00    +0.000 A 
ATOM     19  S   UNL     1       1.379   8.031  21.065  0.00  0.00    +0.000 S 
ENDBRANCH  11  15
BRANCH   9  20
ATOM     20  C   UNL     1       2.823   3.421  20.615  0.00  0.00    +0.000 C 
ATOM     21  F   UNL     1       2.343   2.155  20.781  0.00  0.00    +0.000 F 
ATOM     22  F   UNL     1       4.176   3.263  20.560  0.00  0.00    +0.000 F 
ATOM     23  F   UNL     1       2.573   4.080  21.758  0.00  0.00    +0.000 F 
ENDBRANCH   9  20
BRANCH   9  24
ATOM     24  C   UNL     1       0.995   3.316  18.839  0.00  0.00    +0.000 C 
ATOM     25  F   UNL     1       0.563   3.771  17.630  0.00  0.00    +0.000 F 
ATOM     26  F   UNL     1       1.080   1.978  18.744  0.00  0.00    +0.000 F 
ATOM     27  F   UNL     1      -0.049   3.564  19.681  0.00  0.00    +0.000 F 
ENDBRANCH   9  24
BRANCH   6  28
ATOM     28  C   UNL     1       5.612   6.203  16.234  0.00  0.00    +0.000 C 
BRANCH  28  29
ATOM     29  C   UNL     1       6.596   6.798  17.219  0.00  0.00    +0.000 A 
ATOM     30  C   UNL     1       7.233   6.045  18.213  0.00  0.00    +0.000 A 
ATOM     31  C   UNL     1       8.234   6.618  19.005  0.00  0.00    +0.000 A 
ATOM     32  C   UNL     1       8.608   7.946  18.818  0.00  0.00    +0.000 A 
ATOM     33  C   UNL     1       7.966   8.716  17.853  0.00  0.00    +0.000 A 
ATOM     34  C   UNL     1       6.968   8.145  17.060  0.00  0.00    +0.000 A 
ENDBRANCH  28  29
ENDBRANCH   6  28
TORSDOF 5
ENDMDL
MODEL 4
REMARK VINA RESULT:      -8.0      1.077      1.602
REMARK  Name = 
REMARK  5 active torsions:
REMARK  status: ('A' for Active; 'I' for Inactive)
REMARK    1  A    between atoms: N_6  and  C_7
REMARK    2  A    between atoms: C_7  and  C_8
REMARK    3  A    between atoms: C_16  and  C_17
REMARK    4  A    between atoms: C_16  and  C_21
REMARK    5  A    between atoms: C_26  and  C_27
REMARK                            x       y       z     vdW  Elec       q    Type
REMARK                         _______ _______ _______ _____ _____    ______ ____
ROOT
ATOM      1  O   UNL     1       4.134   2.179  17.778  0.00  0.00    +0.000 OA
ATOM      2  C   UNL     1       4.510   3.249  17.300  0.00  0.00    +0.000 A 
ATOM      3  N   UNL     1       5.516   3.342  16.397  0.00  0.00    +0.000 N 
ATOM      4  C   UNL     1       6.088   4.504  15.975  0.00  0.00    +0.000 A 
ATOM      5  O   UNL     1       7.123   4.462  15.313  0.00  0.00    +0.000 OA
ATOM      6  N   UNL     1       5.455   5.679  16.376  0.00  0.00    +0.000 N 
ATOM      7  C   UNL     1       4.324   5.674  17.194  0.00  0.00    +0.000 A 
ATOM      8  C   UNL     1       3.869   4.513  17.696  0.00  0.00    +0.000 A 
ATOM      9  C   UNL     1       2.709   4.418  18.689  0.00  0.00    +0.000 C 
ATOM     10  N   UNL     1       2.186   5.789  19.061  0.00  0.00    +0.000 NA
ATOM     11  C   UNL     1       2.643   6.852  18.496  0.00  0.00    +0.000 C 
ATOM     12  N   UNL     1       3.645   6.811  17.562  0.00  0.00    +0.000 N 
ATOM     13  H   UNL     1       5.996   2.490  16.147  0.00  0.00    +0.000 HD
ATOM     14  H   UNL     1       3.875   7.676  17.089  0.00  0.00    +0.000 HD
ENDROOT
BRANCH  11  15
ATOM     15  C   UNL     1       2.021   8.093  18.962  0.00  0.00    +0.000 A 
ATOM     16  C   UNL     1       1.746   9.231  18.224  0.00  0.00    +0.000 A 
ATOM     17  C   UNL     1       1.090  10.238  18.989  0.00  0.00    +0.000 A 
ATOM     18  C   UNL     1       0.906   9.845  20.296  0.00  0.00    +0.000 A 
ATOM     19  S   UNL     1       1.519   8.270  20.588  0.00  0.00    +0.000 S 
ENDBRANCH  11  15
BRANCH   9  20
ATOM     20  C   UNL     1       3.177   3.741  20.012  0.00  0.00    +0.000 C 
ATOM     21  F   UNL     1       4.524   3.867  20.180  0.00  0.00    +0.000 F 
ATOM     22  F   UNL     1       2.643   4.365  21.101  0.00  0.00    +0.000 F 
ATOM     23  F   UNL     1       2.891   2.437  20.157  0.00  0.00    +0.000 F 
ENDBRANCH   9  20
BRANCH   9  24
ATOM     24  C   UNL     1       1.527   3.621  18.070  0.00  0.00    +0.000 C 
ATOM     25  F   UNL     1       0.915   4.324  17.078  0.00  0.00    +0.000 F 
ATOM     26  F   UNL     1       1.818   2.410  17.567  0.00  0.00    +0.000 F 
ATOM     27  F   UNL     1       0.541   3.415  18.990  0.00  0.00    +0.000 F 
ENDBRANCH   9  24
BRANCH   6  28
ATOM     28  C   UNL     1       6.158   6.924  16.051  0.00  0.00    +0.000 C 
BRANCH  28  29
ATOM     29  C   UNL     1       7.148   7.426  17.080  0.00  0.00    +0.000 A 
ATOM     30  C   UNL     1       7.577   8.757  17.144  0.00  0.00    +0.000 A 
ATOM     31  C   UNL     1       8.386   9.193  18.199  0.00  0.00    +0.000 A 
ATOM     32  C   UNL     1       8.777   8.308  19.200  0.00  0.00    +0.000 A 
ATOM     33  C   UNL     1       8.383   6.975  19.137  0.00  0.00    +0.000 A 
ATOM     34  C   UNL     1       7.574   6.538  18.086  0.00  0.00    +0.000 A 
ENDBRANCH  28  29
ENDBRANCH   6  28
TORSDOF 5
ENDMDL
MODEL 5
REMARK VINA RESULT:      -7.7      2.905      5.846
REMARK  Name = 
REMARK  5 active torsions:
REMARK  status: ('A' for Active; 'I' for Inactive)
REMARK    1  A    between atoms: N_6  and  C_7
REMARK    2  A    between atoms: C_7  and  C_8
REMARK    3  A    between atoms: C_16  and  C_17
REMARK    4  A    between atoms: C_16  and  C_21
REMARK    5  A    between atoms: C_26  and  C_27
REMARK                            x       y       z     vdW  Elec       q    Type
REMARK                         _______ _______ _______ _____ _____    ______ ____
ROOT
ATOM      1  O   UNL     1       1.491   3.909  20.965  0.00  0.00    +0.000 OA
ATOM      2  C   UNL     1       1.898   4.941  20.431  0.00  0.00    +0.000 A 
ATOM      3  N   UNL     1       1.566   6.179  20.869  0.00  0.00    +0.000 N 
ATOM      4  C   UNL     1       1.837   7.343  20.215  0.00  0.00    +0.000 A 
ATOM      5  O   UNL     1       1.313   8.387  20.599  0.00  0.00    +0.000 OA
ATOM      6  N   UNL     1       2.679   7.242  19.109  0.00  0.00    +0.000 N 
ATOM      7  C   UNL     1       3.185   6.018  18.668  0.00  0.00    +0.000 A 
ATOM      8  C   UNL     1       2.788   4.879  19.260  0.00  0.00    +0.000 A 
ATOM      9  C   UNL     1       3.198   3.487  18.777  0.00  0.00    +0.000 C 
ATOM     10  N   UNL     1       4.056   3.565  17.532  0.00  0.00    +0.000 NA
ATOM     11  C   UNL     1       4.435   4.698  17.054  0.00  0.00    +0.000 C 
ATOM     12  N   UNL     1       4.059   5.891  17.614  0.00  0.00    +0.000 N 
ATOM     13  H   UNL     1       0.921   6.241  21.643  0.00  0.00    +0.000 HD
ATOM     14  H   UNL     1       4.484   6.733  17.244  0.00  0.00    +0.000 HD
ENDROOT
BRANCH  11  15
ATOM     15  C   UNL     1       5.268   4.595  15.854  0.00  0.00    +0.000 A 
ATOM     16  C   UNL     1       4.933   4.029  14.637  0.00  0.00    +0.000 A 
ATOM     17  C   UNL     1       5.972   4.145  13.670  0.00  0.00    +0.000 A 
ATOM     18  C   UNL     1       7.081   4.775  14.189  0.00  0.00    +0.000 A 
ATOM     19  S   UNL     1       6.859   5.225  15.829  0.00  0.00    +0.000 S 
ENDBRANCH  11  15
BRANCH   9  20
ATOM     20  C   UNL     1       1.941   2.645  18.405  0.00  0.00    +0.000 C 
ATOM     21  F   UNL     1       0.902   3.448  18.035  0.00  0.00    +0.000 F 
ATOM     22  F   UNL     1       2.173   1.870  17.307  0.00  0.00    +0.000 F 
ATOM     23  F   UNL     1       1.469   1.816  19.349  0.00  0.00    +0.000 F 
ENDBRANCH   9  20
BRANCH   9  24
ATOM     24  C   UNL     1       4.027   2.755  19.868  0.00  0.00    +0.000 C 
ATOM     25  F   UNL     1       5.206   3.391  20.113  0.00  0.00    +0.000 F 
ATOM     26  F   UNL     1       3.428   2.574  21.058  0.00  0.00    +0.000 F 
ATOM     27  F   UNL     1       4.400   1.512  19.448  0.00  0.00    +0.000 F 
ENDBRANCH   9  24
BRANCH   6  28
ATOM     28  C   UNL     1       2.843   8.467  18.319  0.00  0.00    +0.000 C 
BRANCH  28  29
ATOM     29  C   UNL     1       1.617   9.344  18.174  0.00  0.00    +0.000 A 
ATOM     30  C   UNL     1       0.422   8.898  17.598  0.00  0.00    +0.000 A 
ATOM     31  C   UNL     1      -0.719   9.706  17.615  0.00  0.00    +0.000 A 
ATOM     32  C   UNL     1      -0.682  10.968  18.204  0.00  0.00    +0.000 A 
ATOM     33  C   UNL     1       0.505  11.437  18.758  0.00  0.00    +0.000 A 
ATOM     34  C   UNL     1       1.645  10.631  18.743  0.00  0.00    +0.000 A 
ENDBRANCH  28  29
ENDBRANCH   6  28
TORSDOF 5
ENDMDL
MODEL 6
REMARK VINA RESULT:      -7.6      6.839      9.430
REMARK  Name = 
REMARK  5 active torsions:
REMARK  status: ('A' for Active; 'I' for Inactive)
REMARK    1  A    between atoms: N_6  and  C_7
REMARK    2  A    between atoms: C_7  and  C_8
REMARK    3  A    between atoms: C_16  and  C_17
REMARK    4  A    between atoms: C_16  and  C_21
REMARK    5  A    between atoms: C_26  and  C_27
REMARK                            x       y       z     vdW  Elec       q    Type
REMARK                         _______ _______ _______ _____ _____    ______ ____
ROOT
ATOM      1  O   UNL     1       1.975  10.478  17.989  0.00  0.00    +0.000 OA
ATOM      2  C   UNL     1       1.816  11.676  18.221  0.00  0.00    +0.000 A 
ATOM      3  N   UNL     1       2.683  12.630  17.805  0.00  0.00    +0.000 N 
ATOM      4  C   UNL     1       2.653  13.939  18.183  0.00  0.00    +0.000 A 
ATOM      5  O   UNL     1       3.604  14.668  17.908  0.00  0.00    +0.000 OA
ATOM      6  N   UNL     1       1.532  14.341  18.905  0.00  0.00    +0.000 N 
ATOM      7  C   UNL     1       0.515  13.453  19.259  0.00  0.00    +0.000 A 
ATOM      8  C   UNL     1       0.646  12.144  18.981  0.00  0.00    +0.000 A 
ATOM      9  C   UNL     1      -0.359  11.080  19.427  0.00  0.00    +0.000 C 
ATOM     10  N   UNL     1      -1.474  11.685  20.253  0.00  0.00    +0.000 NA
ATOM     11  C   UNL     1      -1.556  12.957  20.432  0.00  0.00    +0.000 C 
ATOM     12  N   UNL     1      -0.629  13.828  19.924  0.00  0.00    +0.000 N 
ATOM     13  H   UNL     1       3.514  12.323  17.320  0.00  0.00    +0.000 HD
ATOM     14  H   UNL     1      -0.819  14.818  20.018  0.00  0.00    +0.000 HD
ENDROOT
BRANCH  11  15
ATOM     15  C   UNL     1      -2.700  13.376  21.244  0.00  0.00    +0.000 A 
ATOM     16  C   UNL     1      -3.605  14.388  20.974  0.00  0.00    +0.000 A 
ATOM     17  C   UNL     1      -4.626  14.491  21.962  0.00  0.00    +0.000 A 
ATOM     18  C   UNL     1      -4.454  13.568  22.970  0.00  0.00    +0.000 A 
ATOM     19  S   UNL     1      -3.071  12.586  22.715  0.00  0.00    +0.000 S 
ENDBRANCH  11  15
BRANCH   9  20
ATOM     20  C   UNL     1       0.338  10.013  20.325  0.00  0.00    +0.000 C 
ATOM     21  F   UNL     1       1.316  10.577  21.090  0.00  0.00    +0.000 F 
ATOM     22  F   UNL     1      -0.535   9.486  21.230  0.00  0.00    +0.000 F 
ATOM     23  F   UNL     1       0.896   8.967  19.696  0.00  0.00    +0.000 F 
ENDBRANCH   9  20
BRANCH   9  24
ATOM     24  C   UNL     1      -1.011  10.397  18.193  0.00  0.00    +0.000 C 
ATOM     25  F   UNL     1      -1.424  11.312  17.274  0.00  0.00    +0.000 F 
ATOM     26  F   UNL     1      -0.258   9.498  17.537  0.00  0.00    +0.000 F 
ATOM     27  F   UNL     1      -2.153   9.738  18.545  0.00  0.00    +0.000 F 
ENDBRANCH   9  24
BRANCH   6  28
ATOM     28  C   UNL     1       1.575  15.706  19.441  0.00  0.00    +0.000 C 
BRANCH  28  29
ATOM     29  C   UNL     1       0.979  16.790  18.569  0.00  0.00    +0.000 A 
ATOM     30  C   UNL     1       1.715  17.489  17.605  0.00  0.00    +0.000 A 
ATOM     31  C   UNL     1       1.080  18.382  16.736  0.00  0.00    +0.000 A 
ATOM     32  C   UNL     1      -0.294  18.591  16.819  0.00  0.00    +0.000 A 
ATOM     33  C   UNL     1      -1.037  17.926  17.790  0.00  0.00    +0.000 A 
ATOM     34  C   UNL     1      -0.405  17.032  18.657  0.00  0.00    +0.000 A 
ENDBRANCH  28  29
ENDBRANCH   6  28
TORSDOF 5
ENDMDL
MODEL 7
REMARK VINA RESULT:      -7.2      6.923     10.185
REMARK  Name = 
REMARK  5 active torsions:
REMARK  status: ('A' for Active; 'I' for Inactive)
REMARK    1  A    between atoms: N_6  and  C_7
REMARK    2  A    between atoms: C_7  and  C_8
REMARK    3  A    between atoms: C_16  and  C_17
REMARK    4  A    between atoms: C_16  and  C_21
REMARK    5  A    between atoms: C_26  and  C_27
REMARK                            x       y       z     vdW  Elec       q    Type
REMARK                         _______ _______ _______ _____ _____    ______ ____
ROOT
ATOM      1  O   UNL     1       0.294   9.689  17.611  0.00  0.00    +0.000 OA
ATOM      2  C   UNL     1      -0.835  10.133  17.823  0.00  0.00    +0.000 A 
ATOM      3  N   UNL     1      -1.885   9.902  16.999  0.00  0.00    +0.000 N 
ATOM      4  C   UNL     1      -3.101  10.511  17.086  0.00  0.00    +0.000 A 
ATOM      5  O   UNL     1      -3.909  10.379  16.169  0.00  0.00    +0.000 OA
ATOM      6  N   UNL     1      -3.317  11.287  18.223  0.00  0.00    +0.000 N 
ATOM      7  C   UNL     1      -2.335  11.467  19.199  0.00  0.00    +0.000 A 
ATOM      8  C   UNL     1      -1.106  10.957  19.011  0.00  0.00    +0.000 A 
ATOM      9  C   UNL     1       0.064  11.197  19.967  0.00  0.00    +0.000 C 
ATOM     10  N   UNL     1      -0.332  12.111  21.107  0.00  0.00    +0.000 NA
ATOM     11  C   UNL     1      -1.546  12.517  21.244  0.00  0.00    +0.000 C 
ATOM     12  N   UNL     1      -2.534  12.181  20.357  0.00  0.00    +0.000 N 
ATOM     13  H   UNL     1      -1.708   9.375  16.156  0.00  0.00    +0.000 HD
ATOM     14  H   UNL     1      -3.481  12.452  20.591  0.00  0.00    +0.000 HD
ENDROOT
BRANCH  11  15
ATOM     15  C   UNL     1      -1.760  13.385  22.404  0.00  0.00    +0.000 A 
ATOM     16  C   UNL     1      -2.741  13.274  23.374  0.00  0.00    +0.000 A 
ATOM     17  C   UNL     1      -2.625  14.266  24.390  0.00  0.00    +0.000 A 
ATOM     18  C   UNL     1      -1.572  15.119  24.150  0.00  0.00    +0.000 A 
ATOM     19  S   UNL     1      -0.731  14.716  22.710  0.00  0.00    +0.000 S 
ENDBRANCH  11  15
BRANCH   9  20
ATOM     20  C   UNL     1       1.245  11.891  19.224  0.00  0.00    +0.000 C 
ATOM     21  F   UNL     1       0.788  12.795  18.311  0.00  0.00    +0.000 F 
ATOM     22  F   UNL     1       2.000  12.633  20.082  0.00  0.00    +0.000 F 
ATOM     23  F   UNL     1       2.103  11.089  18.574  0.00  0.00    +0.000 F 
ENDBRANCH   9  20
BRANCH   9  24
ATOM     24  C   UNL     1       0.540   9.855  20.591  0.00  0.00    +0.000 C 
ATOM     25  F   UNL     1      -0.504   9.012  20.822  0.00  0.00    +0.000 F 
ATOM     26  F   UNL     1       1.455   9.160  19.893  0.00  0.00    +0.000 F 
ATOM     27  F   UNL     1       1.087  10.056  21.824  0.00  0.00    +0.000 F 
ENDBRANCH   9  24
BRANCH   6  28
ATOM     28  C   UNL     1      -4.562  12.061  18.238  0.00  0.00    +0.000 C 
BRANCH  28  29
ATOM     29  C   UNL     1      -5.629  11.600  19.207  0.00  0.00    +0.000 A 
ATOM     30  C   UNL     1      -6.074  12.377  20.284  0.00  0.00    +0.000 A 
ATOM     31  C   UNL     1      -7.156  11.958  21.063  0.00  0.00    +0.000 A 
ATOM     32  C   UNL     1      -7.807  10.759  20.781  0.00  0.00    +0.000 A 
ATOM     33  C   UNL     1      -7.361   9.961  19.732  0.00  0.00    +0.000 A 
ATOM     34  C   UNL     1      -6.281  10.379  18.952  0.00  0.00    +0.000 A 
ENDBRANCH  28  29
ENDBRANCH   6  28
TORSDOF 5
ENDMDL
MODEL 8
REMARK VINA RESULT:      -7.1      7.264     10.309
REMARK  Name = 
REMARK  5 active torsions:
REMARK  status: ('A' for Active; 'I' for Inactive)
REMARK    1  A    between atoms: N_6  and  C_7
REMARK    2  A    between atoms: C_7  and  C_8
REMARK    3  A    between atoms: C_16  and  C_17
REMARK    4  A    between atoms: C_16  and  C_21
REMARK    5  A    between atoms: C_26  and  C_27
REMARK                            x       y       z     vdW  Elec       q    Type
REMARK                         _______ _______ _______ _____ _____    ______ ____
ROOT
ATOM      1  O   UNL     1       0.476  10.008  18.021  0.00  0.00    +0.000 OA
ATOM      2  C   UNL     1      -0.710  10.337  18.056  0.00  0.00    +0.000 A 
ATOM      3  N   UNL     1      -1.596  10.006  17.086  0.00  0.00    +0.000 N 
ATOM      4  C   UNL     1      -2.865  10.490  16.983  0.00  0.00    +0.000 A 
ATOM      5  O   UNL     1      -3.509  10.283  15.956  0.00  0.00    +0.000 OA
ATOM      6  N   UNL     1      -3.325  11.237  18.066  0.00  0.00    +0.000 N 
ATOM      7  C   UNL     1      -2.525  11.509  19.177  0.00  0.00    +0.000 A 
ATOM      8  C   UNL     1      -1.237  11.126  19.181  0.00  0.00    +0.000 A 
ATOM      9  C   UNL     1      -0.254  11.476  20.300  0.00  0.00    +0.000 C 
ATOM     10  N   UNL     1      -0.906  12.342  21.357  0.00  0.00    +0.000 NA
ATOM     11  C   UNL     1      -2.161  12.624  21.306  0.00  0.00    +0.000 C 
ATOM     12  N   UNL     1      -2.966  12.195  20.284  0.00  0.00    +0.000 N 
ATOM     13  H   UNL     1      -1.242   9.503  16.285  0.00  0.00    +0.000 HD
ATOM     14  H   UNL     1      -3.960  12.370  20.370  0.00  0.00    +0.000 HD
ENDROOT
BRANCH  11  15
ATOM     15  C   UNL     1      -2.632  13.461  22.411  0.00  0.00    +0.000 A 
ATOM     16  C   UNL     1      -3.081  13.049  23.653  0.00  0.00    +0.000 A 
ATOM     17  C   UNL     1      -3.418  14.138  24.506  0.00  0.00    +0.000 A 
ATOM     18  C   UNL     1      -3.240  15.350  23.878  0.00  0.00    +0.000 A 
ATOM     19  S   UNL     1      -2.664  15.166  22.273  0.00  0.00    +0.000 S 
ENDBRANCH  11  15
BRANCH   9  20
ATOM     20  C   UNL     1       0.951  12.287  19.734  0.00  0.00    +0.000 C 
ATOM     21  F   UNL     1       0.547  13.155  18.762  0.00  0.00    +0.000 F 
ATOM     22  F   UNL     1       1.499  13.087  20.692  0.00  0.00    +0.000 F 
ATOM     23  F   UNL     1       1.967  11.578  19.219  0.00  0.00    +0.000 F 
ENDBRANCH   9  20
BRANCH   9  24
ATOM     24  C   UNL     1       0.253  10.186  21.002  0.00  0.00    +0.000 C 
ATOM     25  F   UNL     1      -0.636   9.164  20.874  0.00  0.00    +0.000 F 
ATOM     26  F   UNL     1       1.448   9.715  20.604  0.00  0.00    +0.000 F 
ATOM     27  F   UNL     1       0.358  10.371  22.349  0.00  0.00    +0.000 F 
ENDBRANCH   9  24
BRANCH   6  28
ATOM     28  C   UNL     1      -4.629  11.883  17.886  0.00  0.00    +0.000 C 
BRANCH  28  29
ATOM     29  C   UNL     1      -5.752  11.393  18.776  0.00  0.00    +0.000 A 
ATOM     30  C   UNL     1      -6.225  10.076  18.756  0.00  0.00    +0.000 A 
ATOM     31  C   UNL     1      -7.168   9.646  19.694  0.00  0.00    +0.000 A 
ATOM     32  C   UNL     1      -7.652  10.523  20.662  0.00  0.00    +0.000 A 
ATOM     33  C   UNL     1      -7.213  11.844  20.679  0.00  0.00    +0.000 A 
ATOM     34  C   UNL     1      -6.270  12.274  19.744  0.00  0.00    +0.000 A 
ENDBRANCH  28  29
ENDBRANCH   6  28
TORSDOF 5
ENDMDL
MODEL 9
REMARK VINA RESULT:      -7.1      9.167     11.482
REMARK  Name = 
REMARK  5 active torsions:
REMARK  status: ('A' for Active; 'I' for Inactive)
REMARK    1  A    between atoms: N_6  and  C_7
REMARK    2  A    between atoms: C_7  and  C_8
REMARK    3  A    between atoms: C_16  and  C_17
REMARK    4  A    between atoms: C_16  and  C_21
REMARK    5  A    between atoms: C_26  and  C_27
REMARK                            x       y       z     vdW  Elec       q    Type
REMARK                         _______ _______ _______ _____ _____    ______ ____
ROOT
ATOM      1  O   UNL     1      11.342  13.534  16.934  0.00  0.00    +0.000 OA
ATOM      2  C   UNL     1      10.598  14.330  17.507  0.00  0.00    +0.000 A 
ATOM      3  N   UNL     1      10.385  15.592  17.063  0.00  0.00    +0.000 N 
ATOM      4  C   UNL     1       9.721  16.565  17.748  0.00  0.00    +0.000 A 
ATOM      5  O   UNL     1       9.763  17.724  17.343  0.00  0.00    +0.000 OA
ATOM      6  N   UNL     1       9.063  16.156  18.907  0.00  0.00    +0.000 N 
ATOM      7  C   UNL     1       9.111  14.838  19.366  0.00  0.00    +0.000 A 
ATOM      8  C   UNL     1       9.885  13.940  18.733  0.00  0.00    +0.000 A 
ATOM      9  C   UNL     1      10.091  12.506  19.225  0.00  0.00    +0.000 C 
ATOM     10  N   UNL     1       9.357  12.258  20.526  0.00  0.00    +0.000 NA
ATOM     11  C   UNL     1       8.593  13.157  21.042  0.00  0.00    +0.000 C 
ATOM     12  N   UNL     1       8.430  14.392  20.473  0.00  0.00    +0.000 N 
ATOM     13  H   UNL     1      10.900  15.891  16.248  0.00  0.00    +0.000 HD
ATOM     14  H   UNL     1       7.734  15.004  20.881  0.00  0.00    +0.000 HD
ENDROOT
BRANCH  11  15
ATOM     15  C   UNL     1       7.951  12.751  22.294  0.00  0.00    +0.000 A 
ATOM     16  C   UNL     1       8.340  11.742  23.157  0.00  0.00    +0.000 A 
ATOM     17  C   UNL     1       7.509  11.652  24.310  0.00  0.00    +0.000 A 
ATOM     18  C   UNL     1       6.494  12.582  24.279  0.00  0.00    +0.000 A 
ATOM     19  S   UNL     1       6.554  13.555  22.868  0.00  0.00    +0.000 S 
ENDBRANCH  11  15
BRANCH   9  20
ATOM     20  C   UNL     1      11.600  12.234  19.502  0.00  0.00    +0.000 C 
ATOM     21  F   UNL     1      12.183  11.582  18.455  0.00  0.00    +0.000 F 
ATOM     22  F   UNL     1      12.300  13.400  19.604  0.00  0.00    +0.000 F 
ATOM     23  F   UNL     1      11.893  11.529  20.606  0.00  0.00    +0.000 F 
ENDBRANCH   9  20
BRANCH   9  24
ATOM     24  C   UNL     1       9.547  11.490  18.183  0.00  0.00    +0.000 C 
ATOM     25  F   UNL     1      10.519  11.093  17.316  0.00  0.00    +0.000 F 
ATOM     26  F   UNL     1       8.981  10.373  18.671  0.00  0.00    +0.000 F 
ATOM     27  F   UNL     1       8.603  12.066  17.384  0.00  0.00    +0.000 F 
ENDBRANCH   9  24
BRANCH   6  28
ATOM     28  C   UNL     1       8.481  17.228  19.721  0.00  0.00    +0.000 C 
BRANCH  28  29
ATOM     29  C   UNL     1       6.971  17.250  19.825  0.00  0.00    +0.000 A 
ATOM     30  C   UNL     1       6.126  16.931  18.756  0.00  0.00    +0.000 A 
ATOM     31  C   UNL     1       4.744  16.835  18.948  0.00  0.00    +0.000 A 
ATOM     32  C   UNL     1       4.189  17.057  20.206  0.00  0.00    +0.000 A 
ATOM     33  C   UNL     1       5.012  17.402  21.273  0.00  0.00    +0.000 A 
ATOM     34  C   UNL     1       6.392  17.497  21.084  0.00  0.00    +0.000 A 
ENDBRANCH  28  29
ENDBRANCH   6  28
TORSDOF 5
ENDMDL
