MODEL 1
REMARK VINA RESULT:      -8.1      0.000      0.000
REMARK  Name = 
REMARK  16 active torsions:
REMARK  status: ('A' for Active; 'I' for Inactive)
REMARK    1  A    between atoms: C_1  and  C_2
REMARK    2  A    between atoms: C_2  and  C_3
REMARK    3  A    between atoms: C_3  and  N_4
REMARK    4  A    between atoms: C_5  and  O_7
REMARK    5  A    between atoms: O_7  and  C_8
REMARK    6  A    between atoms: C_8  and  C_9
REMARK    7  A    between atoms: C_11  and  C_12
REMARK    8  A    between atoms: C_12  and  C_13
REMARK    9  A    between atoms: C_13  and  O_14
REMARK   10  A    between atoms: O_14  and  N_15
REMARK   11  A    between atoms: C_16  and  C_17
REMARK   12  A    between atoms: C_16  and  C_18
REMARK   13  A    between atoms: C_21  and  O_22
REMARK   14  A    between atoms: O_22  and  C_23
REMARK   15  A    between atoms: C_26  and  O_27
REMARK   16  A    between atoms: O_27  and  C_28
REMARK                            x       y       z     vdW  Elec       q    Type
REMARK                         _______ _______ _______ _____ _____    ______ ____
ROOT
ATOM      1  C   UNL     1       5.429   5.091  17.145  0.00  0.00    +0.000 C 
ATOM      2  O   UNL     1       4.704   3.846  17.065  0.00  0.00    +0.000 OA
ATOM      3  C   UNL     1       4.688   3.146  18.321  0.00  0.00    +0.000 C 
ATOM      4  C   UNL     1       4.453   4.075  19.494  0.00  0.00    +0.000 C 
ATOM      5  C   UNL     1       4.394   5.410  19.374  0.00  0.00    +0.000 C 
ATOM      6  C   UNL     1       4.643   6.093  18.050  0.00  0.00    +0.000 C 
ENDROOT
BRANCH   1   7
ATOM      7  C   UNL     1       5.742   5.586  15.721  0.00  0.00    +0.000 C 
BRANCH   7   8
ATOM      8  O   UNL     1       7.135   5.407  15.356  0.00  0.00    +0.000 OA
BRANCH   8  10
ATOM      9  N   UNL     1       6.474   4.273  13.550  0.00  0.00    +0.000 N 
ATOM     10  C   UNL     1       7.364   5.184  14.033  0.00  0.00    +0.000 C 
ATOM     11  O   UNL     1       8.259   5.707  13.385  0.00  0.00    +0.000 OA
ATOM     12  H   UNL     1       5.678   4.067  14.133  0.00  0.00    +0.000 HD
BRANCH   9  13
ATOM     13  C   UNL     1       6.616   3.640  12.254  0.00  0.00    +0.000 C 
BRANCH  13  15
ATOM     14  C   UNL     1       4.254   3.294  11.352  0.00  0.00    +0.000 C 
ATOM     15  C   UNL     1       5.497   2.638  11.939  0.00  0.00    +0.000 C 
ENDBRANCH  13  15
ENDBRANCH   9  13
ENDBRANCH   8  10
ENDBRANCH   7   8
ENDBRANCH   1   7
BRANCH   3  16
ATOM     16  C   UNL     1       3.589   2.086  18.254  0.00  0.00    +0.000 C 
BRANCH  16  17
ATOM     17  C   UNL     1       2.386   2.543  17.436  0.00  0.00    +0.000 C 
BRANCH  17  18
ATOM     18  O   UNL     1       1.227   2.433  18.270  0.00  0.00    +0.000 OA
BRANCH  18  19
ATOM     19  N   UNL     1       1.617   1.964  19.530  0.00  0.00    +0.000 NA
ATOM     20  C   UNL     1       1.368   2.833  20.463  0.00  0.00    +0.000 C 
ATOM     21  C   UNL     1       0.741   4.192  20.256  0.00  0.00    +0.000 C 
ATOM     22  C   UNL     1       1.721   2.467  21.884  0.00  0.00    +0.000 C 
ENDBRANCH  18  19
ENDBRANCH  17  18
ENDBRANCH  16  17
ENDBRANCH   3  16
BRANCH   6  23
ATOM     23  O   UNL     1       3.343   6.466  17.575  0.00  0.00    +0.000 OA
BRANCH  23  24
ATOM     24  C   UNL     1       2.588   7.355  18.278  0.00  0.00    +0.000 A 
ATOM     25  C   UNL     1       2.224   7.209  19.619  0.00  0.00    +0.000 A 
ATOM     26  C   UNL     1       1.599   8.259  20.299  0.00  0.00    +0.000 A 
ATOM     27  C   UNL     1       1.313   9.454  19.651  0.00  0.00    +0.000 A 
ATOM     28  C   UNL     1       1.569   9.563  18.286  0.00  0.00    +0.000 A 
ATOM     29  C   UNL     1       2.197   8.513  17.608  0.00  0.00    +0.000 A 
BRANCH  27  30
ATOM     30  O   UNL     1       0.759  10.424  20.434  0.00  0.00    +0.000 OA
ATOM     31  C   UNL     1       0.588  10.063  21.800  0.00  0.00    +0.000 C 
ENDBRANCH  27  30
ENDBRANCH  23  24
ENDBRANCH   6  23
TORSDOF 12
ENDMDL
MODEL 2
REMARK VINA RESULT:      -7.6      0.930      1.485
REMARK  Name = 
REMARK  16 active torsions:
REMARK  status: ('A' for Active; 'I' for Inactive)
REMARK    1  A    between atoms: C_1  and  C_2
REMARK    2  A    between atoms: C_2  and  C_3
REMARK    3  A    between atoms: C_3  and  N_4
REMARK    4  A    between atoms: C_5  and  O_7
REMARK    5  A    between atoms: O_7  and  C_8
REMARK    6  A    between atoms: C_8  and  C_9
REMARK    7  A    between atoms: C_11  and  C_12
REMARK    8  A    between atoms: C_12  and  C_13
REMARK    9  A    between atoms: C_13  and  O_14
REMARK   10  A    between atoms: O_14  and  N_15
REMARK   11  A    between atoms: C_16  and  C_17
REMARK   12  A    between atoms: C_16  and  C_18
REMARK   13  A    between atoms: C_21  and  O_22
REMARK   14  A    between atoms: O_22  and  C_23
REMARK   15  A    between atoms: C_26  and  O_27
REMARK   16  A    between atoms: O_27  and  C_28
REMARK                            x       y       z     vdW  Elec       q    Type
REMARK                         _______ _______ _______ _____ _____    ______ ____
ROOT
ATOM      1  C   UNL     1       5.081   5.288  17.435  0.00  0.00    +0.000 C 
ATOM      2  O   UNL     1       4.501   3.996  17.154  0.00  0.00    +0.000 OA
ATOM      3  C   UNL     1       4.728   3.057  18.220  0.00  0.00    +0.000 C 
ATOM      4  C   UNL     1       4.539   3.681  19.586  0.00  0.00    +0.000 C 
ATOM      5  C   UNL     1       4.311   4.991  19.771  0.00  0.00    +0.000 C 
ATOM      6  C   UNL     1       4.306   5.961  18.614  0.00  0.00    +0.000 C 
ENDROOT
BRANCH   1   7
ATOM      7  C   UNL     1       5.148   6.105  16.131  0.00  0.00    +0.000 C 
BRANCH   7   8
ATOM      8  O   UNL     1       6.501   6.255  15.630  0.00  0.00    +0.000 OA
BRANCH   8  10
ATOM      9  N   UNL     1       5.792   4.599  14.311  0.00  0.00    +0.000 N 
ATOM     10  C   UNL     1       6.842   5.411  14.618  0.00  0.00    +0.000 C 
ATOM     11  O   UNL     1       7.941   5.372  14.086  0.00  0.00    +0.000 OA
ATOM     12  H   UNL     1       4.894   4.860  14.688  0.00  0.00    +0.000 HD
BRANCH   9  13
ATOM     13  C   UNL     1       5.918   3.432  13.461  0.00  0.00    +0.000 C 
BRANCH  13  15
ATOM     14  C   UNL     1       4.283   3.151  11.521  0.00  0.00    +0.000 C 
ATOM     15  C   UNL     1       5.618   3.719  11.984  0.00  0.00    +0.000 C 
ENDBRANCH  13  15
ENDBRANCH   9  13
ENDBRANCH   8  10
ENDBRANCH   7   8
ENDBRANCH   1   7
BRANCH   3  16
ATOM     16  C   UNL     1       3.760   1.889  18.031  0.00  0.00    +0.000 C 
BRANCH  16  17
ATOM     17  C   UNL     1       2.449   2.316  17.381  0.00  0.00    +0.000 C 
BRANCH  17  18
ATOM     18  O   UNL     1       1.414   2.174  18.360  0.00  0.00    +0.000 OA
BRANCH  18  19
ATOM     19  N   UNL     1       0.990   3.446  18.761  0.00  0.00    +0.000 NA
ATOM     20  C   UNL     1       1.014   3.574  20.053  0.00  0.00    +0.000 C 
ATOM     21  C   UNL     1       1.438   2.507  21.036  0.00  0.00    +0.000 C 
ATOM     22  C   UNL     1       0.596   4.900  20.641  0.00  0.00    +0.000 C 
ENDBRANCH  18  19
ENDBRANCH  17  18
ENDBRANCH  16  17
ENDBRANCH   3  16
BRANCH   6  23
ATOM     23  O   UNL     1       2.921   6.235  18.366  0.00  0.00    +0.000 OA
BRANCH  23  24
ATOM     24  C   UNL     1       2.421   7.482  18.591  0.00  0.00    +0.000 A 
ATOM     25  C   UNL     1       2.327   8.491  17.629  0.00  0.00    +0.000 A 
ATOM     26  C   UNL     1       1.639   9.675  17.913  0.00  0.00    +0.000 A 
ATOM     27  C   UNL     1       1.055   9.875  19.157  0.00  0.00    +0.000 A 
ATOM     28  C   UNL     1       1.244   8.924  20.156  0.00  0.00    +0.000 A 
ATOM     29  C   UNL     1       1.932   7.739  19.870  0.00  0.00    +0.000 A 
BRANCH  27  30
ATOM     30  O   UNL     1       0.359  11.041  19.294  0.00  0.00    +0.000 OA
ATOM     31  C   UNL     1       1.034  12.198  18.811  0.00  0.00    +0.000 C 
ENDBRANCH  27  30
ENDBRANCH  23  24
ENDBRANCH   6  23
TORSDOF 12
ENDMDL
MODEL 3
REMARK VINA RESULT:      -7.5      2.102      4.096
REMARK  Name = 
REMARK  16 active torsions:
REMARK  status: ('A' for Active; 'I' for Inactive)
REMARK    1  A    between atoms: C_1  and  C_2
REMARK    2  A    between atoms: C_2  and  C_3
REMARK    3  A    between atoms: C_3  and  N_4
REMARK    4  A    between atoms: C_5  and  O_7
REMARK    5  A    between atoms: O_7  and  C_8
REMARK    6  A    between atoms: C_8  and  C_9
REMARK    7  A    between atoms: C_11  and  C_12
REMARK    8  A    between atoms: C_12  and  C_13
REMARK    9  A    between atoms: C_13  and  O_14
REMARK   10  A    between atoms: O_14  and  N_15
REMARK   11  A    between atoms: C_16  and  C_17
REMARK   12  A    between atoms: C_16  and  C_18
REMARK   13  A    between atoms: C_21  and  O_22
REMARK   14  A    between atoms: O_22  and  C_23
REMARK   15  A    between atoms: C_26  and  O_27
REMARK   16  A    between atoms: O_27  and  C_28
REMARK                            x       y       z     vdW  Elec       q    Type
REMARK                         _______ _______ _______ _____ _____    ______ ____
ROOT
ATOM      1  C   UNL     1       4.193   3.140  17.309  0.00  0.00    +0.000 C 
ATOM      2  O   UNL     1       2.791   3.422  17.503  0.00  0.00    +0.000 OA
ATOM      3  C   UNL     1       2.123   2.375  18.228  0.00  0.00    +0.000 C 
ATOM      4  C   UNL     1       2.950   1.860  19.388  0.00  0.00    +0.000 C 
ATOM      5  C   UNL     1       4.211   2.255  19.623  0.00  0.00    +0.000 C 
ATOM      6  C   UNL     1       4.930   3.196  18.686  0.00  0.00    +0.000 C 
ENDROOT
BRANCH   1   7
ATOM      7  C   UNL     1       4.750   4.075  16.219  0.00  0.00    +0.000 C 
BRANCH   7   8
ATOM      8  O   UNL     1       6.169   3.884  15.984  0.00  0.00    +0.000 OA
BRANCH   8  10
ATOM      9  N   UNL     1       6.022   3.530  13.784  0.00  0.00    +0.000 N 
ATOM     10  C   UNL     1       6.612   4.277  14.759  0.00  0.00    +0.000 C 
ATOM     11  O   UNL     1       7.441   5.155  14.568  0.00  0.00    +0.000 OA
ATOM     12  H   UNL     1       5.223   2.978  14.060  0.00  0.00    +0.000 HD
BRANCH   9  13
ATOM     13  C   UNL     1       6.470   3.533  12.406  0.00  0.00    +0.000 C 
BRANCH  13  15
ATOM     14  C   UNL     1       6.933   1.456  10.997  0.00  0.00    +0.000 C 
ATOM     15  C   UNL     1       5.877   2.390  11.570  0.00  0.00    +0.000 C 
ENDBRANCH  13  15
ENDBRANCH   9  13
ENDBRANCH   8  10
ENDBRANCH   7   8
ENDBRANCH   1   7
BRANCH   3  16
ATOM     16  C   UNL     1       0.790   2.929  18.731  0.00  0.00    +0.000 C 
BRANCH  16  17
ATOM     17  C   UNL     1       0.938   3.721  20.025  0.00  0.00    +0.000 C 
BRANCH  17  18
ATOM     18  O   UNL     1       1.662   4.918  19.721  0.00  0.00    +0.000 OA
BRANCH  18  19
ATOM     19  N   UNL     1       1.428   5.860  20.729  0.00  0.00    +0.000 NA
ATOM     20  C   UNL     1       1.693   7.067  20.329  0.00  0.00    +0.000 C 
ATOM     21  C   UNL     1       2.196   7.448  18.956  0.00  0.00    +0.000 C 
ATOM     22  C   UNL     1       1.478   8.199  21.303  0.00  0.00    +0.000 C 
ENDBRANCH  18  19
ENDBRANCH  17  18
ENDBRANCH  16  17
ENDBRANCH   3  16
BRANCH   6  23
ATOM     23  O   UNL     1       4.908   4.468  19.348  0.00  0.00    +0.000 OA
BRANCH  23  24
ATOM     24  C   UNL     1       5.731   5.469  18.930  0.00  0.00    +0.000 A 
ATOM     25  C   UNL     1       7.076   5.598  19.284  0.00  0.00    +0.000 A 
ATOM     26  C   UNL     1       7.881   6.558  18.663  0.00  0.00    +0.000 A 
ATOM     27  C   UNL     1       7.355   7.410  17.701  0.00  0.00    +0.000 A 
ATOM     28  C   UNL     1       5.990   7.364  17.428  0.00  0.00    +0.000 A 
ATOM     29  C   UNL     1       5.186   6.400  18.048  0.00  0.00    +0.000 A 
BRANCH  27  30
ATOM     30  O   UNL     1       8.250   8.263  17.123  0.00  0.00    +0.000 OA
ATOM     31  C   UNL     1       8.443   9.487  17.824  0.00  0.00    +0.000 C 
ENDBRANCH  27  30
ENDBRANCH  23  24
ENDBRANCH   6  23
TORSDOF 12
ENDMDL
MODEL 4
REMARK VINA RESULT:      -7.5      4.097      7.150
REMARK  Name = 
REMARK  16 active torsions:
REMARK  status: ('A' for Active; 'I' for Inactive)
REMARK    1  A    between atoms: C_1  and  C_2
REMARK    2  A    between atoms: C_2  and  C_3
REMARK    3  A    between atoms: C_3  and  N_4
REMARK    4  A    between atoms: C_5  and  O_7
REMARK    5  A    between atoms: O_7  and  C_8
REMARK    6  A    between atoms: C_8  and  C_9
REMARK    7  A    between atoms: C_11  and  C_12
REMARK    8  A    between atoms: C_12  and  C_13
REMARK    9  A    between atoms: C_13  and  O_14
REMARK   10  A    between atoms: O_14  and  N_15
REMARK   11  A    between atoms: C_16  and  C_17
REMARK   12  A    between atoms: C_16  and  C_18
REMARK   13  A    between atoms: C_21  and  O_22
REMARK   14  A    between atoms: O_22  and  C_23
REMARK   15  A    between atoms: C_26  and  O_27
REMARK   16  A    between atoms: O_27  and  C_28
REMARK                            x       y       z     vdW  Elec       q    Type
REMARK                         _______ _______ _______ _____ _____    ______ ____
ROOT
ATOM      1  C   UNL     1       7.398   6.837  17.670  0.00  0.00    +0.000 C 
ATOM      2  O   UNL     1       7.308   6.472  16.276  0.00  0.00    +0.000 OA
ATOM      3  C   UNL     1       7.507   5.062  16.072  0.00  0.00    +0.000 C 
ATOM      4  C   UNL     1       6.795   4.224  17.113  0.00  0.00    +0.000 C 
ATOM      5  C   UNL     1       6.161   4.750  18.172  0.00  0.00    +0.000 C 
ATOM      6  C   UNL     1       6.182   6.236  18.445  0.00  0.00    +0.000 C 
ENDROOT
BRANCH   1   7
ATOM      7  C   UNL     1       7.568   8.364  17.781  0.00  0.00    +0.000 C 
BRANCH   7   8
ATOM      8  O   UNL     1       8.574   8.749  18.753  0.00  0.00    +0.000 OA
BRANCH   8  10
ATOM      9  N   UNL     1       9.422  10.462  19.906  0.00  0.00    +0.000 N 
ATOM     10  C   UNL     1       8.976  10.048  18.688  0.00  0.00    +0.000 C 
ATOM     11  O   UNL     1       8.915  10.745  17.686  0.00  0.00    +0.000 OA
ATOM     12  H   UNL     1       9.598   9.742  20.591  0.00  0.00    +0.000 HD
BRANCH   9  13
ATOM     13  C   UNL     1       9.676  11.853  20.225  0.00  0.00    +0.000 C 
BRANCH  13  15
ATOM     14  C   UNL     1      12.123  12.156  19.568  0.00  0.00    +0.000 C 
ATOM     15  C   UNL     1      11.109  12.117  20.704  0.00  0.00    +0.000 C 
ENDBRANCH  13  15
ENDBRANCH   9  13
ENDBRANCH   8  10
ENDBRANCH   7   8
ENDBRANCH   1   7
BRANCH   3  16
ATOM     16  C   UNL     1       7.000   4.714  14.673  0.00  0.00    +0.000 C 
BRANCH  16  17
ATOM     17  C   UNL     1       5.486   4.540  14.626  0.00  0.00    +0.000 C 
BRANCH  17  18
ATOM     18  O   UNL     1       5.136   4.137  13.298  0.00  0.00    +0.000 OA
BRANCH  18  19
ATOM     19  N   UNL     1       6.188   3.387  12.759  0.00  0.00    +0.000 NA
ATOM     20  C   UNL     1       5.810   2.710  11.717  0.00  0.00    +0.000 C 
ATOM     21  C   UNL     1       4.417   2.702  11.130  0.00  0.00    +0.000 C 
ATOM     22  C   UNL     1       6.838   1.859  11.013  0.00  0.00    +0.000 C 
ENDBRANCH  18  19
ENDBRANCH  17  18
ENDBRANCH  16  17
ENDBRANCH   3  16
BRANCH   6  23
ATOM     23  O   UNL     1       4.892   6.707  18.033  0.00  0.00    +0.000 OA
BRANCH  23  24
ATOM     24  C   UNL     1       3.770   6.024  18.391  0.00  0.00    +0.000 A 
ATOM     25  C   UNL     1       3.086   5.123  17.570  0.00  0.00    +0.000 A 
ATOM     26  C   UNL     1       2.050   4.341  18.089  0.00  0.00    +0.000 A 
ATOM     27  C   UNL     1       1.671   4.458  19.420  0.00  0.00    +0.000 A 
ATOM     28  C   UNL     1       2.270   5.434  20.213  0.00  0.00    +0.000 A 
ATOM     29  C   UNL     1       3.309   6.215  19.692  0.00  0.00    +0.000 A 
BRANCH  27  30
ATOM     30  O   UNL     1       0.690   3.600  19.825  0.00  0.00    +0.000 OA
ATOM     31  C   UNL     1       0.667   2.354  19.137  0.00  0.00    +0.000 C 
ENDBRANCH  27  30
ENDBRANCH  23  24
ENDBRANCH   6  23
TORSDOF 12
ENDMDL
MODEL 5
REMARK VINA RESULT:      -7.4      2.122      3.566
REMARK  Name = 
REMARK  16 active torsions:
REMARK  status: ('A' for Active; 'I' for Inactive)
REMARK    1  A    between atoms: C_1  and  C_2
REMARK    2  A    between atoms: C_2  and  C_3
REMARK    3  A    between atoms: C_3  and  N_4
REMARK    4  A    between atoms: C_5  and  O_7
REMARK    5  A    between atoms: O_7  and  C_8
REMARK    6  A    between atoms: C_8  and  C_9
REMARK    7  A    between atoms: C_11  and  C_12
REMARK    8  A    between atoms: C_12  and  C_13
REMARK    9  A    between atoms: C_13  and  O_14
REMARK   10  A    between atoms: O_14  and  N_15
REMARK   11  A    between atoms: C_16  and  C_17
REMARK   12  A    between atoms: C_16  and  C_18
REMARK   13  A    between atoms: C_21  and  O_22
REMARK   14  A    between atoms: O_22  and  C_23
REMARK   15  A    between atoms: C_26  and  O_27
REMARK   16  A    between atoms: O_27  and  C_28
REMARK                            x       y       z     vdW  Elec       q    Type
REMARK                         _______ _______ _______ _____ _____    ______ ____
ROOT
ATOM      1  C   UNL     1       4.952   4.960  17.262  0.00  0.00    +0.000 C 
ATOM      2  O   UNL     1       4.320   3.665  17.178  0.00  0.00    +0.000 OA
ATOM      3  C   UNL     1       4.650   2.828  18.300  0.00  0.00    +0.000 C 
ATOM      4  C   UNL     1       4.629   3.588  19.610  0.00  0.00    +0.000 C 
ATOM      5  C   UNL     1       4.447   4.916  19.687  0.00  0.00    +0.000 C 
ATOM      6  C   UNL     1       4.329   5.767  18.445  0.00  0.00    +0.000 C 
ENDROOT
BRANCH   1   7
ATOM      7  C   UNL     1       4.886   5.643  15.883  0.00  0.00    +0.000 C 
BRANCH   7   8
ATOM      8  O   UNL     1       5.596   6.908  15.847  0.00  0.00    +0.000 OA
BRANCH   8  10
ATOM      9  N   UNL     1       6.944   7.732  17.424  0.00  0.00    +0.000 N 
ATOM     10  C   UNL     1       6.854   6.882  16.364  0.00  0.00    +0.000 C 
ATOM     11  O   UNL     1       7.774   6.212  15.919  0.00  0.00    +0.000 OA
ATOM     12  H   UNL     1       6.074   8.075  17.802  0.00  0.00    +0.000 HD
BRANCH   9  13
ATOM     13  C   UNL     1       8.205   8.118  18.024  0.00  0.00    +0.000 C 
BRANCH  13  15
ATOM     14  C   UNL     1       9.237  10.096  19.264  0.00  0.00    +0.000 C 
ATOM     15  C   UNL     1       8.423   9.637  18.061  0.00  0.00    +0.000 C 
ENDBRANCH  13  15
ENDBRANCH   9  13
ENDBRANCH   8  10
ENDBRANCH   7   8
ENDBRANCH   1   7
BRANCH   3  16
ATOM     16  C   UNL     1       3.646   1.677  18.338  0.00  0.00    +0.000 C 
BRANCH  16  17
ATOM     17  C   UNL     1       2.334   2.022  17.644  0.00  0.00    +0.000 C 
BRANCH  17  18
ATOM     18  O   UNL     1       1.303   2.020  18.637  0.00  0.00    +0.000 OA
BRANCH  18  19
ATOM     19  N   UNL     1       1.003   3.343  18.985  0.00  0.00    +0.000 NA
ATOM     20  C   UNL     1       1.114   3.539  20.264  0.00  0.00    +0.000 C 
ATOM     21  C   UNL     1       1.511   2.496  21.284  0.00  0.00    +0.000 C 
ATOM     22  C   UNL     1       0.835   4.924  20.794  0.00  0.00    +0.000 C 
ENDBRANCH  18  19
ENDBRANCH  17  18
ENDBRANCH  16  17
ENDBRANCH   3  16
BRANCH   6  23
ATOM     23  O   UNL     1       2.929   6.057  18.326  0.00  0.00    +0.000 OA
BRANCH  23  24
ATOM     24  C   UNL     1       2.473   7.321  18.548  0.00  0.00    +0.000 A 
ATOM     25  C   UNL     1       2.381   8.319  17.574  0.00  0.00    +0.000 A 
ATOM     26  C   UNL     1       1.736   9.527  17.860  0.00  0.00    +0.000 A 
ATOM     27  C   UNL     1       1.194   9.761  19.117  0.00  0.00    +0.000 A 
ATOM     28  C   UNL     1       1.384   8.818  20.124  0.00  0.00    +0.000 A 
ATOM     29  C   UNL     1       2.028   7.609  19.836  0.00  0.00    +0.000 A 
BRANCH  27  30
ATOM     30  O   UNL     1       0.536  10.949  19.257  0.00  0.00    +0.000 OA
ATOM     31  C   UNL     1       0.883  11.687  20.424  0.00  0.00    +0.000 C 
ENDBRANCH  27  30
ENDBRANCH  23  24
ENDBRANCH   6  23
TORSDOF 12
ENDMDL
MODEL 6
REMARK VINA RESULT:      -7.4      2.904      5.778
REMARK  Name = 
REMARK  16 active torsions:
REMARK  status: ('A' for Active; 'I' for Inactive)
REMARK    1  A    between atoms: C_1  and  C_2
REMARK    2  A    between atoms: C_2  and  C_3
REMARK    3  A    between atoms: C_3  and  N_4
REMARK    4  A    between atoms: C_5  and  O_7
REMARK    5  A    between atoms: O_7  and  C_8
REMARK    6  A    between atoms: C_8  and  C_9
REMARK    7  A    between atoms: C_11  and  C_12
REMARK    8  A    between atoms: C_12  and  C_13
REMARK    9  A    between atoms: C_13  and  O_14
REMARK   10  A    between atoms: O_14  and  N_15
REMARK   11  A    between atoms: C_16  and  C_17
REMARK   12  A    between atoms: C_16  and  C_18
REMARK   13  A    between atoms: C_21  and  O_22
REMARK   14  A    between atoms: O_22  and  C_23
REMARK   15  A    between atoms: C_26  and  O_27
REMARK   16  A    between atoms: O_27  and  C_28
REMARK                            x       y       z     vdW  Elec       q    Type
REMARK                         _______ _______ _______ _____ _____    ______ ____
ROOT
ATOM      1  C   UNL     1       5.715   4.726  18.501  0.00  0.00    +0.000 C 
ATOM      2  O   UNL     1       6.288   4.540  17.189  0.00  0.00    +0.000 OA
ATOM      3  C   UNL     1       5.746   3.388  16.520  0.00  0.00    +0.000 C 
ATOM      4  C   UNL     1       4.248   3.266  16.707  0.00  0.00    +0.000 C 
ATOM      5  C   UNL     1       3.539   4.074  17.512  0.00  0.00    +0.000 C 
ATOM      6  C   UNL     1       4.212   5.127  18.360  0.00  0.00    +0.000 C 
ENDROOT
BRANCH   1   7
ATOM      7  C   UNL     1       6.593   5.708  19.300  0.00  0.00    +0.000 C 
BRANCH   7   8
ATOM      8  O   UNL     1       7.814   6.067  18.602  0.00  0.00    +0.000 OA
BRANCH   8  10
ATOM      9  N   UNL     1       8.559   8.171  18.638  0.00  0.00    +0.000 N 
ATOM     10  C   UNL     1       7.786   7.272  17.968  0.00  0.00    +0.000 C 
ATOM     11  O   UNL     1       7.137   7.513  16.961  0.00  0.00    +0.000 OA
ATOM     12  H   UNL     1       9.185   7.798  19.335  0.00  0.00    +0.000 HD
BRANCH   9  13
ATOM     13  C   UNL     1       8.533   9.594  18.364  0.00  0.00    +0.000 C 
BRANCH  13  15
ATOM     14  C   UNL     1      10.197  11.523  18.527  0.00  0.00    +0.000 C 
ATOM     15  C   UNL     1       9.472  10.406  19.267  0.00  0.00    +0.000 C 
ENDBRANCH  13  15
ENDBRANCH   9  13
ENDBRANCH   8  10
ENDBRANCH   7   8
ENDBRANCH   1   7
BRANCH   3  16
ATOM     16  C   UNL     1       6.088   3.504  15.035  0.00  0.00    +0.000 C 
BRANCH  16  17
ATOM     17  C   UNL     1       5.526   4.773  14.403  0.00  0.00    +0.000 C 
BRANCH  17  18
ATOM     18  O   UNL     1       5.290   4.499  13.018  0.00  0.00    +0.000 OA
BRANCH  18  19
ATOM     19  N   UNL     1       5.960   3.322  12.665  0.00  0.00    +0.000 NA
ATOM     20  C   UNL     1       5.337   2.679  11.725  0.00  0.00    +0.000 C 
ATOM     21  C   UNL     1       4.046   3.110  11.069  0.00  0.00    +0.000 C 
ATOM     22  C   UNL     1       5.946   1.391  11.226  0.00  0.00    +0.000 C 
ENDBRANCH  18  19
ENDBRANCH  17  18
ENDBRANCH  16  17
ENDBRANCH   3  16
BRANCH   6  23
ATOM     23  O   UNL     1       3.963   6.365  17.681  0.00  0.00    +0.000 OA
BRANCH  23  24
ATOM     24  C   UNL     1       3.157   7.305  18.249  0.00  0.00    +0.000 A 
ATOM     25  C   UNL     1       2.700   8.458  17.607  0.00  0.00    +0.000 A 
ATOM     26  C   UNL     1       1.736   9.270  18.214  0.00  0.00    +0.000 A 
ATOM     27  C   UNL     1       1.232   8.954  19.469  0.00  0.00    +0.000 A 
ATOM     28  C   UNL     1       1.766   7.870  20.162  0.00  0.00    +0.000 A 
ATOM     29  C   UNL     1       2.729   7.058  19.552  0.00  0.00    +0.000 A 
BRANCH  27  30
ATOM     30  O   UNL     1       0.253   9.785  19.930  0.00  0.00    +0.000 OA
ATOM     31  C   UNL     1       0.726  10.938  20.619  0.00  0.00    +0.000 C 
ENDBRANCH  27  30
ENDBRANCH  23  24
ENDBRANCH   6  23
TORSDOF 12
ENDMDL
MODEL 7
REMARK VINA RESULT:      -7.4      4.074      6.979
REMARK  Name = 
REMARK  16 active torsions:
REMARK  status: ('A' for Active; 'I' for Inactive)
REMARK    1  A    between atoms: C_1  and  C_2
REMARK    2  A    between atoms: C_2  and  C_3
REMARK    3  A    between atoms: C_3  and  N_4
REMARK    4  A    between atoms: C_5  and  O_7
REMARK    5  A    between atoms: O_7  and  C_8
REMARK    6  A    between atoms: C_8  and  C_9
REMARK    7  A    between atoms: C_11  and  C_12
REMARK    8  A    between atoms: C_12  and  C_13
REMARK    9  A    between atoms: C_13  and  O_14
REMARK   10  A    between atoms: O_14  and  N_15
REMARK   11  A    between atoms: C_16  and  C_17
REMARK   12  A    between atoms: C_16  and  C_18
REMARK   13  A    between atoms: C_21  and  O_22
REMARK   14  A    between atoms: O_22  and  C_23
REMARK   15  A    between atoms: C_26  and  O_27
REMARK   16  A    between atoms: O_27  and  C_28
REMARK                            x       y       z     vdW  Elec       q    Type
REMARK                         _______ _______ _______ _____ _____    ______ ____
ROOT
ATOM      1  C   UNL     1       7.575   6.922  17.475  0.00  0.00    +0.000 C 
ATOM      2  O   UNL     1       7.400   6.449  16.123  0.00  0.00    +0.000 OA
ATOM      3  C   UNL     1       7.740   5.059  15.986  0.00  0.00    +0.000 C 
ATOM      4  C   UNL     1       7.229   4.226  17.143  0.00  0.00    +0.000 C 
ATOM      5  C   UNL     1       6.638   4.755  18.226  0.00  0.00    +0.000 C 
ATOM      6  C   UNL     1       6.514   6.250  18.403  0.00  0.00    +0.000 C 
ENDROOT
BRANCH   1   7
ATOM      7  C   UNL     1       7.578   8.462  17.474  0.00  0.00    +0.000 C 
BRANCH   7   8
ATOM      8  O   UNL     1       8.364   9.024  18.557  0.00  0.00    +0.000 OA
BRANCH   8  10
ATOM      9  N   UNL     1      10.030  10.443  18.999  0.00  0.00    +0.000 N 
ATOM     10  C   UNL     1       8.857  10.272  18.329  0.00  0.00    +0.000 C 
ATOM     11  O   UNL     1       8.308  11.122  17.643  0.00  0.00    +0.000 OA
ATOM     12  H   UNL     1      10.465   9.610  19.367  0.00  0.00    +0.000 HD
BRANCH   9  13
ATOM     13  C   UNL     1      10.666  11.735  19.164  0.00  0.00    +0.000 C 
BRANCH  13  15
ATOM     14  C   UNL     1      11.213  13.205  17.151  0.00  0.00    +0.000 C 
ATOM     15  C   UNL     1      11.670  12.066  18.052  0.00  0.00    +0.000 C 
ENDBRANCH  13  15
ENDBRANCH   9  13
ENDBRANCH   8  10
ENDBRANCH   7   8
ENDBRANCH   1   7
BRANCH   3  16
ATOM     16  C   UNL     1       7.149   4.558  14.669  0.00  0.00    +0.000 C 
BRANCH  16  17
ATOM     17  C   UNL     1       5.630   4.667  14.631  0.00  0.00    +0.000 C 
BRANCH  17  18
ATOM     18  O   UNL     1       5.203   4.326  13.307  0.00  0.00    +0.000 OA
BRANCH  18  19
ATOM     19  N   UNL     1       6.055   3.341  12.794  0.00  0.00    +0.000 NA
ATOM     20  C   UNL     1       5.508   2.702  11.805  0.00  0.00    +0.000 C 
ATOM     21  C   UNL     1       4.126   2.956  11.250  0.00  0.00    +0.000 C 
ATOM     22  C   UNL     1       6.310   1.613  11.136  0.00  0.00    +0.000 C 
ENDBRANCH  18  19
ENDBRANCH  17  18
ENDBRANCH  16  17
ENDBRANCH   3  16
BRANCH   6  23
ATOM     23  O   UNL     1       5.145   6.547  18.094  0.00  0.00    +0.000 OA
BRANCH  23  24
ATOM     24  C   UNL     1       4.156   5.700  18.493  0.00  0.00    +0.000 A 
ATOM     25  C   UNL     1       3.722   5.543  19.812  0.00  0.00    +0.000 A 
ATOM     26  C   UNL     1       2.584   4.782  20.095  0.00  0.00    +0.000 A 
ATOM     27  C   UNL     1       1.878   4.156  19.076  0.00  0.00    +0.000 A 
ATOM     28  C   UNL     1       2.371   4.213  17.774  0.00  0.00    +0.000 A 
ATOM     29  C   UNL     1       3.509   4.977  17.492  0.00  0.00    +0.000 A 
BRANCH  27  30
ATOM     30  O   UNL     1       0.751   3.493  19.468  0.00  0.00    +0.000 OA
ATOM     31  C   UNL     1       0.607   2.188  18.918  0.00  0.00    +0.000 C 
ENDBRANCH  27  30
ENDBRANCH  23  24
ENDBRANCH   6  23
TORSDOF 12
ENDMDL
MODEL 8
REMARK VINA RESULT:      -7.4      1.925      5.865
REMARK  Name = 
REMARK  16 active torsions:
REMARK  status: ('A' for Active; 'I' for Inactive)
REMARK    1  A    between atoms: C_1  and  C_2
REMARK    2  A    between atoms: C_2  and  C_3
REMARK    3  A    between atoms: C_3  and  N_4
REMARK    4  A    between atoms: C_5  and  O_7
REMARK    5  A    between atoms: O_7  and  C_8
REMARK    6  A    between atoms: C_8  and  C_9
REMARK    7  A    between atoms: C_11  and  C_12
REMARK    8  A    between atoms: C_12  and  C_13
REMARK    9  A    between atoms: C_13  and  O_14
REMARK   10  A    between atoms: O_14  and  N_15
REMARK   11  A    between atoms: C_16  and  C_17
REMARK   12  A    between atoms: C_16  and  C_18
REMARK   13  A    between atoms: C_21  and  O_22
REMARK   14  A    between atoms: O_22  and  C_23
REMARK   15  A    between atoms: C_26  and  O_27
REMARK   16  A    between atoms: O_27  and  C_28
REMARK                            x       y       z     vdW  Elec       q    Type
REMARK                         _______ _______ _______ _____ _____    ______ ____
ROOT
ATOM      1  C   UNL     1       2.423   5.734  19.615  0.00  0.00    +0.000 C 
ATOM      2  O   UNL     1       3.866   5.753  19.650  0.00  0.00    +0.000 OA
ATOM      3  C   UNL     1       4.437   5.921  18.341  0.00  0.00    +0.000 C 
ATOM      4  C   UNL     1       3.695   6.952  17.517  0.00  0.00    +0.000 C 
ATOM      5  C   UNL     1       2.560   7.541  17.926  0.00  0.00    +0.000 C 
ATOM      6  C   UNL     1       1.893   7.150  19.223  0.00  0.00    +0.000 C 
ENDROOT
BRANCH   1   7
ATOM      7  C   UNL     1       1.894   5.171  20.947  0.00  0.00    +0.000 C 
BRANCH   7   8
ATOM      8  O   UNL     1       2.668   4.042  21.428  0.00  0.00    +0.000 OA
BRANCH   8  10
ATOM      9  N   UNL     1       3.579   2.696  19.897  0.00  0.00    +0.000 N 
ATOM     10  C   UNL     1       2.512   2.889  20.722  0.00  0.00    +0.000 C 
ATOM     11  O   UNL     1       1.540   2.153  20.800  0.00  0.00    +0.000 OA
ATOM     12  H   UNL     1       4.392   3.268  20.069  0.00  0.00    +0.000 HD
BRANCH   9  13
ATOM     13  C   UNL     1       3.593   1.703  18.842  0.00  0.00    +0.000 C 
BRANCH  13  15
ATOM     14  C   UNL     1       2.632   3.248  17.052  0.00  0.00    +0.000 C 
ATOM     15  C   UNL     1       2.500   1.921  17.786  0.00  0.00    +0.000 C 
ENDBRANCH  13  15
ENDBRANCH   9  13
ENDBRANCH   8  10
ENDBRANCH   7   8
ENDBRANCH   1   7
BRANCH   3  16
ATOM     16  C   UNL     1       5.899   6.333  18.515  0.00  0.00    +0.000 C 
BRANCH  16  17
ATOM     17  C   UNL     1       6.561   6.710  17.196  0.00  0.00    +0.000 C 
BRANCH  17  18
ATOM     18  O   UNL     1       7.400   5.618  16.803  0.00  0.00    +0.000 OA
BRANCH  18  19
ATOM     19  N   UNL     1       7.522   5.616  15.409  0.00  0.00    +0.000 NA
ATOM     20  C   UNL     1       6.837   4.653  14.869  0.00  0.00    +0.000 C 
ATOM     21  C   UNL     1       6.004   3.639  15.617  0.00  0.00    +0.000 C 
ATOM     22  C   UNL     1       6.858   4.527  13.366  0.00  0.00    +0.000 C 
ENDBRANCH  18  19
ENDBRANCH  17  18
ENDBRANCH  16  17
ENDBRANCH   3  16
BRANCH   6  23
ATOM     23  O   UNL     1       2.216   8.206  20.138  0.00  0.00    +0.000 OA
BRANCH  23  24
ATOM     24  C   UNL     1       1.223   8.869  20.794  0.00  0.00    +0.000 A 
ATOM     25  C   UNL     1       0.435   8.323  21.811  0.00  0.00    +0.000 A 
ATOM     26  C   UNL     1      -0.437   9.137  22.541  0.00  0.00    +0.000 A 
ATOM     27  C   UNL     1      -0.549  10.491  22.257  0.00  0.00    +0.000 A 
ATOM     28  C   UNL     1       0.147  11.017  21.170  0.00  0.00    +0.000 A 
ATOM     29  C   UNL     1       1.021  10.202  20.442  0.00  0.00    +0.000 A 
BRANCH  27  30
ATOM     30  O   UNL     1      -1.386  11.193  23.076  0.00  0.00    +0.000 OA
ATOM     31  C   UNL     1      -1.259  12.608  22.985  0.00  0.00    +0.000 C 
ENDBRANCH  27  30
ENDBRANCH  23  24
ENDBRANCH   6  23
TORSDOF 12
ENDMDL
MODEL 9
REMARK VINA RESULT:      -7.4      1.944      5.819
REMARK  Name = 
REMARK  16 active torsions:
REMARK  status: ('A' for Active; 'I' for Inactive)
REMARK    1  A    between atoms: C_1  and  C_2
REMARK    2  A    between atoms: C_2  and  C_3
REMARK    3  A    between atoms: C_3  and  N_4
REMARK    4  A    between atoms: C_5  and  O_7
REMARK    5  A    between atoms: O_7  and  C_8
REMARK    6  A    between atoms: C_8  and  C_9
REMARK    7  A    between atoms: C_11  and  C_12
REMARK    8  A    between atoms: C_12  and  C_13
REMARK    9  A    between atoms: C_13  and  O_14
REMARK   10  A    between atoms: O_14  and  N_15
REMARK   11  A    between atoms: C_16  and  C_17
REMARK   12  A    between atoms: C_16  and  C_18
REMARK   13  A    between atoms: C_21  and  O_22
REMARK   14  A    between atoms: O_22  and  C_23
REMARK   15  A    between atoms: C_26  and  O_27
REMARK   16  A    between atoms: O_27  and  C_28
REMARK                            x       y       z     vdW  Elec       q    Type
REMARK                         _______ _______ _______ _____ _____    ______ ____
ROOT
ATOM      1  C   UNL     1       2.402   5.379  19.426  0.00  0.00    +0.000 C 
ATOM      2  O   UNL     1       3.797   5.214  19.759  0.00  0.00    +0.000 OA
ATOM      3  C   UNL     1       4.643   5.292  18.598  0.00  0.00    +0.000 C 
ATOM      4  C   UNL     1       4.224   6.400  17.654  0.00  0.00    +0.000 C 
ATOM      5  C   UNL     1       3.114   7.134  17.829  0.00  0.00    +0.000 C 
ATOM      6  C   UNL     1       2.150   6.847  18.955  0.00  0.00    +0.000 C 
ENDROOT
BRANCH   1   7
ATOM      7  C   UNL     1       1.542   4.904  20.612  0.00  0.00    +0.000 C 
BRANCH   7   8
ATOM      8  O   UNL     1       0.627   3.837  20.252  0.00  0.00    +0.000 OA
BRANCH   8  10
ATOM      9  N   UNL     1       2.154   2.377  19.533  0.00  0.00    +0.000 N 
ATOM     10  C   UNL     1       1.023   3.062  19.206  0.00  0.00    +0.000 C 
ATOM     11  O   UNL     1       0.458   3.013  18.124  0.00  0.00    +0.000 OA
ATOM     12  H   UNL     1       2.405   2.359  20.510  0.00  0.00    +0.000 HD
BRANCH   9  13
ATOM     13  C   UNL     1       2.960   1.670  18.557  0.00  0.00    +0.000 C 
BRANCH  13  15
ATOM     14  C   UNL     1       4.689   1.956  20.412  0.00  0.00    +0.000 C 
ATOM     15  C   UNL     1       4.424   1.500  18.984  0.00  0.00    +0.000 C 
ENDBRANCH  13  15
ENDBRANCH   9  13
ENDBRANCH   8  10
ENDBRANCH   7   8
ENDBRANCH   1   7
BRANCH   3  16
ATOM     16  C   UNL     1       6.077   5.516  19.077  0.00  0.00    +0.000 C 
BRANCH  16  17
ATOM     17  C   UNL     1       6.969   6.108  17.993  0.00  0.00    +0.000 C 
BRANCH  17  18
ATOM     18  O   UNL     1       7.526   5.020  17.247  0.00  0.00    +0.000 OA
BRANCH  18  19
ATOM     19  N   UNL     1       7.577   5.375  15.894  0.00  0.00    +0.000 NA
ATOM     20  C   UNL     1       6.797   4.628  15.172  0.00  0.00    +0.000 C 
ATOM     21  C   UNL     1       5.929   3.504  15.689  0.00  0.00    +0.000 C 
ATOM     22  C   UNL     1       6.732   4.898  13.689  0.00  0.00    +0.000 C 
ENDBRANCH  18  19
ENDBRANCH  17  18
ENDBRANCH  16  17
ENDBRANCH   3  16
BRANCH   6  23
ATOM     23  O   UNL     1       2.408   7.864  19.933  0.00  0.00    +0.000 OA
BRANCH  23  24
ATOM     24  C   UNL     1       1.390   8.641  20.395  0.00  0.00    +0.000 A 
ATOM     25  C   UNL     1       0.758   8.478  21.630  0.00  0.00    +0.000 A 
ATOM     26  C   UNL     1      -0.155   9.433  22.088  0.00  0.00    +0.000 A 
ATOM     27  C   UNL     1      -0.462  10.547  21.317  0.00  0.00    +0.000 A 
ATOM     28  C   UNL     1       0.077  10.656  20.037  0.00  0.00    +0.000 A 
ATOM     29  C   UNL     1       0.992   9.700  19.582  0.00  0.00    +0.000 A 
BRANCH  27  30
ATOM     30  O   UNL     1      -1.318  11.439  21.895  0.00  0.00    +0.000 OA
ATOM     31  C   UNL     1      -2.032  12.260  20.976  0.00  0.00    +0.000 C 
ENDBRANCH  27  30
ENDBRANCH  23  24
ENDBRANCH   6  23
TORSDOF 12
ENDMDL
