MODEL 1
REMARK VINA RESULT:      -7.5      0.000      0.000
REMARK  Name = 
REMARK  3 active torsions:
REMARK  status: ('A' for Active; 'I' for Inactive)
REMARK    1  A    between atoms: C_1  and  C_2
REMARK    2  A    between atoms: C_2  and  O_3
REMARK    3  A    between atoms: O_3  and  C_4
REMARK                            x       y       z     vdW  Elec       q    Type
REMARK                         _______ _______ _______ _____ _____    ______ ____
ROOT
ATOM      1  C   UNL     1       5.292   5.736  16.455  0.00  0.00    +0.000 A 
ATOM      2  C   UNL     1       5.386   4.688  17.368  0.00  0.00    +0.000 A 
ATOM      3  C   UNL     1       4.597   4.671  18.526  0.00  0.00    +0.000 A 
ATOM      4  C   UNL     1       3.701   5.724  18.778  0.00  0.00    +0.000 A 
ATOM      5  N   UNL     1       2.865   5.838  19.876  0.00  0.00    +0.000 NA
ATOM      6  C   UNL     1       2.207   6.976  19.842  0.00  0.00    +0.000 A 
ATOM      7  N   UNL     1       1.365   7.327  20.845  0.00  0.00    +0.000 N 
ATOM      8  C   UNL     1       0.906   8.565  21.150  0.00  0.00    +0.000 A 
ATOM      9  N   UNL     1       1.251   9.674  20.544  0.00  0.00    +0.000 NA
ATOM     10  C   UNL     1       0.620  10.764  21.094  0.00  0.00    +0.000 A 
ATOM     11  C   UNL     1       0.775  12.096  20.664  0.00  0.00    +0.000 A 
ATOM     12  C   UNL     1       0.058  13.111  21.300  0.00  0.00    +0.000 A 
ATOM     13  C   UNL     1      -0.794  12.800  22.350  0.00  0.00    +0.000 A 
ATOM     14  F   UNL     1      -1.479  13.786  22.943  0.00  0.00    +0.000 F 
ATOM     15  C   UNL     1      -0.962  11.491  22.805  0.00  0.00    +0.000 A 
ATOM     16  C   UNL     1      -0.236  10.481  22.156  0.00  0.00    +0.000 A 
ATOM     17  S   UNL     1      -0.197   8.785  22.459  0.00  0.00    +0.000 S 
ATOM     18  S   UNL     1       2.480   7.908  18.412  0.00  0.00    +0.000 S 
ATOM     19  C   UNL     1       3.625   6.766  17.857  0.00  0.00    +0.000 A 
ATOM     20  C   UNL     1       4.403   6.790  16.689  0.00  0.00    +0.000 A 
ATOM     21  H   UNL     1       1.200   6.598  21.527  0.00  0.00    +0.000 HD
ENDROOT
BRANCH   1  22
ATOM     22  O   UNL     1       6.012   5.851  15.295  0.00  0.00    +0.000 OA
BRANCH  22  24
ATOM     23  C   UNL     1       6.193   4.010  13.780  0.00  0.00    +0.000 C 
ATOM     24  C   UNL     1       6.837   4.742  14.942  0.00  0.00    +0.000 C 
ENDBRANCH  22  24
ENDBRANCH   1  22
TORSDOF 2
ENDMDL
MODEL 2
REMARK VINA RESULT:      -7.3      1.587      1.922
REMARK  Name = 
REMARK  3 active torsions:
REMARK  status: ('A' for Active; 'I' for Inactive)
REMARK    1  A    between atoms: C_1  and  C_2
REMARK    2  A    between atoms: C_2  and  O_3
REMARK    3  A    between atoms: O_3  and  C_4
REMARK                            x       y       z     vdW  Elec       q    Type
REMARK                         _______ _______ _______ _____ _____    ______ ____
ROOT
ATOM      1  C   UNL     1       6.497   4.956  15.709  0.00  0.00    +0.000 A 
ATOM      2  C   UNL     1       7.067   4.421  16.863  0.00  0.00    +0.000 A 
ATOM      3  C   UNL     1       6.466   4.608  18.114  0.00  0.00    +0.000 A 
ATOM      4  C   UNL     1       5.274   5.347  18.216  0.00  0.00    +0.000 A 
ATOM      5  N   UNL     1       4.576   5.611  19.381  0.00  0.00    +0.000 NA
ATOM      6  C   UNL     1       3.542   6.387  19.137  0.00  0.00    +0.000 A 
ATOM      7  N   UNL     1       2.739   6.819  20.140  0.00  0.00    +0.000 N 
ATOM      8  C   UNL     1       1.889   7.874  20.129  0.00  0.00    +0.000 A 
ATOM      9  N   UNL     1       1.732   8.713  19.135  0.00  0.00    +0.000 NA
ATOM     10  C   UNL     1       0.803   9.680  19.436  0.00  0.00    +0.000 A 
ATOM     11  C   UNL     1       0.407  10.723  18.576  0.00  0.00    +0.000 A 
ATOM     12  C   UNL     1      -0.565  11.631  19.001  0.00  0.00    +0.000 A 
ATOM     13  C   UNL     1      -1.126  11.501  20.263  0.00  0.00    +0.000 A 
ATOM     14  F   UNL     1      -2.063  12.377  20.649  0.00  0.00    +0.000 F 
ATOM     15  C   UNL     1      -0.748  10.484  21.140  0.00  0.00    +0.000 A 
ATOM     16  C   UNL     1       0.229   9.578  20.702  0.00  0.00    +0.000 A 
ATOM     17  S   UNL     1       0.925   8.229  21.516  0.00  0.00    +0.000 S 
ATOM     18  S   UNL     1       3.300   6.735  17.462  0.00  0.00    +0.000 S 
ATOM     19  C   UNL     1       4.722   5.878  17.053  0.00  0.00    +0.000 A 
ATOM     20  C   UNL     1       5.310   5.690  15.792  0.00  0.00    +0.000 A 
ATOM     21  H   UNL     1       2.929   6.395  21.039  0.00  0.00    +0.000 HD
ENDROOT
BRANCH   1  22
ATOM     22  O   UNL     1       6.998   4.832  14.440  0.00  0.00    +0.000 OA
BRANCH  22  24
ATOM     23  C   UNL     1       6.990   3.972  12.209  0.00  0.00    +0.000 C 
ATOM     24  C   UNL     1       6.291   3.965  13.555  0.00  0.00    +0.000 C 
ENDBRANCH  22  24
ENDBRANCH   1  22
TORSDOF 2
ENDMDL
MODEL 3
REMARK VINA RESULT:      -7.0      1.216      1.321
REMARK  Name = 
REMARK  3 active torsions:
REMARK  status: ('A' for Active; 'I' for Inactive)
REMARK    1  A    between atoms: C_1  and  C_2
REMARK    2  A    between atoms: C_2  and  O_3
REMARK    3  A    between atoms: O_3  and  C_4
REMARK                            x       y       z     vdW  Elec       q    Type
REMARK                         _______ _______ _______ _____ _____    ______ ____
ROOT
ATOM      1  C   UNL     1       5.668   4.732  16.775  0.00  0.00    +0.000 A 
ATOM      2  C   UNL     1       5.945   4.111  17.991  0.00  0.00    +0.000 A 
ATOM      3  C   UNL     1       5.207   4.422  19.141  0.00  0.00    +0.000 A 
ATOM      4  C   UNL     1       4.175   5.374  19.075  0.00  0.00    +0.000 A 
ATOM      5  N   UNL     1       3.370   5.778  20.126  0.00  0.00    +0.000 NA
ATOM      6  C   UNL     1       2.552   6.733  19.744  0.00  0.00    +0.000 A 
ATOM      7  N   UNL     1       1.702   7.320  20.622  0.00  0.00    +0.000 N 
ATOM      8  C   UNL     1       1.078   8.517  20.502  0.00  0.00    +0.000 A 
ATOM      9  N   UNL     1       1.236   9.360  19.511  0.00  0.00    +0.000 NA
ATOM     10  C   UNL     1       0.471  10.488  19.687  0.00  0.00    +0.000 A 
ATOM     11  C   UNL     1       0.415  11.579  18.797  0.00  0.00    +0.000 A 
ATOM     12  C   UNL     1      -0.422  12.659  19.086  0.00  0.00    +0.000 A 
ATOM     13  C   UNL     1      -1.182  12.651  20.247  0.00  0.00    +0.000 A 
ATOM     14  F   UNL     1      -1.983  13.693  20.503  0.00  0.00    +0.000 F 
ATOM     15  C   UNL     1      -1.140  11.590  21.152  0.00  0.00    +0.000 A 
ATOM     16  C   UNL     1      -0.297  10.510  20.849  0.00  0.00    +0.000 A 
ATOM     17  S   UNL     1      -0.000   9.063  21.734  0.00  0.00    +0.000 S 
ATOM     18  S   UNL     1       2.636   7.102  18.057  0.00  0.00    +0.000 S 
ATOM     19  C   UNL     1       3.916   5.988  17.852  0.00  0.00    +0.000 A 
ATOM     20  C   UNL     1       4.642   5.679  16.692  0.00  0.00    +0.000 A 
ATOM     21  H   UNL     1       1.669   6.877  21.531  0.00  0.00    +0.000 HD
ENDROOT
BRANCH   1  22
ATOM     22  O   UNL     1       6.322   4.501  15.594  0.00  0.00    +0.000 OA
BRANCH  22  24
ATOM     23  C   UNL     1       6.238   3.744  13.328  0.00  0.00    +0.000 C 
ATOM     24  C   UNL     1       5.535   4.545  14.406  0.00  0.00    +0.000 C 
ENDBRANCH  22  24
ENDBRANCH   1  22
TORSDOF 2
ENDMDL
MODEL 4
REMARK VINA RESULT:      -6.8      4.420      8.549
REMARK  Name = 
REMARK  3 active torsions:
REMARK  status: ('A' for Active; 'I' for Inactive)
REMARK    1  A    between atoms: C_1  and  C_2
REMARK    2  A    between atoms: C_2  and  O_3
REMARK    3  A    between atoms: O_3  and  C_4
REMARK                            x       y       z     vdW  Elec       q    Type
REMARK                         _______ _______ _______ _____ _____    ______ ____
ROOT
ATOM      1  C   UNL     1      -0.107  12.368  19.167  0.00  0.00    +0.000 A 
ATOM      2  C   UNL     1      -0.758  12.282  20.395  0.00  0.00    +0.000 A 
ATOM      3  C   UNL     1      -0.608  11.152  21.210  0.00  0.00    +0.000 A 
ATOM      4  C   UNL     1       0.204  10.086  20.787  0.00  0.00    +0.000 A 
ATOM      5  N   UNL     1       0.441   8.914  21.485  0.00  0.00    +0.000 NA
ATOM      6  C   UNL     1       1.190   8.096  20.779  0.00  0.00    +0.000 A 
ATOM      7  N   UNL     1       1.509   6.863  21.242  0.00  0.00    +0.000 N 
ATOM      8  C   UNL     1       1.940   5.793  20.532  0.00  0.00    +0.000 A 
ATOM      9  N   UNL     1       2.073   5.750  19.228  0.00  0.00    +0.000 NA
ATOM     10  C   UNL     1       2.520   4.520  18.810  0.00  0.00    +0.000 A 
ATOM     11  C   UNL     1       2.769   4.157  17.472  0.00  0.00    +0.000 A 
ATOM     12  C   UNL     1       3.241   2.875  17.185  0.00  0.00    +0.000 A 
ATOM     13  C   UNL     1       3.455   1.971  18.216  0.00  0.00    +0.000 A 
ATOM     14  F   UNL     1       3.915   0.749  17.921  0.00  0.00    +0.000 F 
ATOM     15  C   UNL     1       3.209   2.298  19.550  0.00  0.00    +0.000 A 
ATOM     16  C   UNL     1       2.736   3.590  19.826  0.00  0.00    +0.000 A 
ATOM     17  S   UNL     1       2.327   4.314  21.333  0.00  0.00    +0.000 S 
ATOM     18  S   UNL     1       1.744   8.760  19.282  0.00  0.00    +0.000 S 
ATOM     19  C   UNL     1       0.843  10.188  19.554  0.00  0.00    +0.000 A 
ATOM     20  C   UNL     1       0.708  11.318  18.732  0.00  0.00    +0.000 A 
ATOM     21  H   UNL     1       1.235   6.694  22.202  0.00  0.00    +0.000 HD
ENDROOT
BRANCH   1  22
ATOM     22  O   UNL     1      -0.181  13.423  18.297  0.00  0.00    +0.000 OA
BRANCH  22  24
ATOM     23  C   UNL     1       1.454  14.996  19.051  0.00  0.00    +0.000 C 
ATOM     24  C   UNL     1      -0.026  14.726  18.856  0.00  0.00    +0.000 C 
ENDBRANCH  22  24
ENDBRANCH   1  22
TORSDOF 2
ENDMDL
MODEL 5
REMARK VINA RESULT:      -6.8      3.343      4.865
REMARK  Name = 
REMARK  3 active torsions:
REMARK  status: ('A' for Active; 'I' for Inactive)
REMARK    1  A    between atoms: C_1  and  C_2
REMARK    2  A    between atoms: C_2  and  O_3
REMARK    3  A    between atoms: O_3  and  C_4
REMARK                            x       y       z     vdW  Elec       q    Type
REMARK                         _______ _______ _______ _____ _____    ______ ____
ROOT
ATOM      1  C   UNL     1       2.379   6.611  19.557  0.00  0.00    +0.000 A 
ATOM      2  C   UNL     1       2.529   7.097  18.260  0.00  0.00    +0.000 A 
ATOM      3  C   UNL     1       2.094   8.384  17.920  0.00  0.00    +0.000 A 
ATOM      4  C   UNL     1       1.494   9.201  18.895  0.00  0.00    +0.000 A 
ATOM      5  N   UNL     1       1.018  10.487  18.700  0.00  0.00    +0.000 NA
ATOM      6  C   UNL     1       0.454  10.943  19.797  0.00  0.00    +0.000 A 
ATOM      7  N   UNL     1      -0.129  12.167  19.826  0.00  0.00    +0.000 N 
ATOM      8  C   UNL     1      -1.042  12.632  20.713  0.00  0.00    +0.000 A 
ATOM      9  N   UNL     1      -1.573  11.939  21.692  0.00  0.00    +0.000 NA
ATOM     10  C   UNL     1      -2.472  12.691  22.408  0.00  0.00    +0.000 A 
ATOM     11  C   UNL     1      -3.206  12.238  23.522  0.00  0.00    +0.000 A 
ATOM     12  C   UNL     1      -4.077  13.114  24.173  0.00  0.00    +0.000 A 
ATOM     13  C   UNL     1      -4.215  14.417  23.716  0.00  0.00    +0.000 A 
ATOM     14  F   UNL     1      -5.049  15.244  24.358  0.00  0.00    +0.000 F 
ATOM     15  C   UNL     1      -3.509  14.892  22.610  0.00  0.00    +0.000 A 
ATOM     16  C   UNL     1      -2.637  14.002  21.964  0.00  0.00    +0.000 A 
ATOM     17  S   UNL     1      -1.632  14.249  20.587  0.00  0.00    +0.000 S 
ATOM     18  S   UNL     1       0.581   9.879  21.153  0.00  0.00    +0.000 S 
ATOM     19  C   UNL     1       1.347   8.697  20.184  0.00  0.00    +0.000 A 
ATOM     20  C   UNL     1       1.787   7.412  20.539  0.00  0.00    +0.000 A 
ATOM     21  H   UNL     1       0.024  12.723  18.995  0.00  0.00    +0.000 HD
ENDROOT
BRANCH   1  22
ATOM     22  O   UNL     1       2.769   5.374  19.996  0.00  0.00    +0.000 OA
BRANCH  22  24
ATOM     23  C   UNL     1       1.042   3.770  20.399  0.00  0.00    +0.000 C 
ATOM     24  C   UNL     1       2.100   4.251  19.425  0.00  0.00    +0.000 C 
ENDBRANCH  22  24
ENDBRANCH   1  22
TORSDOF 2
ENDMDL
MODEL 6
REMARK VINA RESULT:      -6.6      4.579      9.442
REMARK  Name = 
REMARK  3 active torsions:
REMARK  status: ('A' for Active; 'I' for Inactive)
REMARK    1  A    between atoms: C_1  and  C_2
REMARK    2  A    between atoms: C_2  and  O_3
REMARK    3  A    between atoms: O_3  and  C_4
REMARK                            x       y       z     vdW  Elec       q    Type
REMARK                         _______ _______ _______ _____ _____    ______ ____
ROOT
ATOM      1  C   UNL     1      -1.239  12.502  22.825  0.00  0.00    +0.000 A 
ATOM      2  C   UNL     1      -0.517  13.376  22.016  0.00  0.00    +0.000 A 
ATOM      3  C   UNL     1       0.299  12.892  20.985  0.00  0.00    +0.000 A 
ATOM      4  C   UNL     1       0.397  11.507  20.761  0.00  0.00    +0.000 A 
ATOM      5  N   UNL     1       1.161  10.892  19.784  0.00  0.00    +0.000 NA
ATOM      6  C   UNL     1       1.085   9.584  19.891  0.00  0.00    +0.000 A 
ATOM      7  N   UNL     1       1.794   8.772  19.069  0.00  0.00    +0.000 N 
ATOM      8  C   UNL     1       2.114   7.469  19.260  0.00  0.00    +0.000 A 
ATOM      9  N   UNL     1       1.831   6.766  20.329  0.00  0.00    +0.000 NA
ATOM     10  C   UNL     1       2.300   5.479  20.222  0.00  0.00    +0.000 A 
ATOM     11  C   UNL     1       2.152   4.476  21.200  0.00  0.00    +0.000 A 
ATOM     12  C   UNL     1       2.662   3.199  20.956  0.00  0.00    +0.000 A 
ATOM     13  C   UNL     1       3.312   2.932  19.759  0.00  0.00    +0.000 A 
ATOM     14  F   UNL     1       3.787   1.700  19.540  0.00  0.00    +0.000 F 
ATOM     15  C   UNL     1       3.482   3.908  18.776  0.00  0.00    +0.000 A 
ATOM     16  C   UNL     1       2.965   5.186  19.033  0.00  0.00    +0.000 A 
ATOM     17  S   UNL     1       3.003   6.606  18.058  0.00  0.00    +0.000 S 
ATOM     18  S   UNL     1      -0.016   9.037  21.106  0.00  0.00    +0.000 S 
ATOM     19  C   UNL     1      -0.328  10.649  21.583  0.00  0.00    +0.000 A 
ATOM     20  C   UNL     1      -1.155  11.122  22.614  0.00  0.00    +0.000 A 
ATOM     21  H   UNL     1       2.264   9.251  18.312  0.00  0.00    +0.000 HD
ENDROOT
BRANCH   1  22
ATOM     22  O   UNL     1      -2.065  12.867  23.855  0.00  0.00    +0.000 OA
BRANCH  22  24
ATOM     23  C   UNL     1      -3.059  14.769  24.909  0.00  0.00    +0.000 C 
ATOM     24  C   UNL     1      -2.927  13.979  23.621  0.00  0.00    +0.000 C 
ENDBRANCH  22  24
ENDBRANCH   1  22
TORSDOF 2
ENDMDL
MODEL 7
REMARK VINA RESULT:      -6.6      1.717      2.097
REMARK  Name = 
REMARK  3 active torsions:
REMARK  status: ('A' for Active; 'I' for Inactive)
REMARK    1  A    between atoms: C_1  and  C_2
REMARK    2  A    between atoms: C_2  and  O_3
REMARK    3  A    between atoms: O_3  and  C_4
REMARK                            x       y       z     vdW  Elec       q    Type
REMARK                         _______ _______ _______ _____ _____    ______ ____
ROOT
ATOM      1  C   UNL     1       5.024   5.237  17.465  0.00  0.00    +0.000 A 
ATOM      2  C   UNL     1       4.763   4.566  18.657  0.00  0.00    +0.000 A 
ATOM      3  C   UNL     1       3.828   5.066  19.573  0.00  0.00    +0.000 A 
ATOM      4  C   UNL     1       3.144   6.262  19.293  0.00  0.00    +0.000 A 
ATOM      5  N   UNL     1       2.199   6.869  20.103  0.00  0.00    +0.000 NA
ATOM      6  C   UNL     1       1.804   8.010  19.581  0.00  0.00    +0.000 A 
ATOM      7  N   UNL     1       0.917   8.805  20.227  0.00  0.00    +0.000 N 
ATOM      8  C   UNL     1       0.687  10.126  20.029  0.00  0.00    +0.000 A 
ATOM      9  N   UNL     1       1.340  10.894  19.192  0.00  0.00    +0.000 NA
ATOM     10  C   UNL     1       0.876  12.187  19.232  0.00  0.00    +0.000 A 
ATOM     11  C   UNL     1       1.367  13.251  18.449  0.00  0.00    +0.000 A 
ATOM     12  C   UNL     1       0.791  14.517  18.574  0.00  0.00    +0.000 A 
ATOM     13  C   UNL     1      -0.250  14.716  19.469  0.00  0.00    +0.000 A 
ATOM     14  F   UNL     1      -0.794  15.936  19.569  0.00  0.00    +0.000 F 
ATOM     15  C   UNL     1      -0.751  13.685  20.264  0.00  0.00    +0.000 A 
ATOM     16  C   UNL     1      -0.165  12.417  20.128  0.00  0.00    +0.000 A 
ATOM     17  S   UNL     1      -0.525  10.944  20.946  0.00  0.00    +0.000 S 
ATOM     18  S   UNL     1       2.471   8.340  18.021  0.00  0.00    +0.000 S 
ATOM     19  C   UNL     1       3.421   6.921  18.099  0.00  0.00    +0.000 A 
ATOM     20  C   UNL     1       4.349   6.426  17.169  0.00  0.00    +0.000 A 
ATOM     21  H   UNL     1       0.507   8.388  21.052  0.00  0.00    +0.000 HD
ENDROOT
BRANCH   1  22
ATOM     22  O   UNL     1       5.912   4.837  16.502  0.00  0.00    +0.000 OA
BRANCH  22  24
ATOM     23  C   UNL     1       6.051   4.115  14.227  0.00  0.00    +0.000 C 
ATOM     24  C   UNL     1       5.625   5.231  15.162  0.00  0.00    +0.000 C 
ENDBRANCH  22  24
ENDBRANCH   1  22
TORSDOF 2
ENDMDL
MODEL 8
REMARK VINA RESULT:      -6.5      1.191      1.482
REMARK  Name = 
REMARK  3 active torsions:
REMARK  status: ('A' for Active; 'I' for Inactive)
REMARK    1  A    between atoms: C_1  and  C_2
REMARK    2  A    between atoms: C_2  and  O_3
REMARK    3  A    between atoms: O_3  and  C_4
REMARK                            x       y       z     vdW  Elec       q    Type
REMARK                         _______ _______ _______ _____ _____    ______ ____
ROOT
ATOM      1  C   UNL     1       4.598   4.029  17.477  0.00  0.00    +0.000 A 
ATOM      2  C   UNL     1       4.558   3.242  18.626  0.00  0.00    +0.000 A 
ATOM      3  C   UNL     1       3.812   3.640  19.743  0.00  0.00    +0.000 A 
ATOM      4  C   UNL     1       3.095   4.849  19.713  0.00  0.00    +0.000 A 
ATOM      5  N   UNL     1       2.322   5.363  20.739  0.00  0.00    +0.000 NA
ATOM      6  C   UNL     1       1.844   6.545  20.413  0.00  0.00    +0.000 A 
ATOM      7  N   UNL     1       1.097   7.263  21.286  0.00  0.00    +0.000 N 
ATOM      8  C   UNL     1       0.843   8.594  21.264  0.00  0.00    +0.000 A 
ATOM      9  N   UNL     1       1.335   9.448  20.399  0.00  0.00    +0.000 NA
ATOM     10  C   UNL     1       0.895  10.725  20.650  0.00  0.00    +0.000 A 
ATOM     11  C   UNL     1       1.239  11.866  19.898  0.00  0.00    +0.000 A 
ATOM     12  C   UNL     1       0.705  13.107  20.251  0.00  0.00    +0.000 A 
ATOM     13  C   UNL     1      -0.152  13.206  21.338  0.00  0.00    +0.000 A 
ATOM     14  F   UNL     1      -0.659  14.404  21.655  0.00  0.00    +0.000 F 
ATOM     15  C   UNL     1      -0.503  12.097  22.107  0.00  0.00    +0.000 A 
ATOM     16  C   UNL     1       0.039  10.855  21.742  0.00  0.00    +0.000 A 
ATOM     17  S   UNL     1      -0.172   9.305  22.465  0.00  0.00    +0.000 S 
ATOM     18  S   UNL     1       2.212   7.033  18.796  0.00  0.00    +0.000 S 
ATOM     19  C   UNL     1       3.151   5.624  18.558  0.00  0.00    +0.000 A 
ATOM     20  C   UNL     1       3.888   5.232  17.429  0.00  0.00    +0.000 A 
ATOM     21  H   UNL     1       0.844   6.764  22.129  0.00  0.00    +0.000 HD
ENDROOT
BRANCH   1  22
ATOM     22  O   UNL     1       5.290   3.734  16.332  0.00  0.00    +0.000 OA
BRANCH  22  24
ATOM     23  C   UNL     1       7.428   4.601  16.959  0.00  0.00    +0.000 C 
ATOM     24  C   UNL     1       6.304   4.658  15.942  0.00  0.00    +0.000 C 
ENDBRANCH  22  24
ENDBRANCH   1  22
TORSDOF 2
ENDMDL
MODEL 9
REMARK VINA RESULT:      -6.5      2.878      4.105
REMARK  Name = 
REMARK  3 active torsions:
REMARK  status: ('A' for Active; 'I' for Inactive)
REMARK    1  A    between atoms: C_1  and  C_2
REMARK    2  A    between atoms: C_2  and  O_3
REMARK    3  A    between atoms: O_3  and  C_4
REMARK                            x       y       z     vdW  Elec       q    Type
REMARK                         _______ _______ _______ _____ _____    ______ ____
ROOT
ATOM      1  C   UNL     1       2.388   4.933  19.704  0.00  0.00    +0.000 A 
ATOM      2  C   UNL     1       2.727   5.333  18.413  0.00  0.00    +0.000 A 
ATOM      3  C   UNL     1       2.584   6.668  18.015  0.00  0.00    +0.000 A 
ATOM      4  C   UNL     1       2.089   7.621  18.922  0.00  0.00    +0.000 A 
ATOM      5  N   UNL     1       1.895   8.968  18.666  0.00  0.00    +0.000 NA
ATOM      6  C   UNL     1       1.354   9.565  19.705  0.00  0.00    +0.000 A 
ATOM      7  N   UNL     1       1.027  10.880  19.664  0.00  0.00    +0.000 N 
ATOM      8  C   UNL     1       0.163  11.547  20.467  0.00  0.00    +0.000 A 
ATOM      9  N   UNL     1      -0.565  11.008  21.414  0.00  0.00    +0.000 NA
ATOM     10  C   UNL     1      -1.347  11.947  22.042  0.00  0.00    +0.000 A 
ATOM     11  C   UNL     1      -2.236  11.687  23.103  0.00  0.00    +0.000 A 
ATOM     12  C   UNL     1      -2.959  12.740  23.667  0.00  0.00    +0.000 A 
ATOM     13  C   UNL     1      -2.801  14.028  23.174  0.00  0.00    +0.000 A 
ATOM     14  F   UNL     1      -3.498  15.025  23.732  0.00  0.00    +0.000 F 
ATOM     15  C   UNL     1      -1.936  14.315  22.118  0.00  0.00    +0.000 A 
ATOM     16  C   UNL     1      -1.213  13.249  21.561  0.00  0.00    +0.000 A 
ATOM     17  S   UNL     1      -0.082  13.243  20.263  0.00  0.00    +0.000 S 
ATOM     18  S   UNL     1       1.167   8.545  21.088  0.00  0.00    +0.000 S 
ATOM     19  C   UNL     1       1.751   7.202  20.206  0.00  0.00    +0.000 A 
ATOM     20  C   UNL     1       1.898   5.868  20.620  0.00  0.00    +0.000 A 
ATOM     21  H   UNL     1       1.349  11.365  18.837  0.00  0.00    +0.000 HD
ENDROOT
BRANCH   1  22
ATOM     22  O   UNL     1       2.491   3.659  20.197  0.00  0.00    +0.000 OA
BRANCH  22  24
ATOM     23  C   UNL     1       0.867   2.399  18.975  0.00  0.00    +0.000 C 
ATOM     24  C   UNL     1       1.275   2.927  20.337  0.00  0.00    +0.000 C 
ENDBRANCH  22  24
ENDBRANCH   1  22
TORSDOF 2
ENDMDL
