MODEL 1
REMARK VINA RESULT:      -8.2      0.000      0.000
REMARK  Name = 
REMARK  8 active torsions:
REMARK  status: ('A' for Active; 'I' for Inactive)
REMARK    1  A    between atoms: C_1  and  C_2
REMARK    2  A    between atoms: C_2  and  O_3
REMARK    3  A    between atoms: O_3  and  C_4
REMARK    4  A    between atoms: C_4  and  C_6
REMARK    5  A    between atoms: C_6  and  C_7
REMARK    6  A    between atoms: C_7  and  C_20
REMARK    7  A    between atoms: N_8  and  N_9
REMARK    8  A    between atoms: N_9  and  C_10
REMARK                            x       y       z     vdW  Elec       q    Type
REMARK                         _______ _______ _______ _____ _____    ______ ____
ROOT
ATOM      1  C   UNL     1       6.316   4.553  15.957  0.00  0.00    +0.000 C 
ATOM      2  N   UNL     1       5.486   3.671  16.450  0.00  0.00    +0.000 NA
ENDROOT
BRANCH   1   3
ATOM      3  C   UNL     1       6.618   4.496  14.488  0.00  0.00    +0.000 A 
ATOM      4  C   UNL     1       5.902   3.595  13.687  0.00  0.00    +0.000 A 
ATOM      5  C   UNL     1       6.157   3.497  12.320  0.00  0.00    +0.000 A 
ATOM      6  C   UNL     1       7.127   4.308  11.735  0.00  0.00    +0.000 A 
ATOM      7  C   UNL     1       7.841   5.212  12.518  0.00  0.00    +0.000 A 
ATOM      8  C   UNL     1       7.592   5.306  13.890  0.00  0.00    +0.000 A 
ENDBRANCH   1   3
BRANCH   2   9
ATOM      9  N   UNL     1       5.242   3.747  17.777  0.00  0.00    +0.000 N 
ATOM     10  H   UNL     1       5.546   4.572  18.293  0.00  0.00    +0.000 HD
BRANCH   9  11
ATOM     11  C   UNL     1       4.045   3.311  18.373  0.00  0.00    +0.000 A 
ATOM     12  N   UNL     1       3.768   2.026  18.059  0.00  0.00    +0.000 NA
ATOM     13  C   UNL     1       2.605   1.537  18.495  0.00  0.00    +0.000 A 
ATOM     14  N   UNL     1       1.700   2.189  19.226  0.00  0.00    +0.000 NA
ATOM     15  C   UNL     1       1.981   3.455  19.536  0.00  0.00    +0.000 A 
ATOM     16  C   UNL     1       1.042   4.150  20.293  0.00  0.00    +0.000 A 
ATOM     17  C   UNL     1       1.220   5.485  20.657  0.00  0.00    +0.000 A 
ATOM     18  C   UNL     1       2.364   6.151  20.257  0.00  0.00    +0.000 A 
ATOM     19  C   UNL     1       3.319   5.472  19.498  0.00  0.00    +0.000 A 
ATOM     20  C   UNL     1       3.155   4.110  19.128  0.00  0.00    +0.000 A 
ENDBRANCH   9  11
ENDBRANCH   2   9
BRANCH   1  21
ATOM     21  C   UNL     1       7.058   5.586  16.793  0.00  0.00    +0.000 C 
BRANCH  21  22
ATOM     22  C   UNL     1       6.301   6.866  16.996  0.00  0.00    +0.000 C 
ATOM     23  O   UNL     1       5.086   6.966  17.086  0.00  0.00    +0.000 OA
BRANCH  22  24
ATOM     24  O   UNL     1       7.174   7.914  16.959  0.00  0.00    +0.000 OA
BRANCH  24  26
ATOM     25  C   UNL     1       8.503   9.432  18.242  0.00  0.00    +0.000 C 
ATOM     26  C   UNL     1       8.111   7.979  18.046  0.00  0.00    +0.000 C 
ENDBRANCH  24  26
ENDBRANCH  22  24
ENDBRANCH  21  22
ENDBRANCH   1  21
TORSDOF 7
ENDMDL
MODEL 2
REMARK VINA RESULT:      -8.0      0.906      1.387
REMARK  Name = 
REMARK  8 active torsions:
REMARK  status: ('A' for Active; 'I' for Inactive)
REMARK    1  A    between atoms: C_1  and  C_2
REMARK    2  A    between atoms: C_2  and  O_3
REMARK    3  A    between atoms: O_3  and  C_4
REMARK    4  A    between atoms: C_4  and  C_6
REMARK    5  A    between atoms: C_6  and  C_7
REMARK    6  A    between atoms: C_7  and  C_20
REMARK    7  A    between atoms: N_8  and  N_9
REMARK    8  A    between atoms: N_9  and  C_10
REMARK                            x       y       z     vdW  Elec       q    Type
REMARK                         _______ _______ _______ _____ _____    ______ ____
ROOT
ATOM      1  C   UNL     1       6.089   4.539  16.001  0.00  0.00    +0.000 C 
ATOM      2  N   UNL     1       5.499   3.508  16.546  0.00  0.00    +0.000 NA
ENDROOT
BRANCH   1   3
ATOM      3  C   UNL     1       6.463   4.454  14.549  0.00  0.00    +0.000 A 
ATOM      4  C   UNL     1       7.488   5.281  14.066  0.00  0.00    +0.000 A 
ATOM      5  C   UNL     1       7.860   5.246  12.724  0.00  0.00    +0.000 A 
ATOM      6  C   UNL     1       7.217   4.375  11.848  0.00  0.00    +0.000 A 
ATOM      7  C   UNL     1       6.203   3.543  12.315  0.00  0.00    +0.000 A 
ATOM      8  C   UNL     1       5.822   3.582  13.660  0.00  0.00    +0.000 A 
ENDBRANCH   1   3
BRANCH   2   9
ATOM      9  N   UNL     1       5.182   3.616  17.856  0.00  0.00    +0.000 N 
ATOM     10  H   UNL     1       5.497   4.433  18.378  0.00  0.00    +0.000 HD
BRANCH   9  11
ATOM     11  C   UNL     1       3.933   3.248  18.386  0.00  0.00    +0.000 A 
ATOM     12  N   UNL     1       3.572   2.004  18.001  0.00  0.00    +0.000 NA
ATOM     13  C   UNL     1       2.359   1.587  18.371  0.00  0.00    +0.000 A 
ATOM     14  N   UNL     1       1.477   2.274  19.098  0.00  0.00    +0.000 NA
ATOM     15  C   UNL     1       1.841   3.500  19.479  0.00  0.00    +0.000 A 
ATOM     16  C   UNL     1       0.928   4.230  20.233  0.00  0.00    +0.000 A 
ATOM     17  C   UNL     1       1.192   5.530  20.667  0.00  0.00    +0.000 A 
ATOM     18  C   UNL     1       2.399   6.123  20.341  0.00  0.00    +0.000 A 
ATOM     19  C   UNL     1       3.329   5.406  19.586  0.00  0.00    +0.000 A 
ATOM     20  C   UNL     1       3.077   4.078  19.146  0.00  0.00    +0.000 A 
ENDBRANCH   9  11
ENDBRANCH   2   9
BRANCH   1  21
ATOM     21  C   UNL     1       6.493   5.792  16.763  0.00  0.00    +0.000 C 
BRANCH  21  22
ATOM     22  C   UNL     1       7.562   5.563  17.793  0.00  0.00    +0.000 C 
ATOM     23  O   UNL     1       7.951   4.472  18.182  0.00  0.00    +0.000 OA
BRANCH  22  24
ATOM     24  O   UNL     1       7.957   6.766  18.303  0.00  0.00    +0.000 OA
BRANCH  24  26
ATOM     25  C   UNL     1       8.327   9.121  18.120  0.00  0.00    +0.000 C 
ATOM     26  C   UNL     1       7.654   7.913  17.493  0.00  0.00    +0.000 C 
ENDBRANCH  24  26
ENDBRANCH  22  24
ENDBRANCH  21  22
ENDBRANCH   1  21
TORSDOF 7
ENDMDL
MODEL 3
REMARK VINA RESULT:      -7.9      2.877      7.325
REMARK  Name = 
REMARK  8 active torsions:
REMARK  status: ('A' for Active; 'I' for Inactive)
REMARK    1  A    between atoms: C_1  and  C_2
REMARK    2  A    between atoms: C_2  and  O_3
REMARK    3  A    between atoms: O_3  and  C_4
REMARK    4  A    between atoms: C_4  and  C_6
REMARK    5  A    between atoms: C_6  and  C_7
REMARK    6  A    between atoms: C_7  and  C_20
REMARK    7  A    between atoms: N_8  and  N_9
REMARK    8  A    between atoms: N_9  and  C_10
REMARK                            x       y       z     vdW  Elec       q    Type
REMARK                         _______ _______ _______ _____ _____    ______ ____
ROOT
ATOM      1  C   UNL     1       2.595   6.307  19.222  0.00  0.00    +0.000 C 
ATOM      2  N   UNL     1       3.658   5.929  19.884  0.00  0.00    +0.000 NA
ENDROOT
BRANCH   1   3
ATOM      3  C   UNL     1       1.863   7.528  19.698  0.00  0.00    +0.000 A 
ATOM      4  C   UNL     1       1.688   8.599  18.809  0.00  0.00    +0.000 A 
ATOM      5  C   UNL     1       1.027   9.758  19.211  0.00  0.00    +0.000 A 
ATOM      6  C   UNL     1       0.523   9.857  20.506  0.00  0.00    +0.000 A 
ATOM      7  C   UNL     1       0.684   8.798  21.396  0.00  0.00    +0.000 A 
ATOM      8  C   UNL     1       1.354   7.638  20.998  0.00  0.00    +0.000 A 
ENDBRANCH   1   3
BRANCH   2   9
ATOM      9  N   UNL     1       4.289   4.822  19.432  0.00  0.00    +0.000 N 
ATOM     10  H   UNL     1       3.741   4.077  19.003  0.00  0.00    +0.000 HD
BRANCH   9  11
ATOM     11  C   UNL     1       5.530   4.851  18.772  0.00  0.00    +0.000 A 
ATOM     12  N   UNL     1       6.531   5.220  19.600  0.00  0.00    +0.000 NA
ATOM     13  C   UNL     1       7.739   5.371  19.055  0.00  0.00    +0.000 A 
ATOM     14  N   UNL     1       8.057   5.176  17.774  0.00  0.00    +0.000 NA
ATOM     15  C   UNL     1       7.066   4.807  16.962  0.00  0.00    +0.000 A 
ATOM     16  C   UNL     1       7.381   4.606  15.621  0.00  0.00    +0.000 A 
ATOM     17  C   UNL     1       6.421   4.241  14.678  0.00  0.00    +0.000 A 
ATOM     18  C   UNL     1       5.107   4.071  15.076  0.00  0.00    +0.000 A 
ATOM     19  C   UNL     1       4.770   4.268  16.416  0.00  0.00    +0.000 A 
ATOM     20  C   UNL     1       5.739   4.630  17.390  0.00  0.00    +0.000 A 
ENDBRANCH   9  11
ENDBRANCH   2   9
BRANCH   1  21
ATOM     21  C   UNL     1       2.008   5.543  18.045  0.00  0.00    +0.000 C 
BRANCH  21  22
ATOM     22  C   UNL     1       1.535   4.160  18.389  0.00  0.00    +0.000 C 
ATOM     23  O   UNL     1       1.515   3.207  17.625  0.00  0.00    +0.000 OA
BRANCH  22  24
ATOM     24  O   UNL     1       1.032   4.161  19.658  0.00  0.00    +0.000 OA
BRANCH  24  26
ATOM     25  C   UNL     1       1.992   3.145  21.597  0.00  0.00    +0.000 C 
ATOM     26  C   UNL     1       1.134   2.915  20.366  0.00  0.00    +0.000 C 
ENDBRANCH  24  26
ENDBRANCH  22  24
ENDBRANCH  21  22
ENDBRANCH   1  21
TORSDOF 7
ENDMDL
MODEL 4
REMARK VINA RESULT:      -7.9      2.861      7.092
REMARK  Name = 
REMARK  8 active torsions:
REMARK  status: ('A' for Active; 'I' for Inactive)
REMARK    1  A    between atoms: C_1  and  C_2
REMARK    2  A    between atoms: C_2  and  O_3
REMARK    3  A    between atoms: O_3  and  C_4
REMARK    4  A    between atoms: C_4  and  C_6
REMARK    5  A    between atoms: C_6  and  C_7
REMARK    6  A    between atoms: C_7  and  C_20
REMARK    7  A    between atoms: N_8  and  N_9
REMARK    8  A    between atoms: N_9  and  C_10
REMARK                            x       y       z     vdW  Elec       q    Type
REMARK                         _______ _______ _______ _____ _____    ______ ____
ROOT
ATOM      1  C   UNL     1       2.761   6.238  19.048  0.00  0.00    +0.000 C 
ATOM      2  N   UNL     1       4.017   6.151  19.402  0.00  0.00    +0.000 NA
ENDROOT
BRANCH   1   3
ATOM      3  C   UNL     1       2.067   7.559  19.219  0.00  0.00    +0.000 A 
ATOM      4  C   UNL     1       1.951   8.408  18.108  0.00  0.00    +0.000 A 
ATOM      5  C   UNL     1       1.327   9.649  18.223  0.00  0.00    +0.000 A 
ATOM      6  C   UNL     1       0.803  10.053  19.449  0.00  0.00    +0.000 A 
ATOM      7  C   UNL     1       0.906   9.217  20.557  0.00  0.00    +0.000 A 
ATOM      8  C   UNL     1       1.539   7.974  20.447  0.00  0.00    +0.000 A 
ENDBRANCH   1   3
BRANCH   2   9
ATOM      9  N   UNL     1       4.609   4.947  19.242  0.00  0.00    +0.000 N 
ATOM     10  H   UNL     1       4.026   4.114  19.152  0.00  0.00    +0.000 HD
BRANCH   9  11
ATOM     11  C   UNL     1       5.744   4.741  18.439  0.00  0.00    +0.000 A 
ATOM     12  N   UNL     1       6.884   4.782  19.163  0.00  0.00    +0.000 NA
ATOM     13  C   UNL     1       8.031   4.691  18.487  0.00  0.00    +0.000 A 
ATOM     14  N   UNL     1       8.160   4.545  17.167  0.00  0.00    +0.000 NA
ATOM     15  C   UNL     1       7.031   4.501  16.458  0.00  0.00    +0.000 A 
ATOM     16  C   UNL     1       7.149   4.356  15.079  0.00  0.00    +0.000 A 
ATOM     17  C   UNL     1       6.039   4.320  14.236  0.00  0.00    +0.000 A 
ATOM     18  C   UNL     1       4.770   4.433  14.778  0.00  0.00    +0.000 A 
ATOM     19  C   UNL     1       4.630   4.578  16.159  0.00  0.00    +0.000 A 
ATOM     20  C   UNL     1       5.752   4.606  17.031  0.00  0.00    +0.000 A 
ENDBRANCH   9  11
ENDBRANCH   2   9
BRANCH   1  21
ATOM     21  C   UNL     1       1.934   5.064  18.546  0.00  0.00    +0.000 C 
BRANCH  21  22
ATOM     22  C   UNL     1       1.471   4.135  19.630  0.00  0.00    +0.000 C 
ATOM     23  O   UNL     1       0.712   4.429  20.541  0.00  0.00    +0.000 OA
BRANCH  22  24
ATOM     24  O   UNL     1       2.114   2.938  19.500  0.00  0.00    +0.000 OA
BRANCH  24  26
ATOM     25  C   UNL     1       3.533   1.611  18.106  0.00  0.00    +0.000 C 
ATOM     26  C   UNL     1       2.281   2.468  18.152  0.00  0.00    +0.000 C 
ENDBRANCH  24  26
ENDBRANCH  22  24
ENDBRANCH  21  22
ENDBRANCH   1  21
TORSDOF 7
ENDMDL
MODEL 5
REMARK VINA RESULT:      -7.8      3.927      6.126
REMARK  Name = 
REMARK  8 active torsions:
REMARK  status: ('A' for Active; 'I' for Inactive)
REMARK    1  A    between atoms: C_1  and  C_2
REMARK    2  A    between atoms: C_2  and  O_3
REMARK    3  A    between atoms: O_3  and  C_4
REMARK    4  A    between atoms: C_4  and  C_6
REMARK    5  A    between atoms: C_6  and  C_7
REMARK    6  A    between atoms: C_7  and  C_20
REMARK    7  A    between atoms: N_8  and  N_9
REMARK    8  A    between atoms: N_9  and  C_10
REMARK                            x       y       z     vdW  Elec       q    Type
REMARK                         _______ _______ _______ _____ _____    ______ ____
ROOT
ATOM      1  C   UNL     1       3.384   5.697  18.496  0.00  0.00    +0.000 C 
ATOM      2  N   UNL     1       3.393   6.566  19.474  0.00  0.00    +0.000 NA
ENDROOT
BRANCH   1   3
ATOM      3  C   UNL     1       4.702   5.268  17.919  0.00  0.00    +0.000 A 
ATOM      4  C   UNL     1       4.732   4.760  16.612  0.00  0.00    +0.000 A 
ATOM      5  C   UNL     1       5.929   4.336  16.039  0.00  0.00    +0.000 A 
ATOM      6  C   UNL     1       7.116   4.426  16.764  0.00  0.00    +0.000 A 
ATOM      7  C   UNL     1       7.101   4.935  18.060  0.00  0.00    +0.000 A 
ATOM      8  C   UNL     1       5.899   5.353  18.640  0.00  0.00    +0.000 A 
ENDBRANCH   1   3
BRANCH   2   9
ATOM      9  N   UNL     1       2.190   6.935  19.966  0.00  0.00    +0.000 N 
ATOM     10  H   UNL     1       1.923   6.636  20.904  0.00  0.00    +0.000 HD
BRANCH   9  11
ATOM     11  C   UNL     1       1.627   8.208  19.767  0.00  0.00    +0.000 A 
ATOM     12  N   UNL     1       1.908   8.694  18.538  0.00  0.00    +0.000 NA
ATOM     13  C   UNL     1       1.501   9.937  18.274  0.00  0.00    +0.000 A 
ATOM     14  N   UNL     1       0.827  10.739  19.101  0.00  0.00    +0.000 NA
ATOM     15  C   UNL     1       0.549  10.252  20.311  0.00  0.00    +0.000 A 
ATOM     16  C   UNL     1      -0.147  11.080  21.187  0.00  0.00    +0.000 A 
ATOM     17  C   UNL     1      -0.473  10.684  22.484  0.00  0.00    +0.000 A 
ATOM     18  C   UNL     1      -0.095   9.429  22.927  0.00  0.00    +0.000 A 
ATOM     19  C   UNL     1       0.603   8.583  22.064  0.00  0.00    +0.000 A 
ATOM     20  C   UNL     1       0.934   8.969  20.736  0.00  0.00    +0.000 A 
ENDBRANCH   9  11
ENDBRANCH   2   9
BRANCH   1  21
ATOM     21  C   UNL     1       2.118   5.153  17.853  0.00  0.00    +0.000 C 
BRANCH  21  22
ATOM     22  C   UNL     1       1.649   3.849  18.432  0.00  0.00    +0.000 C 
ATOM     23  O   UNL     1       1.694   2.766  17.870  0.00  0.00    +0.000 OA
BRANCH  22  24
ATOM     24  O   UNL     1       1.069   4.081  19.645  0.00  0.00    +0.000 OA
BRANCH  24  26
ATOM     25  C   UNL     1       2.266   3.290  21.558  0.00  0.00    +0.000 C 
ATOM     26  C   UNL     1       1.139   2.996  20.584  0.00  0.00    +0.000 C 
ENDBRANCH  24  26
ENDBRANCH  22  24
ENDBRANCH  21  22
ENDBRANCH   1  21
TORSDOF 7
ENDMDL
MODEL 6
REMARK VINA RESULT:      -7.8      4.832      8.022
REMARK  Name = 
REMARK  8 active torsions:
REMARK  status: ('A' for Active; 'I' for Inactive)
REMARK    1  A    between atoms: C_1  and  C_2
REMARK    2  A    between atoms: C_2  and  O_3
REMARK    3  A    between atoms: O_3  and  C_4
REMARK    4  A    between atoms: C_4  and  C_6
REMARK    5  A    between atoms: C_6  and  C_7
REMARK    6  A    between atoms: C_7  and  C_20
REMARK    7  A    between atoms: N_8  and  N_9
REMARK    8  A    between atoms: N_9  and  C_10
REMARK                            x       y       z     vdW  Elec       q    Type
REMARK                         _______ _______ _______ _____ _____    ______ ____
ROOT
ATOM      1  C   UNL     1       0.830   9.153  20.189  0.00  0.00    +0.000 C 
ATOM      2  N   UNL     1       1.738   8.508  19.504  0.00  0.00    +0.000 NA
ENDROOT
BRANCH   1   3
ATOM      3  C   UNL     1       0.293  10.435  19.621  0.00  0.00    +0.000 A 
ATOM      4  C   UNL     1      -1.012  10.451  19.107  0.00  0.00    +0.000 A 
ATOM      5  C   UNL     1      -1.547  11.614  18.557  0.00  0.00    +0.000 A 
ATOM      6  C   UNL     1      -0.786  12.781  18.523  0.00  0.00    +0.000 A 
ATOM      7  C   UNL     1       0.509  12.780  19.036  0.00  0.00    +0.000 A 
ATOM      8  C   UNL     1       1.051  11.612  19.581  0.00  0.00    +0.000 A 
ENDBRANCH   1   3
BRANCH   2   9
ATOM      9  N   UNL     1       2.204   7.361  20.047  0.00  0.00    +0.000 N 
ATOM     10  H   UNL     1       1.750   6.984  20.879  0.00  0.00    +0.000 HD
BRANCH   9  11
ATOM     11  C   UNL     1       2.641   6.263  19.286  0.00  0.00    +0.000 A 
ATOM     12  N   UNL     1       3.490   6.639  18.305  0.00  0.00    +0.000 NA
ATOM     13  C   UNL     1       3.896   5.687  17.462  0.00  0.00    +0.000 A 
ATOM     14  N   UNL     1       3.557   4.397  17.505  0.00  0.00    +0.000 NA
ATOM     15  C   UNL     1       2.721   4.032  18.478  0.00  0.00    +0.000 A 
ATOM     16  C   UNL     1       2.353   2.691  18.532  0.00  0.00    +0.000 A 
ATOM     17  C   UNL     1       1.468   2.200  19.493  0.00  0.00    +0.000 A 
ATOM     18  C   UNL     1       0.931   3.067  20.428  0.00  0.00    +0.000 A 
ATOM     19  C   UNL     1       1.288   4.415  20.391  0.00  0.00    +0.000 A 
ATOM     20  C   UNL     1       2.195   4.928  19.425  0.00  0.00    +0.000 A 
ENDBRANCH   9  11
ENDBRANCH   2   9
BRANCH   1  21
ATOM     21  C   UNL     1       0.339   8.728  21.564  0.00  0.00    +0.000 C 
BRANCH  21  22
ATOM     22  C   UNL     1       1.023   9.430  22.701  0.00  0.00    +0.000 C 
ATOM     23  O   UNL     1       2.232   9.520  22.856  0.00  0.00    +0.000 OA
BRANCH  22  24
ATOM     24  O   UNL     1       0.083   9.861  23.592  0.00  0.00    +0.000 OA
BRANCH  24  26
ATOM     25  C   UNL     1      -0.917  11.886  22.804  0.00  0.00    +0.000 C 
ATOM     26  C   UNL     1      -1.119  10.396  23.015  0.00  0.00    +0.000 C 
ENDBRANCH  24  26
ENDBRANCH  22  24
ENDBRANCH  21  22
ENDBRANCH   1  21
TORSDOF 7
ENDMDL
MODEL 7
REMARK VINA RESULT:      -7.7      1.065      2.009
REMARK  Name = 
REMARK  8 active torsions:
REMARK  status: ('A' for Active; 'I' for Inactive)
REMARK    1  A    between atoms: C_1  and  C_2
REMARK    2  A    between atoms: C_2  and  O_3
REMARK    3  A    between atoms: O_3  and  C_4
REMARK    4  A    between atoms: C_4  and  C_6
REMARK    5  A    between atoms: C_6  and  C_7
REMARK    6  A    between atoms: C_7  and  C_20
REMARK    7  A    between atoms: N_8  and  N_9
REMARK    8  A    between atoms: N_9  and  C_10
REMARK                            x       y       z     vdW  Elec       q    Type
REMARK                         _______ _______ _______ _____ _____    ______ ____
ROOT
ATOM      1  C   UNL     1       6.427   4.542  16.084  0.00  0.00    +0.000 C 
ATOM      2  N   UNL     1       5.579   3.714  16.638  0.00  0.00    +0.000 NA
ENDROOT
BRANCH   1   3
ATOM      3  C   UNL     1       6.638   4.450  14.600  0.00  0.00    +0.000 A 
ATOM      4  C   UNL     1       5.843   3.564  13.859  0.00  0.00    +0.000 A 
ATOM      5  C   UNL     1       6.012   3.435  12.482  0.00  0.00    +0.000 A 
ATOM      6  C   UNL     1       6.975   4.199  11.827  0.00  0.00    +0.000 A 
ATOM      7  C   UNL     1       7.767   5.088  12.549  0.00  0.00    +0.000 A 
ATOM      8  C   UNL     1       7.604   5.213  13.932  0.00  0.00    +0.000 A 
ENDBRANCH   1   3
BRANCH   2   9
ATOM      9  N   UNL     1       5.418   3.819  17.975  0.00  0.00    +0.000 N 
ATOM     10  H   UNL     1       6.202   4.129  18.549  0.00  0.00    +0.000 HD
BRANCH   9  11
ATOM     11  C   UNL     1       4.249   4.313  18.580  0.00  0.00    +0.000 A 
ATOM     12  N   UNL     1       4.421   5.566  19.055  0.00  0.00    +0.000 NA
ATOM     13  C   UNL     1       3.403   6.099  19.733  0.00  0.00    +0.000 A 
ATOM     14  N   UNL     1       2.225   5.520  19.972  0.00  0.00    +0.000 NA
ATOM     15  C   UNL     1       2.059   4.284  19.498  0.00  0.00    +0.000 A 
ATOM     16  C   UNL     1       0.838   3.664  19.745  0.00  0.00    +0.000 A 
ATOM     17  C   UNL     1       0.562   2.366  19.316  0.00  0.00    +0.000 A 
ATOM     18  C   UNL     1       1.528   1.660  18.621  0.00  0.00    +0.000 A 
ATOM     19  C   UNL     1       2.759   2.264  18.362  0.00  0.00    +0.000 A 
ATOM     20  C   UNL     1       3.051   3.589  18.784  0.00  0.00    +0.000 A 
ENDBRANCH   9  11
ENDBRANCH   2   9
BRANCH   1  21
ATOM     21  C   UNL     1       7.273   5.540  16.859  0.00  0.00    +0.000 C 
BRANCH  21  22
ATOM     22  C   UNL     1       6.765   6.952  16.796  0.00  0.00    +0.000 C 
ATOM     23  O   UNL     1       5.612   7.281  16.564  0.00  0.00    +0.000 OA
BRANCH  22  24
ATOM     24  O   UNL     1       7.815   7.812  16.934  0.00  0.00    +0.000 OA
BRANCH  24  26
ATOM     25  C   UNL     1       8.616   9.558  18.358  0.00  0.00    +0.000 C 
ATOM     26  C   UNL     1       8.210   8.097  18.286  0.00  0.00    +0.000 C 
ENDBRANCH  24  26
ENDBRANCH  22  24
ENDBRANCH  21  22
ENDBRANCH   1  21
TORSDOF 7
ENDMDL
MODEL 8
REMARK VINA RESULT:      -7.7      5.117      8.387
REMARK  Name = 
REMARK  8 active torsions:
REMARK  status: ('A' for Active; 'I' for Inactive)
REMARK    1  A    between atoms: C_1  and  C_2
REMARK    2  A    between atoms: C_2  and  O_3
REMARK    3  A    between atoms: O_3  and  C_4
REMARK    4  A    between atoms: C_4  and  C_6
REMARK    5  A    between atoms: C_6  and  C_7
REMARK    6  A    between atoms: C_7  and  C_20
REMARK    7  A    between atoms: N_8  and  N_9
REMARK    8  A    between atoms: N_9  and  C_10
REMARK                            x       y       z     vdW  Elec       q    Type
REMARK                         _______ _______ _______ _____ _____    ______ ____
ROOT
ATOM      1  C   UNL     1       0.635   9.235  20.271  0.00  0.00    +0.000 C 
ATOM      2  N   UNL     1       1.671   8.687  19.691  0.00  0.00    +0.000 NA
ENDROOT
BRANCH   1   3
ATOM      3  C   UNL     1       0.115  10.529  19.714  0.00  0.00    +0.000 A 
ATOM      4  C   UNL     1       0.956  11.652  19.721  0.00  0.00    +0.000 A 
ATOM      5  C   UNL     1       0.512  12.877  19.227  0.00  0.00    +0.000 A 
ATOM      6  C   UNL     1      -0.776  12.993  18.710  0.00  0.00    +0.000 A 
ATOM      7  C   UNL     1      -1.619  11.884  18.692  0.00  0.00    +0.000 A 
ATOM      8  C   UNL     1      -1.179  10.656  19.194  0.00  0.00    +0.000 A 
ENDBRANCH   1   3
BRANCH   2   9
ATOM      9  N   UNL     1       2.117   7.527  20.221  0.00  0.00    +0.000 N 
ATOM     10  H   UNL     1       1.641   7.136  21.034  0.00  0.00    +0.000 HD
BRANCH   9  11
ATOM     11  C   UNL     1       2.566   6.441  19.449  0.00  0.00    +0.000 A 
ATOM     12  N   UNL     1       3.369   6.843  18.439  0.00  0.00    +0.000 NA
ATOM     13  C   UNL     1       3.778   5.903  17.585  0.00  0.00    +0.000 A 
ATOM     14  N   UNL     1       3.485   4.602  17.643  0.00  0.00    +0.000 NA
ATOM     15  C   UNL     1       2.695   4.212  18.644  0.00  0.00    +0.000 A 
ATOM     16  C   UNL     1       2.376   2.859  18.714  0.00  0.00    +0.000 A 
ATOM     17  C   UNL     1       1.541   2.341  19.704  0.00  0.00    +0.000 A 
ATOM     18  C   UNL     1       1.005   3.192  20.654  0.00  0.00    +0.000 A 
ATOM     19  C   UNL     1       1.314   4.552  20.603  0.00  0.00    +0.000 A 
ATOM     20  C   UNL     1       2.171   5.092  19.606  0.00  0.00    +0.000 A 
ENDBRANCH   9  11
ENDBRANCH   2   9
BRANCH   1  21
ATOM     21  C   UNL     1      -0.030   8.686  21.524  0.00  0.00    +0.000 C 
BRANCH  21  22
ATOM     22  C   UNL     1       0.117   9.568  22.730  0.00  0.00    +0.000 C 
ATOM     23  O   UNL     1       1.118   9.660  23.425  0.00  0.00    +0.000 OA
BRANCH  22  24
ATOM     24  O   UNL     1      -1.078  10.173  22.992  0.00  0.00    +0.000 OA
BRANCH  24  26
ATOM     25  C   UNL     1      -2.505  12.089  23.101  0.00  0.00    +0.000 C 
ATOM     26  C   UNL     1      -1.077  11.608  22.915  0.00  0.00    +0.000 C 
ENDBRANCH  24  26
ENDBRANCH  22  24
ENDBRANCH  21  22
ENDBRANCH   1  21
TORSDOF 7
ENDMDL
MODEL 9
REMARK VINA RESULT:      -7.6      1.525      2.595
REMARK  Name = 
REMARK  8 active torsions:
REMARK  status: ('A' for Active; 'I' for Inactive)
REMARK    1  A    between atoms: C_1  and  C_2
REMARK    2  A    between atoms: C_2  and  O_3
REMARK    3  A    between atoms: O_3  and  C_4
REMARK    4  A    between atoms: C_4  and  C_6
REMARK    5  A    between atoms: C_6  and  C_7
REMARK    6  A    between atoms: C_7  and  C_20
REMARK    7  A    between atoms: N_8  and  N_9
REMARK    8  A    between atoms: N_9  and  C_10
REMARK                            x       y       z     vdW  Elec       q    Type
REMARK                         _______ _______ _______ _____ _____    ______ ____
ROOT
ATOM      1  C   UNL     1       6.298   4.864  16.122  0.00  0.00    +0.000 C 
ATOM      2  N   UNL     1       5.145   5.361  16.487  0.00  0.00    +0.000 NA
ENDROOT
BRANCH   1   3
ATOM      3  C   UNL     1       6.519   4.588  14.663  0.00  0.00    +0.000 A 
ATOM      4  C   UNL     1       7.539   5.281  13.993  0.00  0.00    +0.000 A 
ATOM      5  C   UNL     1       7.772   5.068  12.636  0.00  0.00    +0.000 A 
ATOM      6  C   UNL     1       6.994   4.151  11.933  0.00  0.00    +0.000 A 
ATOM      7  C   UNL     1       5.983   3.452  12.587  0.00  0.00    +0.000 A 
ATOM      8  C   UNL     1       5.741   3.670  13.947  0.00  0.00    +0.000 A 
ENDBRANCH   1   3
BRANCH   2   9
ATOM      9  N   UNL     1       4.976   5.591  17.808  0.00  0.00    +0.000 N 
ATOM     10  H   UNL     1       5.445   6.387  18.239  0.00  0.00    +0.000 HD
BRANCH   9  11
ATOM     11  C   UNL     1       3.748   5.431  18.474  0.00  0.00    +0.000 A 
ATOM     12  N   UNL     1       3.414   6.532  19.182  0.00  0.00    +0.000 NA
ATOM     13  C   UNL     1       2.311   6.456  19.929  0.00  0.00    +0.000 A 
ATOM     14  N   UNL     1       1.498   5.404  20.031  0.00  0.00    +0.000 NA
ATOM     15  C   UNL     1       1.831   4.321  19.327  0.00  0.00    +0.000 A 
ATOM     16  C   UNL     1       0.995   3.212  19.428  0.00  0.00    +0.000 A 
ATOM     17  C   UNL     1       1.256   2.019  18.755  0.00  0.00    +0.000 A 
ATOM     18  C   UNL     1       2.382   1.922  17.956  0.00  0.00    +0.000 A 
ATOM     19  C   UNL     1       3.233   3.022  17.841  0.00  0.00    +0.000 A 
ATOM     20  C   UNL     1       2.974   4.248  18.513  0.00  0.00    +0.000 A 
ENDBRANCH   9  11
ENDBRANCH   2   9
BRANCH   1  21
ATOM     21  C   UNL     1       7.401   4.471  17.092  0.00  0.00    +0.000 C 
BRANCH  21  22
ATOM     22  C   UNL     1       7.670   5.493  18.159  0.00  0.00    +0.000 C 
ATOM     23  O   UNL     1       7.614   5.293  19.363  0.00  0.00    +0.000 OA
BRANCH  22  24
ATOM     24  O   UNL     1       7.882   6.707  17.573  0.00  0.00    +0.000 OA
BRANCH  24  26
ATOM     25  C   UNL     1       8.043   9.086  17.759  0.00  0.00    +0.000 C 
ATOM     26  C   UNL     1       8.285   7.762  18.462  0.00  0.00    +0.000 C 
ENDBRANCH  24  26
ENDBRANCH  22  24
ENDBRANCH  21  22
ENDBRANCH   1  21
TORSDOF 7
ENDMDL
