MODEL 1
REMARK VINA RESULT:      -7.8      0.000      0.000
REMARK  Name = 
REMARK  7 active torsions:
REMARK  status: ('A' for Active; 'I' for Inactive)
REMARK    1  A    between atoms: C_1  and  O_2
REMARK    2  A    between atoms: O_2  and  C_3
REMARK    3  A    between atoms: C_6  and  N_7
REMARK    4  A    between atoms: C_8  and  C_10
REMARK    5  A    between atoms: C_10  and  C_11
REMARK    6  A    between atoms: C_14  and  C_15
REMARK    7  A    between atoms: C_19  and  C_20
REMARK                            x       y       z     vdW  Elec       q    Type
REMARK                         _______ _______ _______ _____ _____    ______ ____
ROOT
ATOM      1  C   UNL     1       7.112   6.662  17.699  0.00  0.00    +0.000 C 
ATOM      2  C   UNL     1       8.130   5.841  18.521  0.00  0.00    +0.000 C 
ATOM      3  C   UNL     1       5.743   6.865  18.380  0.00  0.00    +0.000 C 
ATOM      4  C   UNL     1       4.974   5.722  17.895  0.00  0.00    +0.000 A 
ATOM      5  C   UNL     1       3.681   5.310  18.209  0.00  0.00    +0.000 A 
ATOM      6  C   UNL     1       3.355   4.041  17.725  0.00  0.00    +0.000 A 
ATOM      7  C   UNL     1       4.255   3.378  16.872  0.00  0.00    +0.000 A 
ATOM      8  N   UNL     1       5.415   3.910  16.399  0.00  0.00    +0.000 NA
ATOM      9  C   UNL     1       5.726   5.091  16.932  0.00  0.00    +0.000 A 
ATOM     10  O   UNL     1       6.849   5.862  16.540  0.00  0.00    +0.000 OA
ENDROOT
BRANCH   5  11
ATOM     11  C   UNL     1       2.687   6.270  18.778  0.00  0.00    +0.000 A 
ATOM     12  C   UNL     1       2.179   6.150  20.085  0.00  0.00    +0.000 A 
ATOM     13  C   UNL     1       1.608   7.229  20.764  0.00  0.00    +0.000 A 
ATOM     14  C   UNL     1       1.423   8.441  20.112  0.00  0.00    +0.000 A 
ATOM     15  C   UNL     1       1.777   8.561  18.767  0.00  0.00    +0.000 A 
ATOM     16  C   UNL     1       2.412   7.481  18.117  0.00  0.00    +0.000 A 
BRANCH  15  17
ATOM     17  C   UNL     1       1.553   9.806  17.984  0.00  0.00    +0.000 C 
ATOM     18  N   UNL     1       0.274  10.260  17.817  0.00  0.00    +0.000 N 
ATOM     19  O   UNL     1       2.490  10.416  17.487  0.00  0.00    +0.000 OA
ATOM     20  H   UNL     1      -0.555   9.834  18.197  0.00  0.00    +0.000 HD
ATOM     21  H   UNL     1       0.161  11.109  17.278  0.00  0.00    +0.000 HD
ENDBRANCH  15  17
ENDBRANCH   5  11
BRANCH   1  23
ATOM     22  N   UNL     1       8.632   8.456  18.702  0.00  0.00    +0.000 N 
ATOM     23  C   UNL     1       7.642   8.134  17.807  0.00  0.00    +0.000 C 
ATOM     24  O   UNL     1       7.063   8.987  17.120  0.00  0.00    +0.000 OA
ATOM     25  H   UNL     1       9.055   7.707  19.240  0.00  0.00    +0.000 HD
BRANCH  22  29
ATOM     26  C   UNL     1       9.933  12.373  19.481  0.00  0.00    +0.000 A 
ATOM     27  C   UNL     1       9.957  11.947  18.170  0.00  0.00    +0.000 A 
ATOM     28  C   UNL     1       9.543  10.646  17.891  0.00  0.00    +0.000 A 
ATOM     29  C   UNL     1       9.108   9.790  18.912  0.00  0.00    +0.000 A 
ATOM     30  C   UNL     1       9.142  10.325  20.198  0.00  0.00    +0.000 A 
ATOM     31  N   UNL     1       9.542  11.589  20.509  0.00  0.00    +0.000 NA
BRANCH  26  33
ATOM     32  C   UNL     1      10.355  14.040  21.065  0.00  0.00    +0.000 C 
ATOM     33  O   UNL     1      10.338  13.674  19.693  0.00  0.00    +0.000 OA
ENDBRANCH  26  33
ENDBRANCH  22  29
ENDBRANCH   1  23
TORSDOF 5
ENDMDL
MODEL 2
REMARK VINA RESULT:      -7.7      3.392      7.305
REMARK  Name = 
REMARK  7 active torsions:
REMARK  status: ('A' for Active; 'I' for Inactive)
REMARK    1  A    between atoms: C_1  and  O_2
REMARK    2  A    between atoms: O_2  and  C_3
REMARK    3  A    between atoms: C_6  and  N_7
REMARK    4  A    between atoms: C_8  and  C_10
REMARK    5  A    between atoms: C_10  and  C_11
REMARK    6  A    between atoms: C_14  and  C_15
REMARK    7  A    between atoms: C_19  and  C_20
REMARK                            x       y       z     vdW  Elec       q    Type
REMARK                         _______ _______ _______ _____ _____    ______ ____
ROOT
ATOM      1  C   UNL     1       1.852   5.443  20.593  0.00  0.00    +0.000 C 
ATOM      2  C   UNL     1       0.458   4.823  20.350  0.00  0.00    +0.000 C 
ATOM      3  C   UNL     1       2.793   5.419  19.372  0.00  0.00    +0.000 C 
ATOM      4  C   UNL     1       3.502   4.153  19.540  0.00  0.00    +0.000 A 
ATOM      5  C   UNL     1       4.438   3.531  18.718  0.00  0.00    +0.000 A 
ATOM      6  C   UNL     1       4.734   2.216  19.087  0.00  0.00    +0.000 A 
ATOM      7  C   UNL     1       4.210   1.703  20.286  0.00  0.00    +0.000 A 
ATOM      8  N   UNL     1       3.479   2.418  21.185  0.00  0.00    +0.000 NA
ATOM      9  C   UNL     1       3.160   3.645  20.771  0.00  0.00    +0.000 A 
ATOM     10  O   UNL     1       2.466   4.590  21.567  0.00  0.00    +0.000 OA
ENDROOT
BRANCH   5  11
ATOM     11  C   UNL     1       5.220   4.315  17.715  0.00  0.00    +0.000 A 
ATOM     12  C   UNL     1       4.891   4.340  16.347  0.00  0.00    +0.000 A 
ATOM     13  C   UNL     1       5.318   5.363  15.497  0.00  0.00    +0.000 A 
ATOM     14  C   UNL     1       6.188   6.337  15.964  0.00  0.00    +0.000 A 
ATOM     15  C   UNL     1       6.660   6.267  17.276  0.00  0.00    +0.000 A 
ATOM     16  C   UNL     1       6.167   5.266  18.139  0.00  0.00    +0.000 A 
BRANCH  15  17
ATOM     17  C   UNL     1       7.641   7.239  17.831  0.00  0.00    +0.000 C 
ATOM     18  N   UNL     1       8.320   6.912  18.973  0.00  0.00    +0.000 N 
ATOM     19  O   UNL     1       7.838   8.317  17.288  0.00  0.00    +0.000 OA
ATOM     20  H   UNL     1       8.233   6.048  19.481  0.00  0.00    +0.000 HD
ATOM     21  H   UNL     1       8.978   7.598  19.321  0.00  0.00    +0.000 HD
ENDBRANCH  15  17
ENDBRANCH   5  11
BRANCH   1  23
ATOM     22  N   UNL     1       0.582   7.493  21.441  0.00  0.00    +0.000 N 
ATOM     23  C   UNL     1       1.574   6.985  20.638  0.00  0.00    +0.000 C 
ATOM     24  O   UNL     1       2.224   7.692  19.855  0.00  0.00    +0.000 OA
ATOM     25  H   UNL     1       0.083   6.854  22.050  0.00  0.00    +0.000 HD
BRANCH  22  29
ATOM     26  C   UNL     1      -0.517  11.537  21.719  0.00  0.00    +0.000 A 
ATOM     27  C   UNL     1      -0.567  10.952  20.471  0.00  0.00    +0.000 A 
ATOM     28  C   UNL     1      -0.193   9.615  20.355  0.00  0.00    +0.000 A 
ATOM     29  C   UNL     1       0.220   8.878  21.472  0.00  0.00    +0.000 A 
ATOM     30  C   UNL     1       0.244   9.579  22.676  0.00  0.00    +0.000 A 
ATOM     31  N   UNL     1      -0.111  10.884  22.829  0.00  0.00    +0.000 NA
BRANCH  26  33
ATOM     32  C   UNL     1      -1.217  13.296  23.091  0.00  0.00    +0.000 C 
ATOM     33  O   UNL     1      -0.914  12.857  21.775  0.00  0.00    +0.000 OA
ENDBRANCH  26  33
ENDBRANCH  22  29
ENDBRANCH   1  23
TORSDOF 5
ENDMDL
MODEL 3
REMARK VINA RESULT:      -7.5      1.870      2.333
REMARK  Name = 
REMARK  7 active torsions:
REMARK  status: ('A' for Active; 'I' for Inactive)
REMARK    1  A    between atoms: C_1  and  O_2
REMARK    2  A    between atoms: O_2  and  C_3
REMARK    3  A    between atoms: C_6  and  N_7
REMARK    4  A    between atoms: C_8  and  C_10
REMARK    5  A    between atoms: C_10  and  C_11
REMARK    6  A    between atoms: C_14  and  C_15
REMARK    7  A    between atoms: C_19  and  C_20
REMARK                            x       y       z     vdW  Elec       q    Type
REMARK                         _______ _______ _______ _____ _____    ______ ____
ROOT
ATOM      1  C   UNL     1       6.697   6.419  17.616  0.00  0.00    +0.000 C 
ATOM      2  C   UNL     1       7.436   5.461  18.575  0.00  0.00    +0.000 C 
ATOM      3  C   UNL     1       5.484   7.145  18.233  0.00  0.00    +0.000 C 
ATOM      4  C   UNL     1       4.381   6.239  17.925  0.00  0.00    +0.000 A 
ATOM      5  C   UNL     1       3.036   6.308  18.279  0.00  0.00    +0.000 A 
ATOM      6  C   UNL     1       2.314   5.145  17.998  0.00  0.00    +0.000 A 
ATOM      7  C   UNL     1       2.932   4.109  17.277  0.00  0.00    +0.000 A 
ATOM      8  N   UNL     1       4.183   4.169  16.744  0.00  0.00    +0.000 NA
ATOM      9  C   UNL     1       4.865   5.262  17.087  0.00  0.00    +0.000 A 
ATOM     10  O   UNL     1       6.158   5.571  16.595  0.00  0.00    +0.000 OA
ENDROOT
BRANCH   5  11
ATOM     11  C   UNL     1       2.410   7.607  18.671  0.00  0.00    +0.000 A 
ATOM     12  C   UNL     1       1.972   8.554  17.727  0.00  0.00    +0.000 A 
ATOM     13  C   UNL     1       1.031   9.537  18.040  0.00  0.00    +0.000 A 
ATOM     14  C   UNL     1       0.579   9.677  19.345  0.00  0.00    +0.000 A 
ATOM     15  C   UNL     1       1.099   8.853  20.345  0.00  0.00    +0.000 A 
ATOM     16  C   UNL     1       2.000   7.824  19.999  0.00  0.00    +0.000 A 
BRANCH  15  17
ATOM     17  C   UNL     1       0.711   8.982  21.777  0.00  0.00    +0.000 C 
ATOM     18  N   UNL     1      -0.542   8.591  22.159  0.00  0.00    +0.000 N 
ATOM     19  O   UNL     1       1.490   9.438  22.602  0.00  0.00    +0.000 OA
ATOM     20  H   UNL     1      -1.244   8.196  21.555  0.00  0.00    +0.000 HD
ATOM     21  H   UNL     1      -0.770   8.696  23.139  0.00  0.00    +0.000 HD
ENDBRANCH  15  17
ENDBRANCH   5  11
BRANCH   1  23
ATOM     22  N   UNL     1       7.601   8.677  18.406  0.00  0.00    +0.000 N 
ATOM     23  C   UNL     1       7.663   7.649  17.497  0.00  0.00    +0.000 C 
ATOM     24  O   UNL     1       8.403   7.682  16.504  0.00  0.00    +0.000 OA
ATOM     25  H   UNL     1       6.963   8.587  19.189  0.00  0.00    +0.000 HD
BRANCH  22  29
ATOM     26  C   UNL     1       9.834  12.207  17.977  0.00  0.00    +0.000 A 
ATOM     27  C   UNL     1      10.380  11.203  18.748  0.00  0.00    +0.000 A 
ATOM     28  C   UNL     1       9.650  10.029  18.915  0.00  0.00    +0.000 A 
ATOM     29  C   UNL     1       8.394   9.865  18.314  0.00  0.00    +0.000 A 
ATOM     30  C   UNL     1       7.939  10.953  17.571  0.00  0.00    +0.000 A 
ATOM     31  N   UNL     1       8.623  12.116  17.387  0.00  0.00    +0.000 NA
BRANCH  26  33
ATOM     32  C   UNL     1      11.976  13.053  17.571  0.00  0.00    +0.000 C 
ATOM     33  O   UNL     1      10.611  13.339  17.835  0.00  0.00    +0.000 OA
ENDBRANCH  26  33
ENDBRANCH  22  29
ENDBRANCH   1  23
TORSDOF 5
ENDMDL
MODEL 4
REMARK VINA RESULT:      -7.5      4.484      7.608
REMARK  Name = 
REMARK  7 active torsions:
REMARK  status: ('A' for Active; 'I' for Inactive)
REMARK    1  A    between atoms: C_1  and  O_2
REMARK    2  A    between atoms: O_2  and  C_3
REMARK    3  A    between atoms: C_6  and  N_7
REMARK    4  A    between atoms: C_8  and  C_10
REMARK    5  A    between atoms: C_10  and  C_11
REMARK    6  A    between atoms: C_14  and  C_15
REMARK    7  A    between atoms: C_19  and  C_20
REMARK                            x       y       z     vdW  Elec       q    Type
REMARK                         _______ _______ _______ _____ _____    ______ ____
ROOT
ATOM      1  C   UNL     1       1.779   5.592  20.601  0.00  0.00    +0.000 C 
ATOM      2  C   UNL     1       0.419   4.985  20.189  0.00  0.00    +0.000 C 
ATOM      3  C   UNL     1       2.809   5.704  19.460  0.00  0.00    +0.000 C 
ATOM      4  C   UNL     1       3.527   4.436  19.552  0.00  0.00    +0.000 A 
ATOM      5  C   UNL     1       4.534   3.912  18.747  0.00  0.00    +0.000 A 
ATOM      6  C   UNL     1       4.826   2.570  19.002  0.00  0.00    +0.000 A 
ATOM      7  C   UNL     1       4.222   1.930  20.098  0.00  0.00    +0.000 A 
ATOM      8  N   UNL     1       3.412   2.541  21.006  0.00  0.00    +0.000 NA
ATOM      9  C   UNL     1       3.103   3.800  20.695  0.00  0.00    +0.000 A 
ATOM     10  O   UNL     1       2.333   4.650  21.528  0.00  0.00    +0.000 OA
ENDROOT
BRANCH   5  11
ATOM     11  C   UNL     1       5.375   4.804  17.892  0.00  0.00    +0.000 A 
ATOM     12  C   UNL     1       6.183   5.826  18.424  0.00  0.00    +0.000 A 
ATOM     13  C   UNL     1       7.264   6.363  17.722  0.00  0.00    +0.000 A 
ATOM     14  C   UNL     1       7.504   5.974  16.411  0.00  0.00    +0.000 A 
ATOM     15  C   UNL     1       6.638   5.071  15.792  0.00  0.00    +0.000 A 
ATOM     16  C   UNL     1       5.590   4.490  16.537  0.00  0.00    +0.000 A 
BRANCH  15  17
ATOM     17  C   UNL     1       6.793   4.653  14.372  0.00  0.00    +0.000 C 
ATOM     18  N   UNL     1       6.235   3.473  13.966  0.00  0.00    +0.000 N 
ATOM     19  O   UNL     1       7.416   5.343  13.576  0.00  0.00    +0.000 OA
ATOM     20  H   UNL     1       5.698   2.848  14.544  0.00  0.00    +0.000 HD
ATOM     21  H   UNL     1       6.363   3.221  12.994  0.00  0.00    +0.000 HD
ENDBRANCH  15  17
ENDBRANCH   5  11
BRANCH   1  23
ATOM     22  N   UNL     1       0.430   7.531  21.580  0.00  0.00    +0.000 N 
ATOM     23  C   UNL     1       1.469   7.118  20.782  0.00  0.00    +0.000 C 
ATOM     24  O   UNL     1       2.141   7.907  20.103  0.00  0.00    +0.000 OA
ATOM     25  H   UNL     1      -0.085   6.828  22.099  0.00  0.00    +0.000 HD
BRANCH  22  29
ATOM     26  C   UNL     1      -0.763  11.511  22.192  0.00  0.00    +0.000 A 
ATOM     27  C   UNL     1      -0.711  11.059  20.891  0.00  0.00    +0.000 A 
ATOM     28  C   UNL     1      -0.304   9.746  20.664  0.00  0.00    +0.000 A 
ATOM     29  C   UNL     1       0.040   8.901  21.727  0.00  0.00    +0.000 A 
ATOM     30  C   UNL     1      -0.036   9.472  22.996  0.00  0.00    +0.000 A 
ATOM     31  N   UNL     1      -0.427  10.751  23.256  0.00  0.00    +0.000 NA
BRANCH  26  33
ATOM     32  C   UNL     1      -1.315  13.520  21.129  0.00  0.00    +0.000 C 
ATOM     33  O   UNL     1      -1.189  12.813  22.355  0.00  0.00    +0.000 OA
ENDBRANCH  26  33
ENDBRANCH  22  29
ENDBRANCH   1  23
TORSDOF 5
ENDMDL
MODEL 5
REMARK VINA RESULT:      -7.4      5.375      9.799
REMARK  Name = 
REMARK  7 active torsions:
REMARK  status: ('A' for Active; 'I' for Inactive)
REMARK    1  A    between atoms: C_1  and  O_2
REMARK    2  A    between atoms: O_2  and  C_3
REMARK    3  A    between atoms: C_6  and  N_7
REMARK    4  A    between atoms: C_8  and  C_10
REMARK    5  A    between atoms: C_10  and  C_11
REMARK    6  A    between atoms: C_14  and  C_15
REMARK    7  A    between atoms: C_19  and  C_20
REMARK                            x       y       z     vdW  Elec       q    Type
REMARK                         _______ _______ _______ _____ _____    ______ ____
ROOT
ATOM      1  C   UNL     1      -0.711  12.078  21.786  0.00  0.00    +0.000 C 
ATOM      2  C   UNL     1       0.050  13.401  22.024  0.00  0.00    +0.000 C 
ATOM      3  C   UNL     1      -1.739  12.119  20.638  0.00  0.00    +0.000 C 
ATOM      4  C   UNL     1      -2.966  12.517  21.323  0.00  0.00    +0.000 A 
ATOM      5  C   UNL     1      -4.232  12.791  20.813  0.00  0.00    +0.000 A 
ATOM      6  C   UNL     1      -5.107  13.364  21.740  0.00  0.00    +0.000 A 
ATOM      7  C   UNL     1      -4.713  13.469  23.084  0.00  0.00    +0.000 A 
ATOM      8  N   UNL     1      -3.550  12.978  23.596  0.00  0.00    +0.000 NA
ATOM      9  C   UNL     1      -2.712  12.501  22.674  0.00  0.00    +0.000 A 
ATOM     10  O   UNL     1      -1.477  11.878  22.981  0.00  0.00    +0.000 OA
ENDROOT
BRANCH   5  11
ATOM     11  C   UNL     1      -4.653  12.266  19.479  0.00  0.00    +0.000 A 
ATOM     12  C   UNL     1      -5.881  12.605  18.882  0.00  0.00    +0.000 A 
ATOM     13  C   UNL     1      -6.100  12.484  17.508  0.00  0.00    +0.000 A 
ATOM     14  C   UNL     1      -5.131  11.910  16.697  0.00  0.00    +0.000 A 
ATOM     15  C   UNL     1      -3.955  11.423  17.270  0.00  0.00    +0.000 A 
ATOM     16  C   UNL     1      -3.723  11.612  18.649  0.00  0.00    +0.000 A 
BRANCH  15  17
ATOM     17  C   UNL     1      -2.897  10.740  16.477  0.00  0.00    +0.000 C 
ATOM     18  N   UNL     1      -2.019   9.912  17.121  0.00  0.00    +0.000 N 
ATOM     19  O   UNL     1      -2.800  10.916  15.270  0.00  0.00    +0.000 OA
ATOM     20  H   UNL     1      -2.028   9.699  18.105  0.00  0.00    +0.000 HD
ATOM     21  H   UNL     1      -1.313   9.467  16.549  0.00  0.00    +0.000 HD
ENDBRANCH  15  17
ENDBRANCH   5  11
BRANCH   1  23
ATOM     22  N   UNL     1      -0.004  10.307  20.083  0.00  0.00    +0.000 N 
ATOM     23  C   UNL     1       0.355  11.150  21.107  0.00  0.00    +0.000 C 
ATOM     24  O   UNL     1       1.492  11.154  21.598  0.00  0.00    +0.000 OA
ATOM     25  H   UNL     1      -0.957  10.350  19.738  0.00  0.00    +0.000 HD
BRANCH  22  29
ATOM     26  C   UNL     1       2.696   7.529  18.460  0.00  0.00    +0.000 A 
ATOM     27  C   UNL     1       2.255   8.541  17.634  0.00  0.00    +0.000 A 
ATOM     28  C   UNL     1       1.349   9.465  18.148  0.00  0.00    +0.000 A 
ATOM     29  C   UNL     1       0.896   9.376  19.471  0.00  0.00    +0.000 A 
ATOM     30  C   UNL     1       1.398   8.304  20.206  0.00  0.00    +0.000 A 
ATOM     31  N   UNL     1       2.282   7.381  19.737  0.00  0.00    +0.000 NA
BRANCH  26  33
ATOM     32  C   UNL     1       3.144   5.312  17.869  0.00  0.00    +0.000 C 
ATOM     33  O   UNL     1       3.604   6.655  17.901  0.00  0.00    +0.000 OA
ENDBRANCH  26  33
ENDBRANCH  22  29
ENDBRANCH   1  23
TORSDOF 5
ENDMDL
MODEL 6
REMARK VINA RESULT:      -7.3      4.361      7.683
REMARK  Name = 
REMARK  7 active torsions:
REMARK  status: ('A' for Active; 'I' for Inactive)
REMARK    1  A    between atoms: C_1  and  O_2
REMARK    2  A    between atoms: O_2  and  C_3
REMARK    3  A    between atoms: C_6  and  N_7
REMARK    4  A    between atoms: C_8  and  C_10
REMARK    5  A    between atoms: C_10  and  C_11
REMARK    6  A    between atoms: C_14  and  C_15
REMARK    7  A    between atoms: C_19  and  C_20
REMARK                            x       y       z     vdW  Elec       q    Type
REMARK                         _______ _______ _______ _____ _____    ______ ____
ROOT
ATOM      1  C   UNL     1       1.748   5.601  20.612  0.00  0.00    +0.000 C 
ATOM      2  C   UNL     1       0.393   4.982  20.203  0.00  0.00    +0.000 C 
ATOM      3  C   UNL     1       2.765   5.747  19.462  0.00  0.00    +0.000 C 
ATOM      4  C   UNL     1       3.502   4.487  19.528  0.00  0.00    +0.000 A 
ATOM      5  C   UNL     1       4.509   3.991  18.704  0.00  0.00    +0.000 A 
ATOM      6  C   UNL     1       4.823   2.649  18.935  0.00  0.00    +0.000 A 
ATOM      7  C   UNL     1       4.239   1.984  20.026  0.00  0.00    +0.000 A 
ATOM      8  N   UNL     1       3.429   2.568  20.952  0.00  0.00    +0.000 NA
ATOM      9  C   UNL     1       3.098   3.827  20.664  0.00  0.00    +0.000 A 
ATOM     10  O   UNL     1       2.325   4.653  21.517  0.00  0.00    +0.000 OA
ENDROOT
BRANCH   5  11
ATOM     11  C   UNL     1       5.328   4.908  17.855  0.00  0.00    +0.000 A 
ATOM     12  C   UNL     1       6.062   5.984  18.389  0.00  0.00    +0.000 A 
ATOM     13  C   UNL     1       7.135   6.564  17.709  0.00  0.00    +0.000 A 
ATOM     14  C   UNL     1       7.439   6.160  16.416  0.00  0.00    +0.000 A 
ATOM     15  C   UNL     1       6.643   5.198  15.790  0.00  0.00    +0.000 A 
ATOM     16  C   UNL     1       5.604   4.577  16.516  0.00  0.00    +0.000 A 
BRANCH  15  17
ATOM     17  C   UNL     1       6.867   4.758  14.386  0.00  0.00    +0.000 C 
ATOM     18  N   UNL     1       7.787   5.424  13.624  0.00  0.00    +0.000 N 
ATOM     19  O   UNL     1       6.238   3.824  13.910  0.00  0.00    +0.000 OA
ATOM     20  H   UNL     1       8.358   6.194  13.933  0.00  0.00    +0.000 HD
ATOM     21  H   UNL     1       7.911   5.098  12.674  0.00  0.00    +0.000 HD
ENDBRANCH  15  17
ENDBRANCH   5  11
BRANCH   1  23
ATOM     22  N   UNL     1       0.258   7.504  21.446  0.00  0.00    +0.000 N 
ATOM     23  C   UNL     1       1.418   7.120  20.819  0.00  0.00    +0.000 C 
ATOM     24  O   UNL     1       2.201   7.935  20.312  0.00  0.00    +0.000 OA
ATOM     25  H   UNL     1      -0.343   6.781  21.829  0.00  0.00    +0.000 HD
BRANCH  22  29
ATOM     26  C   UNL     1      -0.852  11.545  21.724  0.00  0.00    +0.000 A 
ATOM     27  C   UNL     1      -0.744  10.836  22.901  0.00  0.00    +0.000 A 
ATOM     28  C   UNL     1      -0.391   9.491  22.831  0.00  0.00    +0.000 A 
ATOM     29  C   UNL     1      -0.146   8.869  21.599  0.00  0.00    +0.000 A 
ATOM     30  C   UNL     1      -0.301   9.681  20.477  0.00  0.00    +0.000 A 
ATOM     31  N   UNL     1      -0.647  10.998  20.506  0.00  0.00    +0.000 NA
BRANCH  26  33
ATOM     32  C   UNL     1      -1.285  13.298  23.210  0.00  0.00    +0.000 C 
ATOM     33  O   UNL     1      -1.189  12.876  21.857  0.00  0.00    +0.000 OA
ENDBRANCH  26  33
ENDBRANCH  22  29
ENDBRANCH   1  23
TORSDOF 5
ENDMDL
MODEL 7
REMARK VINA RESULT:      -7.2      6.380     10.617
REMARK  Name = 
REMARK  7 active torsions:
REMARK  status: ('A' for Active; 'I' for Inactive)
REMARK    1  A    between atoms: C_1  and  O_2
REMARK    2  A    between atoms: O_2  and  C_3
REMARK    3  A    between atoms: C_6  and  N_7
REMARK    4  A    between atoms: C_8  and  C_10
REMARK    5  A    between atoms: C_10  and  C_11
REMARK    6  A    between atoms: C_14  and  C_15
REMARK    7  A    between atoms: C_19  and  C_20
REMARK                            x       y       z     vdW  Elec       q    Type
REMARK                         _______ _______ _______ _____ _____    ______ ____
ROOT
ATOM      1  C   UNL     1      -0.689  12.911  22.069  0.00  0.00    +0.000 C 
ATOM      2  C   UNL     1       0.042  14.270  21.994  0.00  0.00    +0.000 C 
ATOM      3  C   UNL     1      -1.936  12.797  21.168  0.00  0.00    +0.000 C 
ATOM      4  C   UNL     1      -3.009  13.244  22.052  0.00  0.00    +0.000 A 
ATOM      5  C   UNL     1      -4.365  13.430  21.796  0.00  0.00    +0.000 A 
ATOM      6  C   UNL     1      -5.052  14.087  22.821  0.00  0.00    +0.000 A 
ATOM      7  C   UNL     1      -4.390  14.355  24.031  0.00  0.00    +0.000 A 
ATOM      8  N   UNL     1      -3.125  13.952  24.333  0.00  0.00    +0.000 NA
ATOM      9  C   UNL     1      -2.478  13.390  23.312  0.00  0.00    +0.000 A 
ATOM     10  O   UNL     1      -1.178  12.834  23.413  0.00  0.00    +0.000 OA
ENDROOT
BRANCH   5  11
ATOM     11  C   UNL     1      -5.031  12.745  20.647  0.00  0.00    +0.000 A 
ATOM     12  C   UNL     1      -4.576  12.869  19.322  0.00  0.00    +0.000 A 
ATOM     13  C   UNL     1      -4.896  11.936  18.333  0.00  0.00    +0.000 A 
ATOM     14  C   UNL     1      -5.782  10.904  18.613  0.00  0.00    +0.000 A 
ATOM     15  C   UNL     1      -6.374  10.828  19.874  0.00  0.00    +0.000 A 
ATOM     16  C   UNL     1      -5.988  11.740  20.879  0.00  0.00    +0.000 A 
BRANCH  15  17
ATOM     17  C   UNL     1      -7.378   9.788  20.230  0.00  0.00    +0.000 C 
ATOM     18  N   UNL     1      -7.702   8.838  19.302  0.00  0.00    +0.000 N 
ATOM     19  O   UNL     1      -7.916   9.781  21.329  0.00  0.00    +0.000 OA
ATOM     20  H   UNL     1      -7.304   8.758  18.380  0.00  0.00    +0.000 HD
ATOM     21  H   UNL     1      -8.389   8.149  19.579  0.00  0.00    +0.000 HD
ENDBRANCH  15  17
ENDBRANCH   5  11
BRANCH   1  23
ATOM     22  N   UNL     1      -0.195  10.696  20.893  0.00  0.00    +0.000 N 
ATOM     23  C   UNL     1       0.252  11.935  21.282  0.00  0.00    +0.000 C 
ATOM     24  O   UNL     1       1.424  12.301  21.119  0.00  0.00    +0.000 OA
ATOM     25  H   UNL     1      -1.165  10.458  21.069  0.00  0.00    +0.000 HD
BRANCH  22  29
ATOM     26  C   UNL     1       2.161   7.903  18.822  0.00  0.00    +0.000 A 
ATOM     27  C   UNL     1       1.896   7.646  20.150  0.00  0.00    +0.000 A 
ATOM     28  C   UNL     1       1.128   8.567  20.859  0.00  0.00    +0.000 A 
ATOM     29  C   UNL     1       0.632   9.723  20.243  0.00  0.00    +0.000 A 
ATOM     30  C   UNL     1       0.977   9.884  18.903  0.00  0.00    +0.000 A 
ATOM     31  N   UNL     1       1.726   9.008  18.178  0.00  0.00    +0.000 NA
BRANCH  26  33
ATOM     32  C   UNL     1       2.329   5.654  18.203  0.00  0.00    +0.000 C 
ATOM     33  O   UNL     1       2.912   6.949  18.168  0.00  0.00    +0.000 OA
ENDBRANCH  26  33
ENDBRANCH  22  29
ENDBRANCH   1  23
TORSDOF 5
ENDMDL
MODEL 8
REMARK VINA RESULT:      -7.2      6.158     10.647
REMARK  Name = 
REMARK  7 active torsions:
REMARK  status: ('A' for Active; 'I' for Inactive)
REMARK    1  A    between atoms: C_1  and  O_2
REMARK    2  A    between atoms: O_2  and  C_3
REMARK    3  A    between atoms: C_6  and  N_7
REMARK    4  A    between atoms: C_8  and  C_10
REMARK    5  A    between atoms: C_10  and  C_11
REMARK    6  A    between atoms: C_14  and  C_15
REMARK    7  A    between atoms: C_19  and  C_20
REMARK                            x       y       z     vdW  Elec       q    Type
REMARK                         _______ _______ _______ _____ _____    ______ ____
ROOT
ATOM      1  C   UNL     1      -1.982  12.222  22.741  0.00  0.00    +0.000 C 
ATOM      2  C   UNL     1      -1.189  13.501  23.090  0.00  0.00    +0.000 C 
ATOM      3  C   UNL     1      -2.764  12.287  21.414  0.00  0.00    +0.000 C 
ATOM      4  C   UNL     1      -4.068  12.790  21.837  0.00  0.00    +0.000 A 
ATOM      5  C   UNL     1      -5.189  13.128  21.083  0.00  0.00    +0.000 A 
ATOM      6  C   UNL     1      -6.183  13.792  21.807  0.00  0.00    +0.000 A 
ATOM      7  C   UNL     1      -6.048  13.921  23.200  0.00  0.00    +0.000 A 
ATOM      8  N   UNL     1      -5.044  13.375  23.940  0.00  0.00    +0.000 NA
ATOM      9  C   UNL     1      -4.082  12.809  23.211  0.00  0.00    +0.000 A 
ATOM     10  O   UNL     1      -2.976  12.118  23.768  0.00  0.00    +0.000 OA
ENDROOT
BRANCH   5  11
ATOM     11  C   UNL     1      -5.381  12.581  19.705  0.00  0.00    +0.000 A 
ATOM     12  C   UNL     1      -6.456  12.961  18.881  0.00  0.00    +0.000 A 
ATOM     13  C   UNL     1      -6.421  12.807  17.493  0.00  0.00    +0.000 A 
ATOM     14  C   UNL     1      -5.351  12.159  16.892  0.00  0.00    +0.000 A 
ATOM     15  C   UNL     1      -4.330  11.634  17.687  0.00  0.00    +0.000 A 
ATOM     16  C   UNL     1      -4.350  11.856  19.080  0.00  0.00    +0.000 A 
BRANCH  15  17
ATOM     17  C   UNL     1      -3.181  10.874  17.123  0.00  0.00    +0.000 C 
ATOM     18  N   UNL     1      -2.301  11.522  16.301  0.00  0.00    +0.000 N 
ATOM     19  O   UNL     1      -3.024   9.687  17.377  0.00  0.00    +0.000 OA
ATOM     20  H   UNL     1      -2.343  12.494  16.046  0.00  0.00    +0.000 HD
ATOM     21  H   UNL     1      -1.534  10.972  15.935  0.00  0.00    +0.000 HD
ENDBRANCH  15  17
ENDBRANCH   5  11
BRANCH   1  23
ATOM     22  N   UNL     1      -0.838  10.716  21.021  0.00  0.00    +0.000 N 
ATOM     23  C   UNL     1      -0.875  11.201  22.305  0.00  0.00    +0.000 C 
ATOM     24  O   UNL     1      -0.111  10.795  23.192  0.00  0.00    +0.000 OA
ATOM     25  H   UNL     1      -1.502  11.086  20.349  0.00  0.00    +0.000 HD
BRANCH  22  29
ATOM     26  C   UNL     1       1.912   7.750  19.891  0.00  0.00    +0.000 A 
ATOM     27  C   UNL     1       1.728   8.805  19.024  0.00  0.00    +0.000 A 
ATOM     28  C   UNL     1       0.810   9.793  19.373  0.00  0.00    +0.000 A 
ATOM     29  C   UNL     1       0.092   9.724  20.574  0.00  0.00    +0.000 A 
ATOM     30  C   UNL     1       0.350   8.604  21.362  0.00  0.00    +0.000 A 
ATOM     31  N   UNL     1       1.237   7.618  21.054  0.00  0.00    +0.000 NA
BRANCH  26  33
ATOM     32  C   UNL     1       3.060   6.785  18.097  0.00  0.00    +0.000 C 
ATOM     33  O   UNL     1       2.845   6.811  19.501  0.00  0.00    +0.000 OA
ENDBRANCH  26  33
ENDBRANCH  22  29
ENDBRANCH   1  23
TORSDOF 5
ENDMDL
MODEL 9
REMARK VINA RESULT:      -7.2      5.717     10.148
REMARK  Name = 
REMARK  7 active torsions:
REMARK  status: ('A' for Active; 'I' for Inactive)
REMARK    1  A    between atoms: C_1  and  O_2
REMARK    2  A    between atoms: O_2  and  C_3
REMARK    3  A    between atoms: C_6  and  N_7
REMARK    4  A    between atoms: C_8  and  C_10
REMARK    5  A    between atoms: C_10  and  C_11
REMARK    6  A    between atoms: C_14  and  C_15
REMARK    7  A    between atoms: C_19  and  C_20
REMARK                            x       y       z     vdW  Elec       q    Type
REMARK                         _______ _______ _______ _____ _____    ______ ____
ROOT
ATOM      1  C   UNL     1      -1.296  12.096  22.242  0.00  0.00    +0.000 C 
ATOM      2  C   UNL     1      -0.554  13.406  22.588  0.00  0.00    +0.000 C 
ATOM      3  C   UNL     1      -2.257  12.196  21.040  0.00  0.00    +0.000 C 
ATOM      4  C   UNL     1      -3.522  12.558  21.673  0.00  0.00    +0.000 A 
ATOM      5  C   UNL     1      -4.758  12.859  21.106  0.00  0.00    +0.000 A 
ATOM      6  C   UNL     1      -5.686  13.384  22.009  0.00  0.00    +0.000 A 
ATOM      7  C   UNL     1      -5.369  13.421  23.378  0.00  0.00    +0.000 A 
ATOM      8  N   UNL     1      -4.235  12.905  23.929  0.00  0.00    +0.000 NA
ATOM      9  C   UNL     1      -3.346  12.474  23.034  0.00  0.00    +0.000 A 
ATOM     10  O   UNL     1      -2.128  11.836  23.379  0.00  0.00    +0.000 OA
ENDROOT
BRANCH   5  11
ATOM     11  C   UNL     1      -5.100  12.401  19.725  0.00  0.00    +0.000 A 
ATOM     12  C   UNL     1      -6.266  12.817  19.055  0.00  0.00    +0.000 A 
ATOM     13  C   UNL     1      -6.387  12.756  17.665  0.00  0.00    +0.000 A 
ATOM     14  C   UNL     1      -5.386  12.168  16.905  0.00  0.00    +0.000 A 
ATOM     15  C   UNL     1      -4.277  11.608  17.542  0.00  0.00    +0.000 A 
ATOM     16  C   UNL     1      -4.141  11.737  18.940  0.00  0.00    +0.000 A 
BRANCH  15  17
ATOM     17  C   UNL     1      -3.193  10.907  16.801  0.00  0.00    +0.000 C 
ATOM     18  N   UNL     1      -2.918  11.287  15.516  0.00  0.00    +0.000 N 
ATOM     19  O   UNL     1      -2.560   9.998  17.320  0.00  0.00    +0.000 OA
ATOM     20  H   UNL     1      -3.377  12.028  15.013  0.00  0.00    +0.000 HD
ATOM     21  H   UNL     1      -2.176  10.787  15.044  0.00  0.00    +0.000 HD
ENDBRANCH  15  17
ENDBRANCH   5  11
BRANCH   1  23
ATOM     22  N   UNL     1      -0.268  10.869  20.248  0.00  0.00    +0.000 N 
ATOM     23  C   UNL     1      -0.191  11.203  21.578  0.00  0.00    +0.000 C 
ATOM     24  O   UNL     1       0.685  10.751  22.328  0.00  0.00    +0.000 OA
ATOM     25  H   UNL     1      -1.020  11.268  19.696  0.00  0.00    +0.000 HD
BRANCH  22  29
ATOM     26  C   UNL     1       2.400   8.381  18.168  0.00  0.00    +0.000 A 
ATOM     27  C   UNL     1       1.992   7.966  19.418  0.00  0.00    +0.000 A 
ATOM     28  C   UNL     1       1.118   8.784  20.131  0.00  0.00    +0.000 A 
ATOM     29  C   UNL     1       0.659   9.994  19.595  0.00  0.00    +0.000 A 
ATOM     30  C   UNL     1       1.151  10.316  18.332  0.00  0.00    +0.000 A 
ATOM     31  N   UNL     1       2.007   9.545  17.607  0.00  0.00    +0.000 NA
BRANCH  26  33
ATOM     32  C   UNL     1       3.597   6.375  18.263  0.00  0.00    +0.000 C 
ATOM     33  O   UNL     1       3.253   7.524  17.504  0.00  0.00    +0.000 OA
ENDBRANCH  26  33
ENDBRANCH  22  29
ENDBRANCH   1  23
TORSDOF 5
ENDMDL
