MODEL 1
REMARK VINA RESULT:      -6.9      0.000      0.000
REMARK  Name = 
REMARK  9 active torsions:
REMARK  status: ('A' for Active; 'I' for Inactive)
REMARK    1  A    between atoms: C_1  and  C_2
REMARK    2  A    between atoms: C_2  and  C_3
REMARK    3  A    between atoms: C_2  and  C_4
REMARK    4  A    between atoms: C_6  and  C_7
REMARK    5  A    between atoms: C_7  and  C_8
REMARK    6  A    between atoms: C_7  and  C_9
REMARK    7  A    between atoms: C_11  and  C_12
REMARK    8  A    between atoms: C_12  and  C_13
REMARK    9  A    between atoms: C_12  and  C_14
REMARK                            x       y       z     vdW  Elec       q    Type
REMARK                         _______ _______ _______ _____ _____    ______ ____
ROOT
ATOM      1  C   UNL     1       4.832   5.180  16.586  0.00  0.00    +0.000 A 
ATOM      2  C   UNL     1       4.329   6.362  17.152  0.00  0.00    +0.000 A 
ATOM      3  C   UNL     1       3.177   6.354  17.953  0.00  0.00    +0.000 A 
ATOM      4  C   UNL     1       2.506   5.136  18.154  0.00  0.00    +0.000 A 
ATOM      5  C   UNL     1       2.979   3.939  17.592  0.00  0.00    +0.000 A 
ATOM      6  C   UNL     1       4.137   3.977  16.809  0.00  0.00    +0.000 A 
ENDROOT
BRANCH   1   8
ATOM      7  C   UNL     1       7.288   4.639  16.656  0.00  0.00    +0.000 C 
ATOM      8  C   UNL     1       6.141   5.201  15.809  0.00  0.00    +0.000 C 
ATOM      9  C   UNL     1       6.034   4.456  14.478  0.00  0.00    +0.000 C 
ENDBRANCH   1   8
BRANCH   3  10
ATOM     10  C   UNL     1       2.728   7.635  18.640  0.00  0.00    +0.000 C 
ATOM     11  C   UNL     1       1.846   8.505  17.745  0.00  0.00    +0.000 C 
ATOM     12  C   UNL     1       2.018   7.331  19.963  0.00  0.00    +0.000 C 
ENDBRANCH   3  10
BRANCH   5  13
ATOM     13  C   UNL     1       2.258   2.630  17.866  0.00  0.00    +0.000 C 
ATOM     14  C   UNL     1       3.200   1.562  18.427  0.00  0.00    +0.000 C 
ATOM     15  C   UNL     1       1.056   2.831  18.797  0.00  0.00    +0.000 C 
ENDBRANCH   5  13
TORSDOF 3
ENDMDL
MODEL 2
REMARK VINA RESULT:      -6.9      0.082      4.896
REMARK  Name = 
REMARK  9 active torsions:
REMARK  status: ('A' for Active; 'I' for Inactive)
REMARK    1  A    between atoms: C_1  and  C_2
REMARK    2  A    between atoms: C_2  and  C_3
REMARK    3  A    between atoms: C_2  and  C_4
REMARK    4  A    between atoms: C_6  and  C_7
REMARK    5  A    between atoms: C_7  and  C_8
REMARK    6  A    between atoms: C_7  and  C_9
REMARK    7  A    between atoms: C_11  and  C_12
REMARK    8  A    between atoms: C_12  and  C_13
REMARK    9  A    between atoms: C_12  and  C_14
REMARK                            x       y       z     vdW  Elec       q    Type
REMARK                         _______ _______ _______ _____ _____    ______ ____
ROOT
ATOM      1  C   UNL     1       3.198   6.334  17.958  0.00  0.00    +0.000 A 
ATOM      2  C   UNL     1       2.507   5.127  18.146  0.00  0.00    +0.000 A 
ATOM      3  C   UNL     1       2.959   3.930  17.569  0.00  0.00    +0.000 A 
ATOM      4  C   UNL     1       4.108   3.966  16.762  0.00  0.00    +0.000 A 
ATOM      5  C   UNL     1       4.814   5.160  16.545  0.00  0.00    +0.000 A 
ATOM      6  C   UNL     1       4.347   6.334  17.144  0.00  0.00    +0.000 A 
ENDROOT
BRANCH   1   8
ATOM      7  C   UNL     1       1.895   8.476  17.761  0.00  0.00    +0.000 C 
ATOM      8  C   UNL     1       2.746   7.595  18.680  0.00  0.00    +0.000 C 
ATOM      9  C   UNL     1       1.998   7.281  19.977  0.00  0.00    +0.000 C 
ENDBRANCH   1   8
BRANCH   3  10
ATOM     10  C   UNL     1       2.247   2.624  17.889  0.00  0.00    +0.000 C 
ATOM     11  C   UNL     1       3.187   1.567  18.468  0.00  0.00    +0.000 C 
ATOM     12  C   UNL     1       1.059   2.861  18.827  0.00  0.00    +0.000 C 
ENDBRANCH   3  10
BRANCH   5  13
ATOM     13  C   UNL     1       6.080   5.156  15.705  0.00  0.00    +0.000 C 
ATOM     14  C   UNL     1       7.291   4.652  16.493  0.00  0.00    +0.000 C 
ATOM     15  C   UNL     1       5.901   4.345  14.416  0.00  0.00    +0.000 C 
ENDBRANCH   5  13
TORSDOF 3
ENDMDL
MODEL 3
REMARK VINA RESULT:      -6.8      0.250      4.953
REMARK  Name = 
REMARK  9 active torsions:
REMARK  status: ('A' for Active; 'I' for Inactive)
REMARK    1  A    between atoms: C_1  and  C_2
REMARK    2  A    between atoms: C_2  and  C_3
REMARK    3  A    between atoms: C_2  and  C_4
REMARK    4  A    between atoms: C_6  and  C_7
REMARK    5  A    between atoms: C_7  and  C_8
REMARK    6  A    between atoms: C_7  and  C_9
REMARK    7  A    between atoms: C_11  and  C_12
REMARK    8  A    between atoms: C_12  and  C_13
REMARK    9  A    between atoms: C_12  and  C_14
REMARK                            x       y       z     vdW  Elec       q    Type
REMARK                         _______ _______ _______ _____ _____    ______ ____
ROOT
ATOM      1  C   UNL     1       2.785   4.072  17.737  0.00  0.00    +0.000 A 
ATOM      2  C   UNL     1       3.948   4.054  16.952  0.00  0.00    +0.000 A 
ATOM      3  C   UNL     1       4.694   5.221  16.725  0.00  0.00    +0.000 A 
ATOM      4  C   UNL     1       4.233   6.430  17.273  0.00  0.00    +0.000 A 
ATOM      5  C   UNL     1       3.066   6.483  18.053  0.00  0.00    +0.000 A 
ATOM      6  C   UNL     1       2.352   5.300  18.273  0.00  0.00    +0.000 A 
ENDROOT
BRANCH   1   8
ATOM      7  C   UNL     1       3.048   1.651  18.364  0.00  0.00    +0.000 C 
ATOM      8  C   UNL     1       2.055   2.775  18.054  0.00  0.00    +0.000 C 
ATOM      9  C   UNL     1       1.050   2.941  19.195  0.00  0.00    +0.000 C 
ENDBRANCH   1   8
BRANCH   3  10
ATOM     10  C   UNL     1       6.008   5.139  15.963  0.00  0.00    +0.000 C 
ATOM     11  C   UNL     1       7.149   4.585  16.815  0.00  0.00    +0.000 C 
ATOM     12  C   UNL     1       5.849   4.321  14.678  0.00  0.00    +0.000 C 
ENDBRANCH   3  10
BRANCH   5  13
ATOM     13  C   UNL     1       2.620   7.797  18.671  0.00  0.00    +0.000 C 
ATOM     14  C   UNL     1       1.717   8.597  17.730  0.00  0.00    +0.000 C 
ATOM     15  C   UNL     1       1.930   7.579  20.023  0.00  0.00    +0.000 C 
ENDBRANCH   5  13
TORSDOF 3
ENDMDL
MODEL 4
REMARK VINA RESULT:      -6.8      0.455      4.820
REMARK  Name = 
REMARK  9 active torsions:
REMARK  status: ('A' for Active; 'I' for Inactive)
REMARK    1  A    between atoms: C_1  and  C_2
REMARK    2  A    between atoms: C_2  and  C_3
REMARK    3  A    between atoms: C_2  and  C_4
REMARK    4  A    between atoms: C_6  and  C_7
REMARK    5  A    between atoms: C_7  and  C_8
REMARK    6  A    between atoms: C_7  and  C_9
REMARK    7  A    between atoms: C_11  and  C_12
REMARK    8  A    between atoms: C_12  and  C_13
REMARK    9  A    between atoms: C_12  and  C_14
REMARK                            x       y       z     vdW  Elec       q    Type
REMARK                         _______ _______ _______ _____ _____    ______ ____
ROOT
ATOM      1  C   UNL     1       2.929   3.788  17.599  0.00  0.00    +0.000 A 
ATOM      2  C   UNL     1       4.182   3.976  16.996  0.00  0.00    +0.000 A 
ATOM      3  C   UNL     1       4.749   5.254  16.870  0.00  0.00    +0.000 A 
ATOM      4  C   UNL     1       4.016   6.360  17.331  0.00  0.00    +0.000 A 
ATOM      5  C   UNL     1       2.754   6.207  17.927  0.00  0.00    +0.000 A 
ATOM      6  C   UNL     1       2.222   4.919  18.051  0.00  0.00    +0.000 A 
ENDROOT
BRANCH   1   8
ATOM      7  C   UNL     1       3.474   1.458  18.373  0.00  0.00    +0.000 C 
ATOM      8  C   UNL     1       2.387   2.383  17.817  0.00  0.00    +0.000 C 
ATOM      9  C   UNL     1       1.152   2.374  18.719  0.00  0.00    +0.000 C 
ENDBRANCH   1   8
BRANCH   3  10
ATOM     10  C   UNL     1       6.156   5.403  16.314  0.00  0.00    +0.000 C 
ATOM     11  C   UNL     1       7.202   4.673  17.155  0.00  0.00    +0.000 C 
ATOM     12  C   UNL     1       6.223   4.944  14.854  0.00  0.00    +0.000 C 
ENDBRANCH   3  10
BRANCH   5  13
ATOM     13  C   UNL     1       2.007   7.419  18.458  0.00  0.00    +0.000 C 
ATOM     14  C   UNL     1       2.088   7.521  19.983  0.00  0.00    +0.000 C 
ATOM     15  C   UNL     1       2.500   8.716  17.805  0.00  0.00    +0.000 C 
ENDBRANCH   5  13
TORSDOF 3
ENDMDL
MODEL 5
REMARK VINA RESULT:      -6.8      0.440      4.915
REMARK  Name = 
REMARK  9 active torsions:
REMARK  status: ('A' for Active; 'I' for Inactive)
REMARK    1  A    between atoms: C_1  and  C_2
REMARK    2  A    between atoms: C_2  and  C_3
REMARK    3  A    between atoms: C_2  and  C_4
REMARK    4  A    between atoms: C_6  and  C_7
REMARK    5  A    between atoms: C_7  and  C_8
REMARK    6  A    between atoms: C_7  and  C_9
REMARK    7  A    between atoms: C_11  and  C_12
REMARK    8  A    between atoms: C_12  and  C_13
REMARK    9  A    between atoms: C_12  and  C_14
REMARK                            x       y       z     vdW  Elec       q    Type
REMARK                         _______ _______ _______ _____ _____    ______ ____
ROOT
ATOM      1  C   UNL     1       2.805   6.192  17.869  0.00  0.00    +0.000 A 
ATOM      2  C   UNL     1       2.268   4.901  17.981  0.00  0.00    +0.000 A 
ATOM      3  C   UNL     1       2.990   3.771  17.566  0.00  0.00    +0.000 A 
ATOM      4  C   UNL     1       4.261   3.958  16.997  0.00  0.00    +0.000 A 
ATOM      5  C   UNL     1       4.821   5.238  16.861  0.00  0.00    +0.000 A 
ATOM      6  C   UNL     1       4.082   6.344  17.296  0.00  0.00    +0.000 A 
ENDROOT
BRANCH   1   8
ATOM      7  C   UNL     1       2.137   7.436  19.951  0.00  0.00    +0.000 C 
ATOM      8  C   UNL     1       2.045   7.389  18.422  0.00  0.00    +0.000 C 
ATOM      9  C   UNL     1       2.517   8.708  17.809  0.00  0.00    +0.000 C 
ENDBRANCH   1   8
BRANCH   3  10
ATOM     10  C   UNL     1       2.420   2.382  17.808  0.00  0.00    +0.000 C 
ATOM     11  C   UNL     1       3.435   1.429  18.436  0.00  0.00    +0.000 C 
ATOM     12  C   UNL     1       1.147   2.450  18.659  0.00  0.00    +0.000 C 
ENDBRANCH   3  10
BRANCH   5  13
ATOM     13  C   UNL     1       6.218   5.403  16.285  0.00  0.00    +0.000 C 
ATOM     14  C   UNL     1       7.273   4.676  17.121  0.00  0.00    +0.000 C 
ATOM     15  C   UNL     1       6.283   4.950  14.822  0.00  0.00    +0.000 C 
ENDBRANCH   5  13
TORSDOF 3
ENDMDL
MODEL 6
REMARK VINA RESULT:      -6.8      0.912      5.049
REMARK  Name = 
REMARK  9 active torsions:
REMARK  status: ('A' for Active; 'I' for Inactive)
REMARK    1  A    between atoms: C_1  and  C_2
REMARK    2  A    between atoms: C_2  and  C_3
REMARK    3  A    between atoms: C_2  and  C_4
REMARK    4  A    between atoms: C_6  and  C_7
REMARK    5  A    between atoms: C_7  and  C_8
REMARK    6  A    between atoms: C_7  and  C_9
REMARK    7  A    between atoms: C_11  and  C_12
REMARK    8  A    between atoms: C_12  and  C_13
REMARK    9  A    between atoms: C_12  and  C_14
REMARK                            x       y       z     vdW  Elec       q    Type
REMARK                         _______ _______ _______ _____ _____    ______ ____
ROOT
ATOM      1  C   UNL     1       2.845   6.388  17.965  0.00  0.00    +0.000 A 
ATOM      2  C   UNL     1       2.329   5.083  17.951  0.00  0.00    +0.000 A 
ATOM      3  C   UNL     1       3.130   3.984  17.605  0.00  0.00    +0.000 A 
ATOM      4  C   UNL     1       4.465   4.218  17.233  0.00  0.00    +0.000 A 
ATOM      5  C   UNL     1       5.007   5.513  17.226  0.00  0.00    +0.000 A 
ATOM      6  C   UNL     1       4.187   6.586  17.589  0.00  0.00    +0.000 A 
ENDROOT
BRANCH   1   8
ATOM      7  C   UNL     1       2.007   7.648  19.974  0.00  0.00    +0.000 C 
ATOM      8  C   UNL     1       1.983   7.547  18.446  0.00  0.00    +0.000 C 
ATOM      9  C   UNL     1       2.393   8.875  17.808  0.00  0.00    +0.000 C 
ENDBRANCH   1   8
BRANCH   3  10
ATOM     10  C   UNL     1       2.565   2.576  17.711  0.00  0.00    +0.000 C 
ATOM     11  C   UNL     1       3.575   1.577  18.275  0.00  0.00    +0.000 C 
ATOM     12  C   UNL     1       1.275   2.562  18.537  0.00  0.00    +0.000 C 
ENDBRANCH   3  10
BRANCH   5  13
ATOM     13  C   UNL     1       6.468   5.727  16.865  0.00  0.00    +0.000 C 
ATOM     14  C   UNL     1       6.999   7.063  17.389  0.00  0.00    +0.000 C 
ATOM     15  C   UNL     1       7.346   4.569  17.354  0.00  0.00    +0.000 C 
ENDBRANCH   5  13
TORSDOF 3
ENDMDL
MODEL 7
REMARK VINA RESULT:      -6.7      0.808      1.365
REMARK  Name = 
REMARK  9 active torsions:
REMARK  status: ('A' for Active; 'I' for Inactive)
REMARK    1  A    between atoms: C_1  and  C_2
REMARK    2  A    between atoms: C_2  and  C_3
REMARK    3  A    between atoms: C_2  and  C_4
REMARK    4  A    between atoms: C_6  and  C_7
REMARK    5  A    between atoms: C_7  and  C_8
REMARK    6  A    between atoms: C_7  and  C_9
REMARK    7  A    between atoms: C_11  and  C_12
REMARK    8  A    between atoms: C_12  and  C_13
REMARK    9  A    between atoms: C_12  and  C_14
REMARK                            x       y       z     vdW  Elec       q    Type
REMARK                         _______ _______ _______ _____ _____    ______ ____
ROOT
ATOM      1  C   UNL     1       4.810   5.568  17.037  0.00  0.00    +0.000 A 
ATOM      2  C   UNL     1       4.007   6.640  17.458  0.00  0.00    +0.000 A 
ATOM      3  C   UNL     1       2.717   6.430  17.968  0.00  0.00    +0.000 A 
ATOM      4  C   UNL     1       2.221   5.117  18.018  0.00  0.00    +0.000 A 
ATOM      5  C   UNL     1       2.995   4.024  17.594  0.00  0.00    +0.000 A 
ATOM      6  C   UNL     1       4.282   4.265  17.103  0.00  0.00    +0.000 A 
ENDROOT
BRANCH   1   8
ATOM      7  C   UNL     1       6.887   6.938  17.406  0.00  0.00    +0.000 C 
ATOM      8  C   UNL     1       6.243   5.815  16.587  0.00  0.00    +0.000 C 
ATOM      9  C   UNL     1       7.093   4.545  16.645  0.00  0.00    +0.000 C 
ENDBRANCH   1   8
BRANCH   3  10
ATOM     10  C   UNL     1       1.923   7.605  18.518  0.00  0.00    +0.000 C 
ATOM     11  C   UNL     1       2.003   7.710  20.040  0.00  0.00    +0.000 C 
ATOM     12  C   UNL     1       2.363   8.920  17.864  0.00  0.00    +0.000 C 
ENDBRANCH   3  10
BRANCH   5  13
ATOM     13  C   UNL     1       2.447   2.611  17.706  0.00  0.00    +0.000 C 
ATOM     14  C   UNL     1       3.500   1.627  18.220  0.00  0.00    +0.000 C 
ATOM     15  C   UNL     1       1.189   2.560  18.581  0.00  0.00    +0.000 C 
ENDBRANCH   5  13
TORSDOF 3
ENDMDL
MODEL 8
REMARK VINA RESULT:      -6.7      0.814      4.064
REMARK  Name = 
REMARK  9 active torsions:
REMARK  status: ('A' for Active; 'I' for Inactive)
REMARK    1  A    between atoms: C_1  and  C_2
REMARK    2  A    between atoms: C_2  and  C_3
REMARK    3  A    between atoms: C_2  and  C_4
REMARK    4  A    between atoms: C_6  and  C_7
REMARK    5  A    between atoms: C_7  and  C_8
REMARK    6  A    between atoms: C_7  and  C_9
REMARK    7  A    between atoms: C_11  and  C_12
REMARK    8  A    between atoms: C_12  and  C_13
REMARK    9  A    between atoms: C_12  and  C_14
REMARK                            x       y       z     vdW  Elec       q    Type
REMARK                         _______ _______ _______ _____ _____    ______ ____
ROOT
ATOM      1  C   UNL     1       2.766   6.503  18.092  0.00  0.00    +0.000 A 
ATOM      2  C   UNL     1       4.062   6.706  17.591  0.00  0.00    +0.000 A 
ATOM      3  C   UNL     1       4.834   5.637  17.110  0.00  0.00    +0.000 A 
ATOM      4  C   UNL     1       4.297   4.340  17.172  0.00  0.00    +0.000 A 
ATOM      5  C   UNL     1       3.009   4.104  17.678  0.00  0.00    +0.000 A 
ATOM      6  C   UNL     1       2.258   5.191  18.138  0.00  0.00    +0.000 A 
ENDROOT
BRANCH   1   8
ATOM      7  C   UNL     1       1.917   7.863  20.031  0.00  0.00    +0.000 C 
ATOM      8  C   UNL     1       1.912   7.692  18.509  0.00  0.00    +0.000 C 
ATOM      9  C   UNL     1       2.345   8.985  17.816  0.00  0.00    +0.000 C 
ENDBRANCH   1   8
BRANCH   3  10
ATOM     10  C   UNL     1       6.187   5.912  16.472  0.00  0.00    +0.000 C 
ATOM     11  C   UNL     1       7.064   6.829  17.323  0.00  0.00    +0.000 C 
ATOM     12  C   UNL     1       6.921   4.605  16.155  0.00  0.00    +0.000 C 
ENDBRANCH   3  10
BRANCH   5  13
ATOM     13  C   UNL     1       2.438   2.695  17.687  0.00  0.00    +0.000 C 
ATOM     14  C   UNL     1       3.475   1.659  18.127  0.00  0.00    +0.000 C 
ATOM     15  C   UNL     1       1.179   2.602  18.557  0.00  0.00    +0.000 C 
ENDBRANCH   5  13
TORSDOF 3
ENDMDL
MODEL 9
REMARK VINA RESULT:      -6.7      0.884      4.081
REMARK  Name = 
REMARK  9 active torsions:
REMARK  status: ('A' for Active; 'I' for Inactive)
REMARK    1  A    between atoms: C_1  and  C_2
REMARK    2  A    between atoms: C_2  and  C_3
REMARK    3  A    between atoms: C_2  and  C_4
REMARK    4  A    between atoms: C_6  and  C_7
REMARK    5  A    between atoms: C_7  and  C_8
REMARK    6  A    between atoms: C_7  and  C_9
REMARK    7  A    between atoms: C_11  and  C_12
REMARK    8  A    between atoms: C_12  and  C_13
REMARK    9  A    between atoms: C_12  and  C_14
REMARK                            x       y       z     vdW  Elec       q    Type
REMARK                         _______ _______ _______ _____ _____    ______ ____
ROOT
ATOM      1  C   UNL     1       3.103   4.066  17.737  0.00  0.00    +0.000 A 
ATOM      2  C   UNL     1       2.340   5.158  18.179  0.00  0.00    +0.000 A 
ATOM      3  C   UNL     1       2.846   6.466  18.139  0.00  0.00    +0.000 A 
ATOM      4  C   UNL     1       4.158   6.664  17.677  0.00  0.00    +0.000 A 
ATOM      5  C   UNL     1       4.950   5.592  17.239  0.00  0.00    +0.000 A 
ATOM      6  C   UNL     1       4.413   4.300  17.278  0.00  0.00    +0.000 A 
ENDROOT
BRANCH   1   8
ATOM      7  C   UNL     1       3.515   1.613  18.114  0.00  0.00    +0.000 C 
ATOM      8  C   UNL     1       2.492   2.672  17.692  0.00  0.00    +0.000 C 
ATOM      9  C   UNL     1       1.224   2.571  18.541  0.00  0.00    +0.000 C 
ENDBRANCH   1   8
BRANCH   3  10
ATOM     10  C   UNL     1       1.948   7.633  18.520  0.00  0.00    +0.000 C 
ATOM     11  C   UNL     1       1.905   7.875  20.029  0.00  0.00    +0.000 C 
ATOM     12  C   UNL     1       2.362   8.910  17.782  0.00  0.00    +0.000 C 
ENDBRANCH   3  10
BRANCH   5  13
ATOM     13  C   UNL     1       6.349   5.845  16.700  0.00  0.00    +0.000 C 
ATOM     14  C   UNL     1       7.001   7.068  17.349  0.00  0.00    +0.000 C 
ATOM     15  C   UNL     1       7.245   4.610  16.854  0.00  0.00    +0.000 C 
ENDBRANCH   5  13
TORSDOF 3
ENDMDL
