MODEL 1
REMARK VINA RESULT:      -6.2      0.000      0.000
REMARK  Name = 
REMARK  6 active torsions:
REMARK  status: ('A' for Active; 'I' for Inactive)
REMARK    1  A    between atoms: C_1  and  O_2
REMARK    2  A    between atoms: O_2  and  C_3
REMARK    3  A    between atoms: C_3  and  C_4
REMARK    4  A    between atoms: N_10  and  C_11
REMARK    5  A    between atoms: C_11  and  C_12
REMARK    6  A    between atoms: N_15  and  C_16
REMARK                            x       y       z     vdW  Elec       q    Type
REMARK                         _______ _______ _______ _____ _____    ______ ____
ROOT
ATOM      1  C   UNL     1       7.625   7.042  18.135  0.00  0.00    +0.000 C 
ATOM      2  O   UNL     1       8.378   6.628  19.019  0.00  0.00    +0.000 OA
ATOM      3  N   UNL     1       6.455   6.367  17.778  0.00  0.00    +0.000 N 
ATOM      4  C   UNL     1       5.576   6.789  16.688  0.00  0.00    +0.000 C 
ATOM      5  C   UNL     1       5.473   5.816  15.521  0.00  0.00    +0.000 C 
ATOM      6  C   UNL     1       5.246   4.332  15.802  0.00  0.00    +0.000 C 
ATOM      7  N   UNL     1       4.652   3.902  17.065  0.00  0.00    +0.000 NA
ATOM      8  C   UNL     1       5.632   3.990  18.160  0.00  0.00    +0.000 C 
ATOM      9  C   UNL     1       5.928   5.384  18.732  0.00  0.00    +0.000 C 
ENDROOT
BRANCH   1  10
ATOM     10  C   UNL     1       7.935   8.373  17.432  0.00  0.00    +0.000 C 
BRANCH  10  12
ATOM     11  C   UNL     1       9.136  10.257  18.230  0.00  0.00    +0.000 C 
ATOM     12  O   UNL     1       7.913   9.532  18.261  0.00  0.00    +0.000 OA
ENDBRANCH  10  12
ENDBRANCH   1  10
BRANCH   7  13
ATOM     13  C   UNL     1       3.348   4.463  17.425  0.00  0.00    +0.000 C 
BRANCH  13  14
ATOM     14  C   UNL     1       2.650   3.644  18.451  0.00  0.00    +0.000 A 
ATOM     15  C   UNL     1       1.898   2.465  18.244  0.00  0.00    +0.000 A 
ATOM     16  N   UNL     1       1.372   1.982  19.374  0.00  0.00    +0.000 NA
ATOM     17  N   UNL     1       1.786   2.857  20.306  0.00  0.00    +0.000 N 
ATOM     18  C   UNL     1       1.417   2.672  21.689  0.00  0.00    +0.000 C 
ATOM     19  C   UNL     1       2.544   3.872  19.807  0.00  0.00    +0.000 A 
ENDBRANCH  13  14
ENDBRANCH   7  13
TORSDOF 4
ENDMDL
MODEL 2
REMARK VINA RESULT:      -6.1      0.721      1.151
REMARK  Name = 
REMARK  6 active torsions:
REMARK  status: ('A' for Active; 'I' for Inactive)
REMARK    1  A    between atoms: C_1  and  O_2
REMARK    2  A    between atoms: O_2  and  C_3
REMARK    3  A    between atoms: C_3  and  C_4
REMARK    4  A    between atoms: N_10  and  C_11
REMARK    5  A    between atoms: C_11  and  C_12
REMARK    6  A    between atoms: N_15  and  C_16
REMARK                            x       y       z     vdW  Elec       q    Type
REMARK                         _______ _______ _______ _____ _____    ______ ____
ROOT
ATOM      1  C   UNL     1       7.560   6.872  18.165  0.00  0.00    +0.000 C 
ATOM      2  O   UNL     1       8.241   6.476  19.113  0.00  0.00    +0.000 OA
ATOM      3  N   UNL     1       6.338   6.283  17.829  0.00  0.00    +0.000 N 
ATOM      4  C   UNL     1       5.538   6.679  16.672  0.00  0.00    +0.000 C 
ATOM      5  C   UNL     1       5.370   5.611  15.600  0.00  0.00    +0.000 C 
ATOM      6  C   UNL     1       4.985   4.191  16.013  0.00  0.00    +0.000 C 
ATOM      7  N   UNL     1       4.315   3.950  17.288  0.00  0.00    +0.000 NA
ATOM      8  C   UNL     1       5.266   4.049  18.406  0.00  0.00    +0.000 C 
ATOM      9  C   UNL     1       5.687   5.456  18.853  0.00  0.00    +0.000 C 
ENDROOT
BRANCH   1  10
ATOM     10  C   UNL     1       8.024   8.089  17.350  0.00  0.00    +0.000 C 
BRANCH  10  12
ATOM     11  C   UNL     1       8.905   9.972  18.495  0.00  0.00    +0.000 C 
ATOM     12  O   UNL     1       7.751   9.363  17.929  0.00  0.00    +0.000 OA
ENDBRANCH  10  12
ENDBRANCH   1  10
BRANCH   7  13
ATOM     13  C   UNL     1       3.065   4.669  17.542  0.00  0.00    +0.000 C 
BRANCH  13  14
ATOM     14  C   UNL     1       2.528   4.397  18.901  0.00  0.00    +0.000 A 
ATOM     15  C   UNL     1       2.201   5.341  19.902  0.00  0.00    +0.000 A 
ATOM     16  N   UNL     1       1.767   4.769  21.029  0.00  0.00    +0.000 NA
ATOM     17  N   UNL     1       1.819   3.455  20.750  0.00  0.00    +0.000 N 
ATOM     18  C   UNL     1       1.417   2.487  21.741  0.00  0.00    +0.000 C 
ATOM     19  C   UNL     1       2.275   3.179  19.497  0.00  0.00    +0.000 A 
ENDBRANCH  13  14
ENDBRANCH   7  13
TORSDOF 4
ENDMDL
MODEL 3
REMARK VINA RESULT:      -6.0      1.184      1.753
REMARK  Name = 
REMARK  6 active torsions:
REMARK  status: ('A' for Active; 'I' for Inactive)
REMARK    1  A    between atoms: C_1  and  O_2
REMARK    2  A    between atoms: O_2  and  C_3
REMARK    3  A    between atoms: C_3  and  C_4
REMARK    4  A    between atoms: N_10  and  C_11
REMARK    5  A    between atoms: C_11  and  C_12
REMARK    6  A    between atoms: N_15  and  C_16
REMARK                            x       y       z     vdW  Elec       q    Type
REMARK                         _______ _______ _______ _____ _____    ______ ____
ROOT
ATOM      1  C   UNL     1       7.377   6.537  17.145  0.00  0.00    +0.000 C 
ATOM      2  O   UNL     1       7.913   6.579  16.035  0.00  0.00    +0.000 OA
ATOM      3  N   UNL     1       6.354   5.634  17.444  0.00  0.00    +0.000 N 
ATOM      4  C   UNL     1       5.649   5.603  18.724  0.00  0.00    +0.000 C 
ATOM      5  C   UNL     1       4.165   5.940  18.658  0.00  0.00    +0.000 C 
ATOM      6  C   UNL     1       3.295   5.279  17.590  0.00  0.00    +0.000 C 
ATOM      7  N   UNL     1       3.707   4.019  16.978  0.00  0.00    +0.000 NA
ATOM      8  C   UNL     1       4.788   4.240  16.003  0.00  0.00    +0.000 C 
ATOM      9  C   UNL     1       6.200   4.475  16.557  0.00  0.00    +0.000 C 
ENDROOT
BRANCH   1  10
ATOM     10  C   UNL     1       7.878   7.460  18.267  0.00  0.00    +0.000 C 
BRANCH  10  12
ATOM     11  C   UNL     1       8.877   9.541  18.818  0.00  0.00    +0.000 C 
ATOM     12  O   UNL     1       8.033   8.833  17.918  0.00  0.00    +0.000 OA
ENDBRANCH  10  12
ENDBRANCH   1  10
BRANCH   7  13
ATOM     13  C   UNL     1       3.971   2.888  17.870  0.00  0.00    +0.000 C 
BRANCH  13  14
ATOM     14  C   UNL     1       2.891   2.703  18.874  0.00  0.00    +0.000 A 
ATOM     15  C   UNL     1       1.516   2.482  18.627  0.00  0.00    +0.000 A 
ATOM     16  N   UNL     1       0.799   2.384  19.751  0.00  0.00    +0.000 NA
ATOM     17  N   UNL     1       1.716   2.547  20.719  0.00  0.00    +0.000 N 
ATOM     18  C   UNL     1       1.322   2.503  22.106  0.00  0.00    +0.000 C 
ATOM     19  C   UNL     1       2.978   2.750  20.250  0.00  0.00    +0.000 A 
ENDBRANCH  13  14
ENDBRANCH   7  13
TORSDOF 4
ENDMDL
MODEL 4
REMARK VINA RESULT:      -5.8      4.254      6.199
REMARK  Name = 
REMARK  6 active torsions:
REMARK  status: ('A' for Active; 'I' for Inactive)
REMARK    1  A    between atoms: C_1  and  O_2
REMARK    2  A    between atoms: O_2  and  C_3
REMARK    3  A    between atoms: C_3  and  C_4
REMARK    4  A    between atoms: N_10  and  C_11
REMARK    5  A    between atoms: C_11  and  C_12
REMARK    6  A    between atoms: N_15  and  C_16
REMARK                            x       y       z     vdW  Elec       q    Type
REMARK                         _______ _______ _______ _____ _____    ______ ____
ROOT
ATOM      1  C   UNL     1       3.888   2.273  20.959  0.00  0.00    +0.000 C 
ATOM      2  O   UNL     1       3.100   2.060  21.884  0.00  0.00    +0.000 OA
ATOM      3  N   UNL     1       3.717   3.332  20.065  0.00  0.00    +0.000 N 
ATOM      4  C   UNL     1       4.590   3.573  18.918  0.00  0.00    +0.000 C 
ATOM      5  C   UNL     1       3.924   3.443  17.555  0.00  0.00    +0.000 C 
ATOM      6  C   UNL     1       2.578   4.123  17.312  0.00  0.00    +0.000 C 
ATOM      7  N   UNL     1       2.163   5.255  18.136  0.00  0.00    +0.000 NA
ATOM      8  C   UNL     1       1.728   4.801  19.467  0.00  0.00    +0.000 C 
ATOM      9  C   UNL     1       2.821   4.420  20.476  0.00  0.00    +0.000 C 
ENDROOT
BRANCH   1  10
ATOM     10  C   UNL     1       5.137   1.390  20.805  0.00  0.00    +0.000 C 
BRANCH  10  12
ATOM     11  C   UNL     1       6.257  -0.178  22.189  0.00  0.00    +0.000 C 
ATOM     12  O   UNL     1       5.901   1.184  21.990  0.00  0.00    +0.000 OA
ENDBRANCH  10  12
ENDBRANCH   1  10
BRANCH   7  13
ATOM     13  C   UNL     1       3.060   6.411  18.197  0.00  0.00    +0.000 C 
BRANCH  13  14
ATOM     14  C   UNL     1       2.334   7.665  18.530  0.00  0.00    +0.000 A 
ATOM     15  C   UNL     1       2.029   8.739  17.661  0.00  0.00    +0.000 A 
ATOM     16  N   UNL     1       1.389   9.737  18.278  0.00  0.00    +0.000 NA
ATOM     17  N   UNL     1       1.288   9.303  19.546  0.00  0.00    +0.000 N 
ATOM     18  C   UNL     1       0.639  10.119  20.543  0.00  0.00    +0.000 C 
ATOM     19  C   UNL     1       1.844   8.077  19.752  0.00  0.00    +0.000 A 
ENDBRANCH  13  14
ENDBRANCH   7  13
TORSDOF 4
ENDMDL
MODEL 5
REMARK VINA RESULT:      -5.8      3.785      5.189
REMARK  Name = 
REMARK  6 active torsions:
REMARK  status: ('A' for Active; 'I' for Inactive)
REMARK    1  A    between atoms: C_1  and  O_2
REMARK    2  A    between atoms: O_2  and  C_3
REMARK    3  A    between atoms: C_3  and  C_4
REMARK    4  A    between atoms: N_10  and  C_11
REMARK    5  A    between atoms: C_11  and  C_12
REMARK    6  A    between atoms: N_15  and  C_16
REMARK                            x       y       z     vdW  Elec       q    Type
REMARK                         _______ _______ _______ _____ _____    ______ ____
ROOT
ATOM      1  C   UNL     1       6.475   4.921  15.142  0.00  0.00    +0.000 C 
ATOM      2  O   UNL     1       7.384   5.746  15.021  0.00  0.00    +0.000 OA
ATOM      3  N   UNL     1       5.408   5.115  16.022  0.00  0.00    +0.000 N 
ATOM      4  C   UNL     1       4.351   4.129  16.244  0.00  0.00    +0.000 C 
ATOM      5  C   UNL     1       4.287   3.549  17.651  0.00  0.00    +0.000 C 
ATOM      6  C   UNL     1       4.353   4.490  18.852  0.00  0.00    +0.000 C 
ATOM      7  N   UNL     1       3.990   5.897  18.707  0.00  0.00    +0.000 NA
ATOM      8  C   UNL     1       5.057   6.646  18.023  0.00  0.00    +0.000 C 
ATOM      9  C   UNL     1       5.170   6.482  16.501  0.00  0.00    +0.000 C 
ENDROOT
BRANCH   1  10
ATOM     10  C   UNL     1       6.469   3.661  14.263  0.00  0.00    +0.000 C 
BRANCH  10  12
ATOM     11  C   UNL     1       5.527   3.220  12.130  0.00  0.00    +0.000 C 
ATOM     12  O   UNL     1       6.552   3.885  12.858  0.00  0.00    +0.000 OA
ENDBRANCH  10  12
ENDBRANCH   1  10
BRANCH   7  13
ATOM     13  C   UNL     1       2.658   6.201  18.181  0.00  0.00    +0.000 C 
BRANCH  13  14
ATOM     14  C   UNL     1       2.125   7.484  18.710  0.00  0.00    +0.000 A 
ATOM     15  C   UNL     1       1.896   8.682  17.993  0.00  0.00    +0.000 A 
ATOM     16  N   UNL     1       1.437   9.668  18.768  0.00  0.00    +0.000 NA
ATOM     17  N   UNL     1       1.375   9.102  19.986  0.00  0.00    +0.000 N 
ATOM     18  C   UNL     1       0.912   9.866  21.118  0.00  0.00    +0.000 C 
ATOM     19  C   UNL     1       1.783   7.803  20.007  0.00  0.00    +0.000 A 
ENDBRANCH  13  14
ENDBRANCH   7  13
TORSDOF 4
ENDMDL
MODEL 6
REMARK VINA RESULT:      -5.8      2.700      4.255
REMARK  Name = 
REMARK  6 active torsions:
REMARK  status: ('A' for Active; 'I' for Inactive)
REMARK    1  A    between atoms: C_1  and  O_2
REMARK    2  A    between atoms: O_2  and  C_3
REMARK    3  A    between atoms: C_3  and  C_4
REMARK    4  A    between atoms: N_10  and  C_11
REMARK    5  A    between atoms: C_11  and  C_12
REMARK    6  A    between atoms: N_15  and  C_16
REMARK                            x       y       z     vdW  Elec       q    Type
REMARK                         _______ _______ _______ _____ _____    ______ ____
ROOT
ATOM      1  C   UNL     1       6.446   4.740  14.330  0.00  0.00    +0.000 C 
ATOM      2  O   UNL     1       7.241   5.607  13.958  0.00  0.00    +0.000 OA
ATOM      3  N   UNL     1       5.607   4.924  15.432  0.00  0.00    +0.000 N 
ATOM      4  C   UNL     1       4.704   3.894  15.943  0.00  0.00    +0.000 C 
ATOM      5  C   UNL     1       5.016   3.394  17.347  0.00  0.00    +0.000 C 
ATOM      6  C   UNL     1       5.301   4.406  18.456  0.00  0.00    +0.000 C 
ATOM      7  N   UNL     1       4.818   5.780  18.343  0.00  0.00    +0.000 NA
ATOM      8  C   UNL     1       5.637   6.546  17.391  0.00  0.00    +0.000 C 
ATOM      9  C   UNL     1       5.397   6.301  15.895  0.00  0.00    +0.000 C 
ENDROOT
BRANCH   1  10
ATOM     10  C   UNL     1       6.317   3.433  13.533  0.00  0.00    +0.000 C 
BRANCH  10  12
ATOM     11  C   UNL     1       4.699   3.280  11.804  0.00  0.00    +0.000 C 
ATOM     12  O   UNL     1       6.048   3.579  12.141  0.00  0.00    +0.000 OA
ENDBRANCH  10  12
ENDBRANCH   1  10
BRANCH   7  13
ATOM     13  C   UNL     1       3.381   5.976  18.140  0.00  0.00    +0.000 C 
BRANCH  13  14
ATOM     14  C   UNL     1       2.570   4.940  18.832  0.00  0.00    +0.000 A 
ATOM     15  C   UNL     1       1.565   4.118  18.272  0.00  0.00    +0.000 A 
ATOM     16  N   UNL     1       1.003   3.304  19.171  0.00  0.00    +0.000 NA
ATOM     17  N   UNL     1       1.647   3.609  20.310  0.00  0.00    +0.000 N 
ATOM     18  C   UNL     1       1.316   2.925  21.536  0.00  0.00    +0.000 C 
ATOM     19  C   UNL     1       2.585   4.585  20.165  0.00  0.00    +0.000 A 
ENDBRANCH  13  14
ENDBRANCH   7  13
TORSDOF 4
ENDMDL
MODEL 7
REMARK VINA RESULT:      -5.8      3.856      6.226
REMARK  Name = 
REMARK  6 active torsions:
REMARK  status: ('A' for Active; 'I' for Inactive)
REMARK    1  A    between atoms: C_1  and  O_2
REMARK    2  A    between atoms: O_2  and  C_3
REMARK    3  A    between atoms: C_3  and  C_4
REMARK    4  A    between atoms: N_10  and  C_11
REMARK    5  A    between atoms: C_11  and  C_12
REMARK    6  A    between atoms: N_15  and  C_16
REMARK                            x       y       z     vdW  Elec       q    Type
REMARK                         _______ _______ _______ _____ _____    ______ ____
ROOT
ATOM      1  C   UNL     1       1.518   8.141  20.282  0.00  0.00    +0.000 C 
ATOM      2  O   UNL     1       1.403   9.089  19.501  0.00  0.00    +0.000 OA
ATOM      3  N   UNL     1       2.145   6.948  19.916  0.00  0.00    +0.000 N 
ATOM      4  C   UNL     1       2.237   5.779  20.790  0.00  0.00    +0.000 C 
ATOM      5  C   UNL     1       1.499   4.541  20.302  0.00  0.00    +0.000 C 
ATOM      6  C   UNL     1       1.666   4.094  18.850  0.00  0.00    +0.000 C 
ATOM      7  N   UNL     1       2.841   4.500  18.084  0.00  0.00    +0.000 NA
ATOM      8  C   UNL     1       2.735   5.909  17.670  0.00  0.00    +0.000 C 
ATOM      9  C   UNL     1       3.015   6.980  18.734  0.00  0.00    +0.000 C 
ENDROOT
BRANCH   1  10
ATOM     10  C   UNL     1       1.013   8.280  21.727  0.00  0.00    +0.000 C 
BRANCH  10  12
ATOM     11  C   UNL     1      -0.450   9.790  22.826  0.00  0.00    +0.000 C 
ATOM     12  O   UNL     1      -0.327   8.740  21.874  0.00  0.00    +0.000 OA
ENDBRANCH  10  12
ENDBRANCH   1  10
BRANCH   7  13
ATOM     13  C   UNL     1       4.156   4.169  18.637  0.00  0.00    +0.000 C 
BRANCH  13  14
ATOM     14  C   UNL     1       5.233   4.269  17.617  0.00  0.00    +0.000 A 
ATOM     15  C   UNL     1       6.589   4.610  17.829  0.00  0.00    +0.000 A 
ATOM     16  N   UNL     1       7.297   4.639  16.696  0.00  0.00    +0.000 NA
ATOM     17  N   UNL     1       6.392   4.321  15.756  0.00  0.00    +0.000 N 
ATOM     18  C   UNL     1       6.782   4.244  14.369  0.00  0.00    +0.000 C 
ATOM     19  C   UNL     1       5.143   4.099  16.251  0.00  0.00    +0.000 A 
ENDBRANCH  13  14
ENDBRANCH   7  13
TORSDOF 4
ENDMDL
MODEL 8
REMARK VINA RESULT:      -5.7      3.495      6.760
REMARK  Name = 
REMARK  6 active torsions:
REMARK  status: ('A' for Active; 'I' for Inactive)
REMARK    1  A    between atoms: C_1  and  O_2
REMARK    2  A    between atoms: O_2  and  C_3
REMARK    3  A    between atoms: C_3  and  C_4
REMARK    4  A    between atoms: N_10  and  C_11
REMARK    5  A    between atoms: C_11  and  C_12
REMARK    6  A    between atoms: N_15  and  C_16
REMARK                            x       y       z     vdW  Elec       q    Type
REMARK                         _______ _______ _______ _____ _____    ______ ____
ROOT
ATOM      1  C   UNL     1       2.436   2.257  18.756  0.00  0.00    +0.000 C 
ATOM      2  O   UNL     1       3.104   1.234  18.919  0.00  0.00    +0.000 OA
ATOM      3  N   UNL     1       2.996   3.441  18.268  0.00  0.00    +0.000 N 
ATOM      4  C   UNL     1       2.252   4.692  18.129  0.00  0.00    +0.000 C 
ATOM      5  C   UNL     1       2.732   5.837  19.010  0.00  0.00    +0.000 C 
ATOM      6  C   UNL     1       4.225   6.148  19.085  0.00  0.00    +0.000 C 
ATOM      7  N   UNL     1       5.121   5.732  18.008  0.00  0.00    +0.000 NA
ATOM      8  C   UNL     1       5.388   4.287  18.079  0.00  0.00    +0.000 C 
ATOM      9  C   UNL     1       4.287   3.340  17.578  0.00  0.00    +0.000 C 
ENDROOT
BRANCH   1  10
ATOM     10  C   UNL     1       0.925   2.233  19.036  0.00  0.00    +0.000 C 
BRANCH  10  12
ATOM     11  C   UNL     1       1.237   2.844  21.308  0.00  0.00    +0.000 C 
ATOM     12  O   UNL     1       0.483   3.047  20.120  0.00  0.00    +0.000 OA
ENDBRANCH  10  12
ENDBRANCH   1  10
BRANCH   7  13
ATOM     13  C   UNL     1       4.802   6.184  16.652  0.00  0.00    +0.000 C 
BRANCH  13  14
ATOM     14  C   UNL     1       5.713   5.592  15.637  0.00  0.00    +0.000 A 
ATOM     15  C   UNL     1       7.121   5.710  15.570  0.00  0.00    +0.000 A 
ATOM     16  N   UNL     1       7.643   5.080  14.514  0.00  0.00    +0.000 NA
ATOM     17  N   UNL     1       6.566   4.561  13.900  0.00  0.00    +0.000 N 
ATOM     18  C   UNL     1       6.722   3.788  12.692  0.00  0.00    +0.000 C 
ATOM     19  C   UNL     1       5.389   4.844  14.524  0.00  0.00    +0.000 A 
ENDBRANCH  13  14
ENDBRANCH   7  13
TORSDOF 4
ENDMDL
MODEL 9
REMARK VINA RESULT:      -5.7      3.420      4.759
REMARK  Name = 
REMARK  6 active torsions:
REMARK  status: ('A' for Active; 'I' for Inactive)
REMARK    1  A    between atoms: C_1  and  O_2
REMARK    2  A    between atoms: O_2  and  C_3
REMARK    3  A    between atoms: C_3  and  C_4
REMARK    4  A    between atoms: N_10  and  C_11
REMARK    5  A    between atoms: C_11  and  C_12
REMARK    6  A    between atoms: N_15  and  C_16
REMARK                            x       y       z     vdW  Elec       q    Type
REMARK                         _______ _______ _______ _____ _____    ______ ____
ROOT
ATOM      1  C   UNL     1       6.369   4.729  16.020  0.00  0.00    +0.000 C 
ATOM      2  O   UNL     1       7.317   5.498  16.195  0.00  0.00    +0.000 OA
ATOM      3  N   UNL     1       5.239   4.742  16.842  0.00  0.00    +0.000 N 
ATOM      4  C   UNL     1       4.129   3.800  16.708  0.00  0.00    +0.000 C 
ATOM      5  C   UNL     1       3.923   2.864  17.891  0.00  0.00    +0.000 C 
ATOM      6  C   UNL     1       3.925   3.437  19.307  0.00  0.00    +0.000 C 
ATOM      7  N   UNL     1       3.632   4.850  19.532  0.00  0.00    +0.000 NA
ATOM      8  C   UNL     1       4.782   5.688  19.158  0.00  0.00    +0.000 C 
ATOM      9  C   UNL     1       5.017   5.939  17.662  0.00  0.00    +0.000 C 
ENDROOT
BRANCH   1  10
ATOM     10  C   UNL     1       6.386   3.759  14.828  0.00  0.00    +0.000 C 
BRANCH  10  12
ATOM     11  C   UNL     1       6.293   3.488  12.472  0.00  0.00    +0.000 C 
ATOM     12  O   UNL     1       6.632   4.348  13.553  0.00  0.00    +0.000 OA
ENDBRANCH  10  12
ENDBRANCH   1  10
BRANCH   7  13
ATOM     13  C   UNL     1       2.363   5.367  19.018  0.00  0.00    +0.000 C 
BRANCH  13  14
ATOM     14  C   UNL     1       2.011   6.683  19.614  0.00  0.00    +0.000 A 
ATOM     15  C   UNL     1       1.996   7.942  18.971  0.00  0.00    +0.000 A 
ATOM     16  N   UNL     1       1.661   8.939  19.797  0.00  0.00    +0.000 NA
ATOM     17  N   UNL     1       1.466   8.317  20.971  0.00  0.00    +0.000 N 
ATOM     18  C   UNL     1       1.080   9.073  22.138  0.00  0.00    +0.000 C 
ATOM     19  C   UNL     1       1.670   6.971  20.919  0.00  0.00    +0.000 A 
ENDBRANCH  13  14
ENDBRANCH   7  13
TORSDOF 4
ENDMDL
