MODEL 1
REMARK VINA RESULT:      -5.3      0.000      0.000
REMARK  Name = 
REMARK  12 active torsions:
REMARK  status: ('A' for Active; 'I' for Inactive)
REMARK    1  A    between atoms: C_1  and  C_2
REMARK    2  A    between atoms: C_2  and  O_3
REMARK    3  A    between atoms: O_3  and  C_4
REMARK    4  A    between atoms: C_4  and  N_5
REMARK    5  A    between atoms: N_8  and  C_9
REMARK    6  A    between atoms: N_8  and  C_13
REMARK    7  A    between atoms: C_9  and  O_10
REMARK    8  A    between atoms: O_10  and  C_11
REMARK    9  A    between atoms: C_11  and  C_12
REMARK   10  A    between atoms: C_13  and  O_14
REMARK   11  A    between atoms: O_14  and  C_15
REMARK   12  A    between atoms: C_15  and  C_16
REMARK                            x       y       z     vdW  Elec       q    Type
REMARK                         _______ _______ _______ _____ _____    ______ ____
ROOT
ATOM      1  N   UNL     1       6.135   3.543  13.595  0.00  0.00    +0.000 N 
ATOM      2  C   UNL     1       6.719   4.582  14.274  0.00  0.00    +0.000 C 
ATOM      3  O   UNL     1       7.493   5.352  13.715  0.00  0.00    +0.000 OA
ATOM      4  N   UNL     1       6.366   4.702  15.600  0.00  0.00    +0.000 N 
ATOM      5  H   UNL     1       5.937   2.715  14.136  0.00  0.00    +0.000 HD
ENDROOT
BRANCH   1   6
ATOM      6  C   UNL     1       6.508   3.313  12.235  0.00  0.00    +0.000 C 
BRANCH   6   7
ATOM      7  O   UNL     1       5.434   2.624  11.615  0.00  0.00    +0.000 OA
BRANCH   7   9
ATOM      8  C   UNL     1       3.410   3.183  10.460  0.00  0.00    +0.000 C 
ATOM      9  C   UNL     1       4.228   3.380  11.720  0.00  0.00    +0.000 C 
ENDBRANCH   7   9
ENDBRANCH   6   7
ENDBRANCH   1   6
BRANCH   4  10
ATOM     10  C   UNL     1       5.514   3.772  16.303  0.00  0.00    +0.000 C 
BRANCH  10  11
ATOM     11  O   UNL     1       4.481   4.540  16.918  0.00  0.00    +0.000 OA
BRANCH  11  12
ATOM     12  C   UNL     1       4.204   4.110  18.246  0.00  0.00    +0.000 C 
ATOM     13  C   UNL     1       4.329   5.306  19.173  0.00  0.00    +0.000 C 
ENDBRANCH  11  12
ENDBRANCH  10  11
ENDBRANCH   4  10
BRANCH   4  14
ATOM     14  C   UNL     1       6.861   5.852  16.317  0.00  0.00    +0.000 C 
BRANCH  14  15
ATOM     15  O   UNL     1       7.716   5.398  17.364  0.00  0.00    +0.000 OA
BRANCH  15  16
ATOM     16  C   UNL     1       7.697   6.292  18.475  0.00  0.00    +0.000 C 
ATOM     17  C   UNL     1       7.906   7.714  17.988  0.00  0.00    +0.000 C 
ENDBRANCH  15  16
ENDBRANCH  14  15
ENDBRANCH   4  14
TORSDOF 9
ENDMDL
MODEL 2
REMARK VINA RESULT:      -5.3      2.750      5.161
REMARK  Name = 
REMARK  12 active torsions:
REMARK  status: ('A' for Active; 'I' for Inactive)
REMARK    1  A    between atoms: C_1  and  C_2
REMARK    2  A    between atoms: C_2  and  O_3
REMARK    3  A    between atoms: O_3  and  C_4
REMARK    4  A    between atoms: C_4  and  N_5
REMARK    5  A    between atoms: N_8  and  C_9
REMARK    6  A    between atoms: N_8  and  C_13
REMARK    7  A    between atoms: C_9  and  O_10
REMARK    8  A    between atoms: O_10  and  C_11
REMARK    9  A    between atoms: C_11  and  C_12
REMARK   10  A    between atoms: C_13  and  O_14
REMARK   11  A    between atoms: O_14  and  C_15
REMARK   12  A    between atoms: C_15  and  C_16
REMARK                            x       y       z     vdW  Elec       q    Type
REMARK                         _______ _______ _______ _____ _____    ______ ____
ROOT
ATOM      1  N   UNL     1       5.725   5.758  17.447  0.00  0.00    +0.000 N 
ATOM      2  C   UNL     1       5.292   5.438  18.709  0.00  0.00    +0.000 C 
ATOM      3  O   UNL     1       6.044   5.508  19.676  0.00  0.00    +0.000 OA
ATOM      4  N   UNL     1       3.973   5.054  18.809  0.00  0.00    +0.000 N 
ATOM      5  H   UNL     1       5.294   5.252  16.689  0.00  0.00    +0.000 HD
ENDROOT
BRANCH   1   6
ATOM      6  C   UNL     1       7.100   6.096  17.256  0.00  0.00    +0.000 C 
BRANCH   6   7
ATOM      7  O   UNL     1       7.440   5.737  15.926  0.00  0.00    +0.000 OA
BRANCH   7   9
ATOM      8  C   UNL     1       6.451   4.464  14.152  0.00  0.00    +0.000 C 
ATOM      9  C   UNL     1       6.899   4.457  15.600  0.00  0.00    +0.000 C 
ENDBRANCH   7   9
ENDBRANCH   6   7
ENDBRANCH   1   6
BRANCH   4  10
ATOM     10  C   UNL     1       3.085   4.894  17.681  0.00  0.00    +0.000 C 
BRANCH  10  11
ATOM     11  O   UNL     1       3.417   3.650  17.067  0.00  0.00    +0.000 OA
BRANCH  11  12
ATOM     12  C   UNL     1       2.584   2.586  17.512  0.00  0.00    +0.000 C 
ATOM     13  C   UNL     1       3.437   1.600  18.290  0.00  0.00    +0.000 C 
ENDBRANCH  11  12
ENDBRANCH  10  11
ENDBRANCH   4  10
BRANCH   4  14
ATOM     14  C   UNL     1       3.447   4.827  20.132  0.00  0.00    +0.000 C 
BRANCH  14  15
ATOM     15  O   UNL     1       2.073   5.209  20.145  0.00  0.00    +0.000 OA
BRANCH  15  16
ATOM     16  C   UNL     1       1.243   4.150  20.616  0.00  0.00    +0.000 C 
ATOM     17  C   UNL     1       2.029   3.278  21.577  0.00  0.00    +0.000 C 
ENDBRANCH  15  16
ENDBRANCH  14  15
ENDBRANCH   4  14
TORSDOF 9
ENDMDL
MODEL 3
REMARK VINA RESULT:      -5.3      3.814      6.004
REMARK  Name = 
REMARK  12 active torsions:
REMARK  status: ('A' for Active; 'I' for Inactive)
REMARK    1  A    between atoms: C_1  and  C_2
REMARK    2  A    between atoms: C_2  and  O_3
REMARK    3  A    between atoms: O_3  and  C_4
REMARK    4  A    between atoms: C_4  and  N_5
REMARK    5  A    between atoms: N_8  and  C_9
REMARK    6  A    between atoms: N_8  and  C_13
REMARK    7  A    between atoms: C_9  and  O_10
REMARK    8  A    between atoms: O_10  and  C_11
REMARK    9  A    between atoms: C_11  and  C_12
REMARK   10  A    between atoms: C_13  and  O_14
REMARK   11  A    between atoms: O_14  and  C_15
REMARK   12  A    between atoms: C_15  and  C_16
REMARK                            x       y       z     vdW  Elec       q    Type
REMARK                         _______ _______ _______ _____ _____    ______ ____
ROOT
ATOM      1  N   UNL     1       5.665   4.943  17.567  0.00  0.00    +0.000 N 
ATOM      2  C   UNL     1       5.044   4.354  18.638  0.00  0.00    +0.000 C 
ATOM      3  O   UNL     1       5.671   3.669  19.440  0.00  0.00    +0.000 OA
ATOM      4  N   UNL     1       3.693   4.598  18.753  0.00  0.00    +0.000 N 
ATOM      5  H   UNL     1       5.105   5.053  16.735  0.00  0.00    +0.000 HD
ENDROOT
BRANCH   1   6
ATOM      6  C   UNL     1       7.051   4.677  17.343  0.00  0.00    +0.000 C 
BRANCH   6   7
ATOM      7  O   UNL     1       7.641   5.881  16.878  0.00  0.00    +0.000 OA
BRANCH   7   9
ATOM      8  C   UNL     1       7.884   8.133  17.659  0.00  0.00    +0.000 C 
ATOM      9  C   UNL     1       6.912   7.011  17.357  0.00  0.00    +0.000 C 
ENDBRANCH   7   9
ENDBRANCH   6   7
ENDBRANCH   1   6
BRANCH   4  10
ATOM     10  C   UNL     1       2.915   5.340  17.789  0.00  0.00    +0.000 C 
BRANCH  10  11
ATOM     11  O   UNL     1       3.357   6.694  17.855  0.00  0.00    +0.000 OA
BRANCH  11  12
ATOM     12  C   UNL     1       2.460   7.523  18.583  0.00  0.00    +0.000 C 
ATOM     13  C   UNL     1       2.186   8.772  17.763  0.00  0.00    +0.000 C 
ENDBRANCH  11  12
ENDBRANCH  10  11
ENDBRANCH   4  10
BRANCH   4  14
ATOM     14  C   UNL     1       3.027   4.099  19.932  0.00  0.00    +0.000 C 
BRANCH  14  15
ATOM     15  O   UNL     1       1.620   4.114  19.698  0.00  0.00    +0.000 OA
BRANCH  15  16
ATOM     16  C   UNL     1       0.943   3.178  20.535  0.00  0.00    +0.000 C 
ATOM     17  C   UNL     1       1.870   2.732  21.650  0.00  0.00    +0.000 C 
ENDBRANCH  15  16
ENDBRANCH  14  15
ENDBRANCH   4  14
TORSDOF 9
ENDMDL
MODEL 4
REMARK VINA RESULT:      -5.2      2.209      5.476
REMARK  Name = 
REMARK  12 active torsions:
REMARK  status: ('A' for Active; 'I' for Inactive)
REMARK    1  A    between atoms: C_1  and  C_2
REMARK    2  A    between atoms: C_2  and  O_3
REMARK    3  A    between atoms: O_3  and  C_4
REMARK    4  A    between atoms: C_4  and  N_5
REMARK    5  A    between atoms: N_8  and  C_9
REMARK    6  A    between atoms: N_8  and  C_13
REMARK    7  A    between atoms: C_9  and  O_10
REMARK    8  A    between atoms: O_10  and  C_11
REMARK    9  A    between atoms: C_11  and  C_12
REMARK   10  A    between atoms: C_13  and  O_14
REMARK   11  A    between atoms: O_14  and  C_15
REMARK   12  A    between atoms: C_15  and  C_16
REMARK                            x       y       z     vdW  Elec       q    Type
REMARK                         _______ _______ _______ _____ _____    ______ ____
ROOT
ATOM      1  N   UNL     1       3.631   3.318  17.394  0.00  0.00    +0.000 N 
ATOM      2  C   UNL     1       3.917   4.654  17.279  0.00  0.00    +0.000 C 
ATOM      3  O   UNL     1       3.278   5.497  17.901  0.00  0.00    +0.000 OA
ATOM      4  N   UNL     1       4.963   4.971  16.442  0.00  0.00    +0.000 N 
ATOM      5  H   UNL     1       3.802   2.755  16.575  0.00  0.00    +0.000 HD
ENDROOT
BRANCH   1   6
ATOM      6  C   UNL     1       2.512   2.918  18.190  0.00  0.00    +0.000 C 
BRANCH   6   7
ATOM      7  O   UNL     1       2.969   2.798  19.527  0.00  0.00    +0.000 OA
BRANCH   7   9
ATOM      8  C   UNL     1       1.040   3.983  20.314  0.00  0.00    +0.000 C 
ATOM      9  C   UNL     1       1.864   2.716  20.427  0.00  0.00    +0.000 C 
ENDBRANCH   7   9
ENDBRANCH   6   7
ENDBRANCH   1   6
BRANCH   4  10
ATOM     10  C   UNL     1       5.687   4.009  15.643  0.00  0.00    +0.000 C 
BRANCH  10  11
ATOM     11  O   UNL     1       5.295   4.219  14.288  0.00  0.00    +0.000 OA
BRANCH  11  12
ATOM     12  C   UNL     1       6.331   3.897  13.368  0.00  0.00    +0.000 C 
ATOM     13  C   UNL     1       5.704   3.248  12.146  0.00  0.00    +0.000 C 
ENDBRANCH  11  12
ENDBRANCH  10  11
ENDBRANCH   4  10
BRANCH   4  14
ATOM     14  C   UNL     1       5.374   6.352  16.388  0.00  0.00    +0.000 C 
BRANCH  14  15
ATOM     15  O   UNL     1       6.800   6.401  16.373  0.00  0.00    +0.000 OA
BRANCH  15  16
ATOM     16  C   UNL     1       7.323   6.710  17.663  0.00  0.00    +0.000 C 
ATOM     17  C   UNL     1       7.852   8.133  17.668  0.00  0.00    +0.000 C 
ENDBRANCH  15  16
ENDBRANCH  14  15
ENDBRANCH   4  14
TORSDOF 9
ENDMDL
MODEL 5
REMARK VINA RESULT:      -5.2      3.894      5.515
REMARK  Name = 
REMARK  12 active torsions:
REMARK  status: ('A' for Active; 'I' for Inactive)
REMARK    1  A    between atoms: C_1  and  C_2
REMARK    2  A    between atoms: C_2  and  O_3
REMARK    3  A    between atoms: O_3  and  C_4
REMARK    4  A    between atoms: C_4  and  N_5
REMARK    5  A    between atoms: N_8  and  C_9
REMARK    6  A    between atoms: N_8  and  C_13
REMARK    7  A    between atoms: C_9  and  O_10
REMARK    8  A    between atoms: O_10  and  C_11
REMARK    9  A    between atoms: C_11  and  C_12
REMARK   10  A    between atoms: C_13  and  O_14
REMARK   11  A    between atoms: O_14  and  C_15
REMARK   12  A    between atoms: C_15  and  C_16
REMARK                            x       y       z     vdW  Elec       q    Type
REMARK                         _______ _______ _______ _____ _____    ______ ____
ROOT
ATOM      1  N   UNL     1       3.349   3.038  18.205  0.00  0.00    +0.000 N 
ATOM      2  C   UNL     1       4.418   3.556  18.890  0.00  0.00    +0.000 C 
ATOM      3  O   UNL     1       5.025   2.889  19.722  0.00  0.00    +0.000 OA
ATOM      4  N   UNL     1       4.762   4.851  18.570  0.00  0.00    +0.000 N 
ATOM      5  H   UNL     1       2.630   3.694  17.942  0.00  0.00    +0.000 HD
ENDROOT
BRANCH   1   6
ATOM      6  C   UNL     1       2.891   1.725  18.535  0.00  0.00    +0.000 C 
BRANCH   6   7
ATOM      7  O   UNL     1       1.941   1.862  19.580  0.00  0.00    +0.000 OA
BRANCH   7   9
ATOM      8  C   UNL     1       0.826   3.860  20.295  0.00  0.00    +0.000 C 
ATOM      9  C   UNL     1       0.929   2.801  19.216  0.00  0.00    +0.000 C 
ENDBRANCH   7   9
ENDBRANCH   6   7
ENDBRANCH   1   6
BRANCH   4  10
ATOM     10  C   UNL     1       4.025   5.685  17.649  0.00  0.00    +0.000 C 
BRANCH  10  11
ATOM     11  O   UNL     1       2.711   5.832  18.185  0.00  0.00    +0.000 OA
BRANCH  11  12
ATOM     12  C   UNL     1       2.548   7.056  18.892  0.00  0.00    +0.000 C 
ATOM     13  C   UNL     1       2.553   8.195  17.888  0.00  0.00    +0.000 C 
ENDBRANCH  11  12
ENDBRANCH  10  11
ENDBRANCH   4  10
BRANCH   4  14
ATOM     14  C   UNL     1       5.953   5.391  19.178  0.00  0.00    +0.000 C 
BRANCH  14  15
ATOM     15  O   UNL     1       6.842   5.805  18.143  0.00  0.00    +0.000 OA
BRANCH  15  16
ATOM     16  C   UNL     1       7.556   4.698  17.596  0.00  0.00    +0.000 C 
ATOM     17  C   UNL     1       7.186   4.526  16.135  0.00  0.00    +0.000 C 
ENDBRANCH  15  16
ENDBRANCH  14  15
ENDBRANCH   4  14
TORSDOF 9
ENDMDL
MODEL 6
REMARK VINA RESULT:      -5.2      2.391      5.370
REMARK  Name = 
REMARK  12 active torsions:
REMARK  status: ('A' for Active; 'I' for Inactive)
REMARK    1  A    between atoms: C_1  and  C_2
REMARK    2  A    between atoms: C_2  and  O_3
REMARK    3  A    between atoms: O_3  and  C_4
REMARK    4  A    between atoms: C_4  and  N_5
REMARK    5  A    between atoms: N_8  and  C_9
REMARK    6  A    between atoms: N_8  and  C_13
REMARK    7  A    between atoms: C_9  and  O_10
REMARK    8  A    between atoms: O_10  and  C_11
REMARK    9  A    between atoms: C_11  and  C_12
REMARK   10  A    between atoms: C_13  and  O_14
REMARK   11  A    between atoms: O_14  and  C_15
REMARK   12  A    between atoms: C_15  and  C_16
REMARK                            x       y       z     vdW  Elec       q    Type
REMARK                         _______ _______ _______ _____ _____    ______ ____
ROOT
ATOM      1  N   UNL     1       4.553   3.335  18.296  0.00  0.00    +0.000 N 
ATOM      2  C   UNL     1       4.720   4.692  18.392  0.00  0.00    +0.000 C 
ATOM      3  O   UNL     1       4.637   5.268  19.473  0.00  0.00    +0.000 OA
ATOM      4  N   UNL     1       4.996   5.346  17.212  0.00  0.00    +0.000 N 
ATOM      5  H   UNL     1       4.154   2.997  17.433  0.00  0.00    +0.000 HD
ENDROOT
BRANCH   1   6
ATOM      6  C   UNL     1       4.193   2.600  19.467  0.00  0.00    +0.000 C 
BRANCH   6   7
ATOM      7  O   UNL     1       3.078   1.790  19.130  0.00  0.00    +0.000 OA
BRANCH   7   9
ATOM      8  C   UNL     1       1.557   2.745  20.716  0.00  0.00    +0.000 C 
ATOM      9  C   UNL     1       1.866   2.534  19.248  0.00  0.00    +0.000 C 
ENDBRANCH   7   9
ENDBRANCH   6   7
ENDBRANCH   1   6
BRANCH   4  10
ATOM     10  C   UNL     1       5.030   4.708  15.917  0.00  0.00    +0.000 C 
BRANCH  10  11
ATOM     11  O   UNL     1       6.290   4.048  15.813  0.00  0.00    +0.000 OA
BRANCH  11  12
ATOM     12  C   UNL     1       6.909   4.257  14.549  0.00  0.00    +0.000 C 
ATOM     13  C   UNL     1       5.932   3.846  13.461  0.00  0.00    +0.000 C 
ENDBRANCH  11  12
ENDBRANCH  10  11
ENDBRANCH   4  10
BRANCH   4  14
ATOM     14  C   UNL     1       5.299   6.754  17.288  0.00  0.00    +0.000 C 
BRANCH  14  15
ATOM     15  O   UNL     1       6.576   6.976  16.694  0.00  0.00    +0.000 OA
BRANCH  15  16
ATOM     16  C   UNL     1       7.476   7.595  17.610  0.00  0.00    +0.000 C 
ATOM     17  C   UNL     1       7.967   6.567  18.613  0.00  0.00    +0.000 C 
ENDBRANCH  15  16
ENDBRANCH  14  15
ENDBRANCH   4  14
TORSDOF 9
ENDMDL
MODEL 7
REMARK VINA RESULT:      -5.2      2.015      6.033
REMARK  Name = 
REMARK  12 active torsions:
REMARK  status: ('A' for Active; 'I' for Inactive)
REMARK    1  A    between atoms: C_1  and  C_2
REMARK    2  A    between atoms: C_2  and  O_3
REMARK    3  A    between atoms: O_3  and  C_4
REMARK    4  A    between atoms: C_4  and  N_5
REMARK    5  A    between atoms: N_8  and  C_9
REMARK    6  A    between atoms: N_8  and  C_13
REMARK    7  A    between atoms: C_9  and  O_10
REMARK    8  A    between atoms: O_10  and  C_11
REMARK    9  A    between atoms: C_11  and  C_12
REMARK   10  A    between atoms: C_13  and  O_14
REMARK   11  A    between atoms: O_14  and  C_15
REMARK   12  A    between atoms: C_15  and  C_16
REMARK                            x       y       z     vdW  Elec       q    Type
REMARK                         _______ _______ _______ _____ _____    ______ ____
ROOT
ATOM      1  N   UNL     1       5.222   3.803  18.689  0.00  0.00    +0.000 N 
ATOM      2  C   UNL     1       4.931   3.886  17.352  0.00  0.00    +0.000 C 
ATOM      3  O   UNL     1       3.842   3.527  16.914  0.00  0.00    +0.000 OA
ATOM      4  N   UNL     1       5.925   4.408  16.555  0.00  0.00    +0.000 N 
ATOM      5  H   UNL     1       6.188   3.633  18.923  0.00  0.00    +0.000 HD
ENDROOT
BRANCH   1   6
ATOM      6  C   UNL     1       4.265   3.206  19.567  0.00  0.00    +0.000 C 
BRANCH   6   7
ATOM      7  O   UNL     1       3.161   4.092  19.651  0.00  0.00    +0.000 OA
BRANCH   7   9
ATOM      8  C   UNL     1       2.391   2.705  21.447  0.00  0.00    +0.000 C 
ATOM      9  C   UNL     1       2.646   4.125  20.982  0.00  0.00    +0.000 C 
ENDBRANCH   7   9
ENDBRANCH   6   7
ENDBRANCH   1   6
BRANCH   4  10
ATOM     10  C   UNL     1       7.240   4.773  17.028  0.00  0.00    +0.000 C 
BRANCH  10  11
ATOM     11  O   UNL     1       7.486   6.105  16.581  0.00  0.00    +0.000 OA
BRANCH  11  12
ATOM     12  C   UNL     1       6.917   7.081  17.445  0.00  0.00    +0.000 C 
ATOM     13  C   UNL     1       7.943   8.176  17.675  0.00  0.00    +0.000 C 
ENDBRANCH  11  12
ENDBRANCH  10  11
ENDBRANCH   4  10
BRANCH   4  14
ATOM     14  C   UNL     1       5.614   4.626  15.163  0.00  0.00    +0.000 C 
BRANCH  14  15
ATOM     15  O   UNL     1       6.156   3.548  14.404  0.00  0.00    +0.000 OA
BRANCH  15  16
ATOM     16  C   UNL     1       6.473   3.955  13.074  0.00  0.00    +0.000 C 
ATOM     17  C   UNL     1       5.729   3.079  12.084  0.00  0.00    +0.000 C 
ENDBRANCH  15  16
ENDBRANCH  14  15
ENDBRANCH   4  14
TORSDOF 9
ENDMDL
MODEL 8
REMARK VINA RESULT:      -5.1      2.140      5.880
REMARK  Name = 
REMARK  12 active torsions:
REMARK  status: ('A' for Active; 'I' for Inactive)
REMARK    1  A    between atoms: C_1  and  C_2
REMARK    2  A    between atoms: C_2  and  O_3
REMARK    3  A    between atoms: O_3  and  C_4
REMARK    4  A    between atoms: C_4  and  N_5
REMARK    5  A    between atoms: N_8  and  C_9
REMARK    6  A    between atoms: N_8  and  C_13
REMARK    7  A    between atoms: C_9  and  O_10
REMARK    8  A    between atoms: O_10  and  C_11
REMARK    9  A    between atoms: C_11  and  C_12
REMARK   10  A    between atoms: C_13  and  O_14
REMARK   11  A    between atoms: O_14  and  C_15
REMARK   12  A    between atoms: C_15  and  C_16
REMARK                            x       y       z     vdW  Elec       q    Type
REMARK                         _______ _______ _______ _____ _____    ______ ____
ROOT
ATOM      1  N   UNL     1       4.740   3.384  18.788  0.00  0.00    +0.000 N 
ATOM      2  C   UNL     1       4.689   3.730  17.462  0.00  0.00    +0.000 C 
ATOM      3  O   UNL     1       3.680   3.534  16.791  0.00  0.00    +0.000 OA
ATOM      4  N   UNL     1       5.826   4.317  16.953  0.00  0.00    +0.000 N 
ATOM      5  H   UNL     1       5.644   3.107  19.139  0.00  0.00    +0.000 HD
ENDROOT
BRANCH   1   6
ATOM      6  C   UNL     1       3.623   2.705  19.366  0.00  0.00    +0.000 C 
BRANCH   6   7
ATOM      7  O   UNL     1       3.356   3.324  20.614  0.00  0.00    +0.000 OA
BRANCH   7   9
ATOM      8  C   UNL     1       1.045   3.908  20.360  0.00  0.00    +0.000 C 
ATOM      9  C   UNL     1       2.466   4.428  20.445  0.00  0.00    +0.000 C 
ENDBRANCH   7   9
ENDBRANCH   6   7
ENDBRANCH   1   6
BRANCH   4  10
ATOM     10  C   UNL     1       7.051   4.496  17.696  0.00  0.00    +0.000 C 
BRANCH  10  11
ATOM     11  O   UNL     1       6.819   5.549  18.630  0.00  0.00    +0.000 OA
BRANCH  11  12
ATOM     12  C   UNL     1       7.872   6.505  18.643  0.00  0.00    +0.000 C 
ATOM     13  C   UNL     1       7.589   7.547  17.574  0.00  0.00    +0.000 C 
ENDBRANCH  11  12
ENDBRANCH  10  11
ENDBRANCH   4  10
BRANCH   4  14
ATOM     14  C   UNL     1       5.770   4.807  15.598  0.00  0.00    +0.000 C 
BRANCH  14  15
ATOM     15  O   UNL     1       6.418   3.862  14.748  0.00  0.00    +0.000 OA
BRANCH  15  16
ATOM     16  C   UNL     1       6.537   4.357  13.415  0.00  0.00    +0.000 C 
ATOM     17  C   UNL     1       5.972   3.338  12.443  0.00  0.00    +0.000 C 
ENDBRANCH  15  16
ENDBRANCH  14  15
ENDBRANCH   4  14
TORSDOF 9
ENDMDL
MODEL 9
REMARK VINA RESULT:      -5.1      3.092      5.647
REMARK  Name = 
REMARK  12 active torsions:
REMARK  status: ('A' for Active; 'I' for Inactive)
REMARK    1  A    between atoms: C_1  and  C_2
REMARK    2  A    between atoms: C_2  and  O_3
REMARK    3  A    between atoms: O_3  and  C_4
REMARK    4  A    between atoms: C_4  and  N_5
REMARK    5  A    between atoms: N_8  and  C_9
REMARK    6  A    between atoms: N_8  and  C_13
REMARK    7  A    between atoms: C_9  and  O_10
REMARK    8  A    between atoms: O_10  and  C_11
REMARK    9  A    between atoms: C_11  and  C_12
REMARK   10  A    between atoms: C_13  and  O_14
REMARK   11  A    between atoms: O_14  and  C_15
REMARK   12  A    between atoms: C_15  and  C_16
REMARK                            x       y       z     vdW  Elec       q    Type
REMARK                         _______ _______ _______ _____ _____    ______ ____
ROOT
ATOM      1  N   UNL     1       5.950   5.110  17.212  0.00  0.00    +0.000 N 
ATOM      2  C   UNL     1       4.796   4.454  16.867  0.00  0.00    +0.000 C 
ATOM      3  O   UNL     1       4.703   3.846  15.805  0.00  0.00    +0.000 OA
ATOM      4  N   UNL     1       3.776   4.515  17.790  0.00  0.00    +0.000 N 
ATOM      5  H   UNL     1       5.838   5.937  17.777  0.00  0.00    +0.000 HD
ENDROOT
BRANCH   1   6
ATOM      6  C   UNL     1       7.027   5.150  16.273  0.00  0.00    +0.000 C 
BRANCH   6   7
ATOM      7  O   UNL     1       7.631   6.429  16.381  0.00  0.00    +0.000 OA
BRANCH   7   9
ATOM      8  C   UNL     1       7.895   8.406  17.710  0.00  0.00    +0.000 C 
ATOM      9  C   UNL     1       7.452   6.957  17.695  0.00  0.00    +0.000 C 
ENDBRANCH   7   9
ENDBRANCH   6   7
ENDBRANCH   1   6
BRANCH   4  10
ATOM     10  C   UNL     1       3.830   5.280  19.014  0.00  0.00    +0.000 C 
BRANCH  10  11
ATOM     11  O   UNL     1       3.776   6.656  18.644  0.00  0.00    +0.000 OA
BRANCH  11  12
ATOM     12  C   UNL     1       2.464   7.196  18.750  0.00  0.00    +0.000 C 
ATOM     13  C   UNL     1       2.357   8.388  17.816  0.00  0.00    +0.000 C 
ENDBRANCH  11  12
ENDBRANCH  10  11
ENDBRANCH   4  10
BRANCH   4  14
ATOM     14  C   UNL     1       2.591   3.737  17.521  0.00  0.00    +0.000 C 
BRANCH  14  15
ATOM     15  O   UNL     1       2.608   2.582  18.356  0.00  0.00    +0.000 OA
BRANCH  15  16
ATOM     16  C   UNL     1       1.302   2.263  18.831  0.00  0.00    +0.000 C 
ATOM     17  C   UNL     1       0.880   3.278  19.877  0.00  0.00    +0.000 C 
ENDBRANCH  15  16
ENDBRANCH  14  15
ENDBRANCH   4  14
TORSDOF 9
ENDMDL
