MODEL 1
REMARK VINA RESULT:      -7.3      0.000      0.000
REMARK  Name = 
REMARK  4 active torsions:
REMARK  status: ('A' for Active; 'I' for Inactive)
REMARK    1  A    between atoms: C_1  and  C_2
REMARK    2  A    between atoms: C_8  and  C_9
REMARK    3  A    between atoms: C_9  and  C_10
REMARK    4  A    between atoms: C_10  and  C_11
REMARK                            x       y       z     vdW  Elec       q    Type
REMARK                         _______ _______ _______ _____ _____    ______ ____
ROOT
ATOM      1  C   UNL     1       4.073   3.442  17.742  0.00  0.00    +0.000 C 
ENDROOT
BRANCH   1   9
ATOM      2  C   UNL     1       1.409   2.721  21.437  0.00  0.00    +0.000 C 
ATOM      3  C   UNL     1       1.896   2.787  20.012  0.00  0.00    +0.000 C 
ATOM      4  O   UNL     1       1.714   1.849  19.239  0.00  0.00    +0.000 OA
ATOM      5  N   UNL     1       2.495   3.966  19.612  0.00  0.00    +0.000 N 
ATOM      6  C   UNL     1       2.648   5.171  20.407  0.00  0.00    +0.000 C 
ATOM      7  C   UNL     1       2.402   6.283  19.405  0.00  0.00    +0.000 C 
ATOM      8  C   UNL     1       3.026   5.740  18.127  0.00  0.00    +0.000 C 
ATOM      9  C   UNL     1       2.825   4.215  18.205  0.00  0.00    +0.000 C 
ENDBRANCH   1   9
BRANCH   1  10
ATOM     10  C   UNL     1       5.335   4.306  17.785  0.00  0.00    +0.000 C 
BRANCH  10  11
ATOM     11  C   UNL     1       5.928   4.514  16.416  0.00  0.00    +0.000 A 
ATOM     12  C   UNL     1       5.347   3.954  15.284  0.00  0.00    +0.000 A 
ATOM     13  C   UNL     1       5.946   4.169  14.048  0.00  0.00    +0.000 A 
ATOM     14  C   UNL     1       7.091   4.938  14.009  0.00  0.00    +0.000 A 
ATOM     15 CL   UNL     1       7.911   5.255  12.542  0.00  0.00    +0.000 Cl
ATOM     16  N   UNL     1       7.639   5.480  15.113  0.00  0.00    +0.000 NA
ATOM     17  N   UNL     1       7.048   5.265  16.330  0.00  0.00    +0.000 NA
ENDBRANCH  10  11
ENDBRANCH   1  10
TORSDOF 3
ENDMDL
MODEL 2
REMARK VINA RESULT:      -7.1      1.160      1.295
REMARK  Name = 
REMARK  4 active torsions:
REMARK  status: ('A' for Active; 'I' for Inactive)
REMARK    1  A    between atoms: C_1  and  C_2
REMARK    2  A    between atoms: C_8  and  C_9
REMARK    3  A    between atoms: C_9  and  C_10
REMARK    4  A    between atoms: C_10  and  C_11
REMARK                            x       y       z     vdW  Elec       q    Type
REMARK                         _______ _______ _______ _____ _____    ______ ____
ROOT
ATOM      1  C   UNL     1       4.723   4.546  18.262  0.00  0.00    +0.000 C 
ENDROOT
BRANCH   1   9
ATOM      2  C   UNL     1       0.753   2.284  18.887  0.00  0.00    +0.000 C 
ATOM      3  C   UNL     1       1.851   3.106  18.262  0.00  0.00    +0.000 C 
ATOM      4  O   UNL     1       2.213   2.901  17.105  0.00  0.00    +0.000 OA
ATOM      5  N   UNL     1       2.378   4.127  19.029  0.00  0.00    +0.000 N 
ATOM      6  C   UNL     1       1.939   4.529  20.353  0.00  0.00    +0.000 C 
ATOM      7  C   UNL     1       2.040   6.042  20.310  0.00  0.00    +0.000 C 
ATOM      8  C   UNL     1       3.279   6.280  19.459  0.00  0.00    +0.000 C 
ATOM      9  C   UNL     1       3.304   5.110  18.458  0.00  0.00    +0.000 C 
ENDBRANCH   1   9
BRANCH   1  10
ATOM     10  C   UNL     1       5.682   5.587  17.682  0.00  0.00    +0.000 C 
BRANCH  10  11
ATOM     11  C   UNL     1       6.065   5.277  16.259  0.00  0.00    +0.000 A 
ATOM     12  C   UNL     1       5.261   4.480  15.451  0.00  0.00    +0.000 A 
ATOM     13  C   UNL     1       5.672   4.217  14.149  0.00  0.00    +0.000 A 
ATOM     14  C   UNL     1       6.862   4.769  13.723  0.00  0.00    +0.000 A 
ATOM     15 CL   UNL     1       7.462   4.500  12.144  0.00  0.00    +0.000 Cl
ATOM     16  N   UNL     1       7.627   5.545  14.513  0.00  0.00    +0.000 NA
ATOM     17  N   UNL     1       7.221   5.802  15.796  0.00  0.00    +0.000 NA
ENDBRANCH  10  11
ENDBRANCH   1  10
TORSDOF 3
ENDMDL
MODEL 3
REMARK VINA RESULT:      -7.1      1.211      1.495
REMARK  Name = 
REMARK  4 active torsions:
REMARK  status: ('A' for Active; 'I' for Inactive)
REMARK    1  A    between atoms: C_1  and  C_2
REMARK    2  A    between atoms: C_8  and  C_9
REMARK    3  A    between atoms: C_9  and  C_10
REMARK    4  A    between atoms: C_10  and  C_11
REMARK                            x       y       z     vdW  Elec       q    Type
REMARK                         _______ _______ _______ _____ _____    ______ ____
ROOT
ATOM      1  C   UNL     1       5.326   5.460  18.554  0.00  0.00    +0.000 C 
ENDROOT
BRANCH   1   9
ATOM      2  C   UNL     1       1.284   4.601  20.600  0.00  0.00    +0.000 C 
ATOM      3  C   UNL     1       2.453   4.532  19.653  0.00  0.00    +0.000 C 
ATOM      4  O   UNL     1       2.936   3.450  19.324  0.00  0.00    +0.000 OA
ATOM      5  N   UNL     1       2.907   5.729  19.133  0.00  0.00    +0.000 N 
ATOM      6  C   UNL     1       2.331   7.043  19.360  0.00  0.00    +0.000 C 
ATOM      7  C   UNL     1       2.455   7.716  18.007  0.00  0.00    +0.000 C 
ATOM      8  C   UNL     1       3.782   7.189  17.480  0.00  0.00    +0.000 C 
ATOM      9  C   UNL     1       3.901   5.767  18.057  0.00  0.00    +0.000 C 
ENDBRANCH   1   9
BRANCH   1  10
ATOM     10  C   UNL     1       5.902   4.199  17.909  0.00  0.00    +0.000 C 
BRANCH  10  11
ATOM     11  C   UNL     1       6.308   4.427  16.477  0.00  0.00    +0.000 A 
ATOM     12  C   UNL     1       5.726   3.712  15.437  0.00  0.00    +0.000 A 
ATOM     13  C   UNL     1       6.150   3.955  14.136  0.00  0.00    +0.000 A 
ATOM     14  C   UNL     1       7.131   4.907  13.943  0.00  0.00    +0.000 A 
ATOM     15 CL   UNL     1       7.730   5.276  12.384  0.00  0.00    +0.000 Cl
ATOM     16  N   UNL     1       7.682   5.597  14.958  0.00  0.00    +0.000 NA
ATOM     17  N   UNL     1       7.263   5.354  16.240  0.00  0.00    +0.000 NA
ENDBRANCH  10  11
ENDBRANCH   1  10
TORSDOF 3
ENDMDL
MODEL 4
REMARK VINA RESULT:      -7.0      2.381      2.626
REMARK  Name = 
REMARK  4 active torsions:
REMARK  status: ('A' for Active; 'I' for Inactive)
REMARK    1  A    between atoms: C_1  and  C_2
REMARK    2  A    between atoms: C_8  and  C_9
REMARK    3  A    between atoms: C_9  and  C_10
REMARK    4  A    between atoms: C_10  and  C_11
REMARK                            x       y       z     vdW  Elec       q    Type
REMARK                         _______ _______ _______ _____ _____    ______ ____
ROOT
ATOM      1  C   UNL     1       2.782   3.721  17.222  0.00  0.00    +0.000 C 
ENDROOT
BRANCH   1   9
ATOM      2  C   UNL     1       1.271   2.679  21.453  0.00  0.00    +0.000 C 
ATOM      3  C   UNL     1       1.306   2.958  19.973  0.00  0.00    +0.000 C 
ATOM      4  O   UNL     1       0.707   2.235  19.179  0.00  0.00    +0.000 OA
ATOM      5  N   UNL     1       1.989   4.088  19.567  0.00  0.00    +0.000 N 
ATOM      6  C   UNL     1       2.623   5.070  20.428  0.00  0.00    +0.000 C 
ATOM      7  C   UNL     1       2.325   6.386  19.736  0.00  0.00    +0.000 C 
ATOM      8  C   UNL     1       2.405   6.025  18.259  0.00  0.00    +0.000 C 
ATOM      9  C   UNL     1       1.922   4.565  18.182  0.00  0.00    +0.000 C 
ENDBRANCH   1   9
BRANCH   1  10
ATOM     10  C   UNL     1       4.052   3.199  17.895  0.00  0.00    +0.000 C 
BRANCH  10  11
ATOM     11  C   UNL     1       5.119   4.257  17.994  0.00  0.00    +0.000 A 
ATOM     12  C   UNL     1       5.435   5.069  16.911  0.00  0.00    +0.000 A 
ATOM     13  C   UNL     1       6.439   6.020  17.057  0.00  0.00    +0.000 A 
ATOM     14  C   UNL     1       7.069   6.112  18.281  0.00  0.00    +0.000 A 
ATOM     15 CL   UNL     1       8.322   7.241  18.563  0.00  0.00    +0.000 Cl
ATOM     16  N   UNL     1       6.748   5.324  19.324  0.00  0.00    +0.000 NA
ATOM     17  N   UNL     1       5.760   4.386  19.177  0.00  0.00    +0.000 NA
ENDBRANCH  10  11
ENDBRANCH   1  10
TORSDOF 3
ENDMDL
MODEL 5
REMARK VINA RESULT:      -6.9      1.548      2.434
REMARK  Name = 
REMARK  4 active torsions:
REMARK  status: ('A' for Active; 'I' for Inactive)
REMARK    1  A    between atoms: C_1  and  C_2
REMARK    2  A    between atoms: C_8  and  C_9
REMARK    3  A    between atoms: C_9  and  C_10
REMARK    4  A    between atoms: C_10  and  C_11
REMARK                            x       y       z     vdW  Elec       q    Type
REMARK                         _______ _______ _______ _____ _____    ______ ____
ROOT
ATOM      1  C   UNL     1       2.442   5.771  18.440  0.00  0.00    +0.000 C 
ENDROOT
BRANCH   1   9
ATOM      2  C   UNL     1       3.508   1.289  18.263  0.00  0.00    +0.000 C 
ATOM      3  C   UNL     1       2.778   2.595  18.092  0.00  0.00    +0.000 C 
ATOM      4  O   UNL     1       2.258   2.892  17.018  0.00  0.00    +0.000 OA
ATOM      5  N   UNL     1       2.673   3.402  19.209  0.00  0.00    +0.000 N 
ATOM      6  C   UNL     1       3.142   3.089  20.547  0.00  0.00    +0.000 C 
ATOM      7  C   UNL     1       2.052   3.653  21.439  0.00  0.00    +0.000 C 
ATOM      8  C   UNL     1       1.626   4.918  20.705  0.00  0.00    +0.000 C 
ATOM      9  C   UNL     1       1.819   4.593  19.212  0.00  0.00    +0.000 C 
ENDBRANCH   1   9
BRANCH   1  10
ATOM     10  C   UNL     1       3.933   5.931  18.738  0.00  0.00    +0.000 C 
BRANCH  10  11
ATOM     11  C   UNL     1       4.789   5.627  17.536  0.00  0.00    +0.000 A 
ATOM     12  C   UNL     1       5.601   4.500  17.494  0.00  0.00    +0.000 A 
ATOM     13  C   UNL     1       6.379   4.277  16.363  0.00  0.00    +0.000 A 
ATOM     14  C   UNL     1       6.298   5.190  15.332  0.00  0.00    +0.000 A 
ATOM     15 CL   UNL     1       7.219   5.014  13.901  0.00  0.00    +0.000 Cl
ATOM     16  N   UNL     1       5.501   6.274  15.383  0.00  0.00    +0.000 NA
ATOM     17  N   UNL     1       4.737   6.492  16.499  0.00  0.00    +0.000 NA
ENDBRANCH  10  11
ENDBRANCH   1  10
TORSDOF 3
ENDMDL
MODEL 6
REMARK VINA RESULT:      -6.9      2.458      3.298
REMARK  Name = 
REMARK  4 active torsions:
REMARK  status: ('A' for Active; 'I' for Inactive)
REMARK    1  A    between atoms: C_1  and  C_2
REMARK    2  A    between atoms: C_8  and  C_9
REMARK    3  A    between atoms: C_9  and  C_10
REMARK    4  A    between atoms: C_10  and  C_11
REMARK                            x       y       z     vdW  Elec       q    Type
REMARK                         _______ _______ _______ _____ _____    ______ ____
ROOT
ATOM      1  C   UNL     1       3.472   3.868  17.137  0.00  0.00    +0.000 C 
ENDROOT
BRANCH   1   9
ATOM      2  C   UNL     1       1.680   6.295  20.624  0.00  0.00    +0.000 C 
ATOM      3  C   UNL     1       2.660   5.576  19.734  0.00  0.00    +0.000 C 
ATOM      4  O   UNL     1       3.748   6.077  19.457  0.00  0.00    +0.000 OA
ATOM      5  N   UNL     1       2.301   4.314  19.302  0.00  0.00    +0.000 N 
ATOM      6  C   UNL     1       1.100   3.584  19.669  0.00  0.00    +0.000 C 
ATOM      7  C   UNL     1       1.589   2.156  19.812  0.00  0.00    +0.000 C 
ATOM      8  C   UNL     1       2.636   2.039  18.712  0.00  0.00    +0.000 C 
ATOM      9  C   UNL     1       3.252   3.446  18.601  0.00  0.00    +0.000 C 
ENDBRANCH   1   9
BRANCH   1  10
ATOM     10  C   UNL     1       4.922   3.670  16.692  0.00  0.00    +0.000 C 
BRANCH  10  11
ATOM     11  C   UNL     1       5.787   4.855  17.029  0.00  0.00    +0.000 A 
ATOM     12  C   UNL     1       6.813   4.760  17.962  0.00  0.00    +0.000 A 
ATOM     13  C   UNL     1       7.571   5.891  18.243  0.00  0.00    +0.000 A 
ATOM     14  C   UNL     1       7.266   7.057  17.570  0.00  0.00    +0.000 A 
ATOM     15 CL   UNL     1       8.131   8.506  17.847  0.00  0.00    +0.000 Cl
ATOM     16  N   UNL     1       6.275   7.133  16.662  0.00  0.00    +0.000 NA
ATOM     17  N   UNL     1       5.528   6.018  16.389  0.00  0.00    +0.000 NA
ENDBRANCH  10  11
ENDBRANCH   1  10
TORSDOF 3
ENDMDL
MODEL 7
REMARK VINA RESULT:      -6.9      2.620      3.071
REMARK  Name = 
REMARK  4 active torsions:
REMARK  status: ('A' for Active; 'I' for Inactive)
REMARK    1  A    between atoms: C_1  and  C_2
REMARK    2  A    between atoms: C_8  and  C_9
REMARK    3  A    between atoms: C_9  and  C_10
REMARK    4  A    between atoms: C_10  and  C_11
REMARK                            x       y       z     vdW  Elec       q    Type
REMARK                         _______ _______ _______ _____ _____    ______ ____
ROOT
ATOM      1  C   UNL     1       4.877   3.914  18.084  0.00  0.00    +0.000 C 
ENDROOT
BRANCH   1   9
ATOM      2  C   UNL     1       0.649   2.294  18.955  0.00  0.00    +0.000 C 
ATOM      3  C   UNL     1       1.843   2.868  18.239  0.00  0.00    +0.000 C 
ATOM      4  O   UNL     1       2.176   2.451  17.131  0.00  0.00    +0.000 OA
ATOM      5  N   UNL     1       2.498   3.916  18.858  0.00  0.00    +0.000 N 
ATOM      6  C   UNL     1       2.114   4.561  20.101  0.00  0.00    +0.000 C 
ATOM      7  C   UNL     1       2.409   6.025  19.839  0.00  0.00    +0.000 C 
ATOM      8  C   UNL     1       3.669   5.976  18.987  0.00  0.00    +0.000 C 
ATOM      9  C   UNL     1       3.543   4.678  18.168  0.00  0.00    +0.000 C 
ENDBRANCH   1   9
BRANCH   1  10
ATOM     10  C   UNL     1       5.757   4.416  16.938  0.00  0.00    +0.000 C 
BRANCH  10  11
ATOM     11  C   UNL     1       6.538   5.647  17.319  0.00  0.00    +0.000 A 
ATOM     12  C   UNL     1       7.419   5.641  18.393  0.00  0.00    +0.000 A 
ATOM     13  C   UNL     1       8.103   6.811  18.706  0.00  0.00    +0.000 A 
ATOM     14  C   UNL     1       7.872   7.923  17.923  0.00  0.00    +0.000 A 
ATOM     15 CL   UNL     1       8.654   9.414  18.227  0.00  0.00    +0.000 Cl
ATOM     16  N   UNL     1       7.021   7.914  16.880  0.00  0.00    +0.000 NA
ATOM     17  N   UNL     1       6.347   6.760  16.575  0.00  0.00    +0.000 NA
ENDBRANCH  10  11
ENDBRANCH   1  10
TORSDOF 3
ENDMDL
MODEL 8
REMARK VINA RESULT:      -6.7      2.190      2.660
REMARK  Name = 
REMARK  4 active torsions:
REMARK  status: ('A' for Active; 'I' for Inactive)
REMARK    1  A    between atoms: C_1  and  C_2
REMARK    2  A    between atoms: C_8  and  C_9
REMARK    3  A    between atoms: C_9  and  C_10
REMARK    4  A    between atoms: C_10  and  C_11
REMARK                            x       y       z     vdW  Elec       q    Type
REMARK                         _______ _______ _______ _____ _____    ______ ____
ROOT
ATOM      1  C   UNL     1       4.309   3.568  17.769  0.00  0.00    +0.000 C 
ENDROOT
BRANCH   1   9
ATOM      2  C   UNL     1       1.486   2.682  21.306  0.00  0.00    +0.000 C 
ATOM      3  C   UNL     1       2.060   2.755  19.915  0.00  0.00    +0.000 C 
ATOM      4  O   UNL     1       2.030   1.780  19.167  0.00  0.00    +0.000 OA
ATOM      5  N   UNL     1       2.559   3.978  19.510  0.00  0.00    +0.000 N 
ATOM      6  C   UNL     1       2.531   5.217  20.268  0.00  0.00    +0.000 C 
ATOM      7  C   UNL     1       2.240   6.265  19.211  0.00  0.00    +0.000 C 
ATOM      8  C   UNL     1       3.004   5.752  17.997  0.00  0.00    +0.000 C 
ATOM      9  C   UNL     1       2.957   4.218  18.120  0.00  0.00    +0.000 C 
ENDBRANCH   1   9
BRANCH   1  10
ATOM     10  C   UNL     1       5.014   4.290  16.619  0.00  0.00    +0.000 C 
BRANCH  10  11
ATOM     11  C   UNL     1       5.965   5.349  17.111  0.00  0.00    +0.000 A 
ATOM     12  C   UNL     1       6.757   5.144  18.235  0.00  0.00    +0.000 A 
ATOM     13  C   UNL     1       7.607   6.162  18.650  0.00  0.00    +0.000 A 
ATOM     14  C   UNL     1       7.624   7.330  17.915  0.00  0.00    +0.000 A 
ATOM     15 CL   UNL     1       8.627   8.647  18.345  0.00  0.00    +0.000 Cl
ATOM     16  N   UNL     1       6.857   7.513  16.825  0.00  0.00    +0.000 NA
ATOM     17  N   UNL     1       6.018   6.509  16.418  0.00  0.00    +0.000 NA
ENDBRANCH  10  11
ENDBRANCH   1  10
TORSDOF 3
ENDMDL
MODEL 9
REMARK VINA RESULT:      -6.7      4.424      5.945
REMARK  Name = 
REMARK  4 active torsions:
REMARK  status: ('A' for Active; 'I' for Inactive)
REMARK    1  A    between atoms: C_1  and  C_2
REMARK    2  A    between atoms: C_8  and  C_9
REMARK    3  A    between atoms: C_9  and  C_10
REMARK    4  A    between atoms: C_10  and  C_11
REMARK                            x       y       z     vdW  Elec       q    Type
REMARK                         _______ _______ _______ _____ _____    ______ ____
ROOT
ATOM      1  C   UNL     1       2.354   5.358  18.054  0.00  0.00    +0.000 C 
ENDROOT
BRANCH   1   9
ATOM      2  C   UNL     1       1.444   2.623  21.653  0.00  0.00    +0.000 C 
ATOM      3  C   UNL     1       2.074   3.672  20.775  0.00  0.00    +0.000 C 
ATOM      4  O   UNL     1       2.351   4.784  21.219  0.00  0.00    +0.000 OA
ATOM      5  N   UNL     1       2.375   3.301  19.478  0.00  0.00    +0.000 N 
ATOM      6  C   UNL     1       2.202   1.983  18.895  0.00  0.00    +0.000 C 
ATOM      7  C   UNL     1       3.429   1.827  18.017  0.00  0.00    +0.000 C 
ATOM      8  C   UNL     1       3.648   3.233  17.476  0.00  0.00    +0.000 C 
ATOM      9  C   UNL     1       3.165   4.169  18.600  0.00  0.00    +0.000 C 
ENDBRANCH   1   9
BRANCH   1  10
ATOM     10  C   UNL     1       3.139   6.669  18.118  0.00  0.00    +0.000 C 
BRANCH  10  11
ATOM     11  C   UNL     1       2.297   7.813  18.617  0.00  0.00    +0.000 A 
ATOM     12  C   UNL     1       1.901   8.842  17.771  0.00  0.00    +0.000 A 
ATOM     13  C   UNL     1       1.134   9.879  18.291  0.00  0.00    +0.000 A 
ATOM     14  C   UNL     1       0.799   9.828  19.628  0.00  0.00    +0.000 A 
ATOM     15 CL   UNL     1      -0.132  11.057  20.368  0.00  0.00    +0.000 Cl
ATOM     16  N   UNL     1       1.183   8.822  20.435  0.00  0.00    +0.000 NA
ATOM     17  N   UNL     1       1.940   7.802  19.921  0.00  0.00    +0.000 NA
ENDBRANCH  10  11
ENDBRANCH   1  10
TORSDOF 3
ENDMDL
