MODEL 1
REMARK VINA RESULT:      -8.7      0.000      0.000
REMARK  Name = 
REMARK  1 active torsions:
REMARK  status: ('A' for Active; 'I' for Inactive)
REMARK    1  A    between atoms: C_7  and  C_8
REMARK                            x       y       z     vdW  Elec       q    Type
REMARK                         _______ _______ _______ _____ _____    ______ ____
ROOT
ATOM      1  O   UNL     1       2.784   8.160  17.095  0.00  0.00    +0.000 OA
ATOM      2  C   UNL     1       2.456   7.836  18.221  0.00  0.00    +0.000 C 
ATOM      3  O   UNL     1       2.123   8.695  19.231  0.00  0.00    +0.000 OA
ATOM      4  C   UNL     1       1.747   7.947  20.396  0.00  0.00    +0.000 C 
ATOM      5  C   UNL     1       1.885   6.545  19.966  0.00  0.00    +0.000 C 
ATOM      6  C   UNL     1       2.329   6.474  18.708  0.00  0.00    +0.000 C 
ATOM      7  C   UNL     1       2.596   5.186  17.983  0.00  0.00    +0.000 C 
ATOM      8  C   UNL     1       2.176   4.046  18.865  0.00  0.00    +0.000 A 
ATOM      9  C   UNL     1       1.710   4.168  20.128  0.00  0.00    +0.000 A 
ATOM     10  N   UNL     1       1.429   2.939  20.692  0.00  0.00    +0.000 N 
ATOM     11  N   UNL     1       1.914   1.980  19.789  0.00  0.00    +0.000 N 
ATOM     12  C   UNL     1       2.233   2.607  18.593  0.00  0.00    +0.000 A 
ATOM     13  O   UNL     1       2.491   2.086  17.525  0.00  0.00    +0.000 OA
ATOM     14  N   UNL     1       1.614   5.413  20.706  0.00  0.00    +0.000 N 
ATOM     15  H   UNL     1       1.812   2.859  21.633  0.00  0.00    +0.000 HD
ATOM     16  H   UNL     1       1.595   1.018  19.812  0.00  0.00    +0.000 HD
ATOM     17  H   UNL     1       1.148   5.491  21.603  0.00  0.00    +0.000 HD
ENDROOT
BRANCH   7  18
ATOM     18  C   UNL     1       4.061   5.064  17.579  0.00  0.00    +0.000 A 
ATOM     19  C   UNL     1       4.427   4.663  16.281  0.00  0.00    +0.000 A 
ATOM     20  C   UNL     1       5.774   4.575  15.923  0.00  0.00    +0.000 A 
ATOM     21 BR   UNL     1       6.236   4.040  14.171  0.00  0.00    +0.000 Br
ATOM     22  C   UNL     1       6.772   4.882  16.841  0.00  0.00    +0.000 A 
ATOM     23  C   UNL     1       6.415   5.280  18.127  0.00  0.00    +0.000 A 
ATOM     24 BR   UNL     1       7.765   5.707  19.381  0.00  0.00    +0.000 Br
ATOM     25  C   UNL     1       5.073   5.372  18.501  0.00  0.00    +0.000 A 
ENDBRANCH   7  18
TORSDOF 1
ENDMDL
MODEL 2
REMARK VINA RESULT:      -8.7      0.196      2.006
REMARK  Name = 
REMARK  1 active torsions:
REMARK  status: ('A' for Active; 'I' for Inactive)
REMARK    1  A    between atoms: C_7  and  C_8
REMARK                            x       y       z     vdW  Elec       q    Type
REMARK                         _______ _______ _______ _____ _____    ______ ____
ROOT
ATOM      1  O   UNL     1       2.740   8.177  17.064  0.00  0.00    +0.000 OA
ATOM      2  C   UNL     1       2.441   7.902  18.211  0.00  0.00    +0.000 C 
ATOM      3  O   UNL     1       2.101   8.802  19.182  0.00  0.00    +0.000 OA
ATOM      4  C   UNL     1       1.768   8.104  20.391  0.00  0.00    +0.000 C 
ATOM      5  C   UNL     1       1.939   6.686  20.031  0.00  0.00    +0.000 C 
ATOM      6  C   UNL     1       2.363   6.564  18.769  0.00  0.00    +0.000 C 
ATOM      7  C   UNL     1       2.655   5.248  18.106  0.00  0.00    +0.000 C 
ATOM      8  C   UNL     1       2.283   4.143  19.052  0.00  0.00    +0.000 A 
ATOM      9  C   UNL     1       1.837   4.317  20.316  0.00  0.00    +0.000 A 
ATOM     10  N   UNL     1       1.601   3.111  20.947  0.00  0.00    +0.000 N 
ATOM     11  N   UNL     1       2.097   2.121  20.085  0.00  0.00    +0.000 N 
ATOM     12  C   UNL     1       2.377   2.694  18.853  0.00  0.00    +0.000 A 
ATOM     13  O   UNL     1       2.632   2.127  17.808  0.00  0.00    +0.000 OA
ATOM     14  N   UNL     1       1.714   5.587  20.832  0.00  0.00    +0.000 N 
ATOM     15  H   UNL     1       2.003   3.090  21.884  0.00  0.00    +0.000 HD
ATOM     16  H   UNL     1       1.807   1.153  20.163  0.00  0.00    +0.000 HD
ATOM     17  H   UNL     1       1.262   5.698  21.733  0.00  0.00    +0.000 HD
ENDROOT
BRANCH   7  18
ATOM     18  C   UNL     1       4.114   5.147  17.680  0.00  0.00    +0.000 A 
ATOM     19  C   UNL     1       5.156   5.446  18.576  0.00  0.00    +0.000 A 
ATOM     20  C   UNL     1       6.489   5.328  18.173  0.00  0.00    +0.000 A 
ATOM     21 BR   UNL     1       7.868   5.730  19.400  0.00  0.00    +0.000 Br
ATOM     22  C   UNL     1       6.805   4.913  16.884  0.00  0.00    +0.000 A 
ATOM     23  C   UNL     1       5.777   4.616  15.993  0.00  0.00    +0.000 A 
ATOM     24 BR   UNL     1       6.197   4.044  14.240  0.00  0.00    +0.000 Br
ATOM     25  C   UNL     1       4.441   4.729  16.380  0.00  0.00    +0.000 A 
ENDBRANCH   7  18
TORSDOF 1
ENDMDL
MODEL 3
REMARK VINA RESULT:      -7.2      9.889     11.871
REMARK  Name = 
REMARK  1 active torsions:
REMARK  status: ('A' for Active; 'I' for Inactive)
REMARK    1  A    between atoms: C_7  and  C_8
REMARK                            x       y       z     vdW  Elec       q    Type
REMARK                         _______ _______ _______ _____ _____    ______ ____
ROOT
ATOM      1  O   UNL     1      -6.527  14.543  16.575  0.00  0.00    +0.000 OA
ATOM      2  C   UNL     1      -6.861  14.632  17.742  0.00  0.00    +0.000 C 
ATOM      3  O   UNL     1      -7.194  15.789  18.388  0.00  0.00    +0.000 OA
ATOM      4  C   UNL     1      -7.577  15.495  19.739  0.00  0.00    +0.000 C 
ATOM      5  C   UNL     1      -7.443  14.030  19.825  0.00  0.00    +0.000 C 
ATOM      6  C   UNL     1      -6.995  13.525  18.672  0.00  0.00    +0.000 C 
ATOM      7  C   UNL     1      -6.730  12.065  18.442  0.00  0.00    +0.000 C 
ATOM      8  C   UNL     1      -7.158  11.304  19.664  0.00  0.00    +0.000 A 
ATOM      9  C   UNL     1      -7.628  11.859  20.803  0.00  0.00    +0.000 A 
ATOM     10  N   UNL     1      -7.916  10.904  21.758  0.00  0.00    +0.000 N 
ATOM     11  N   UNL     1      -7.432   9.689  21.248  0.00  0.00    +0.000 N 
ATOM     12  C   UNL     1      -7.106   9.860  19.911  0.00  0.00    +0.000 A 
ATOM     13  O   UNL     1      -6.846   8.999  19.092  0.00  0.00    +0.000 OA
ATOM     14  N   UNL     1      -7.721  13.228  20.912  0.00  0.00    +0.000 N 
ATOM     15  H   UNL     1      -7.537  11.155  22.671  0.00  0.00    +0.000 HD
ATOM     16  H   UNL     1      -7.755   8.796  21.603  0.00  0.00    +0.000 HD
ATOM     17  H   UNL     1      -8.190  13.614  21.723  0.00  0.00    +0.000 HD
ENDROOT
BRANCH   7  18
ATOM     18  C   UNL     1      -5.265  11.805  18.113  0.00  0.00    +0.000 A 
ATOM     19  C   UNL     1      -4.247  12.109  19.034  0.00  0.00    +0.000 A 
ATOM     20  C   UNL     1      -2.911  11.845  18.722  0.00  0.00    +0.000 A 
ATOM     21 BR   UNL     1      -1.565  12.257  19.983  0.00  0.00    +0.000 Br
ATOM     22  C   UNL     1      -2.567  11.281  17.498  0.00  0.00    +0.000 A 
ATOM     23  C   UNL     1      -3.572  10.979  16.583  0.00  0.00    +0.000 A 
ATOM     24 BR   UNL     1      -3.115  10.204  14.919  0.00  0.00    +0.000 Br
ATOM     25  C   UNL     1      -4.911  11.236  16.879  0.00  0.00    +0.000 A 
ENDBRANCH   7  18
TORSDOF 1
ENDMDL
MODEL 4
REMARK VINA RESULT:      -7.2      9.912     11.702
REMARK  Name = 
REMARK  1 active torsions:
REMARK  status: ('A' for Active; 'I' for Inactive)
REMARK    1  A    between atoms: C_7  and  C_8
REMARK                            x       y       z     vdW  Elec       q    Type
REMARK                         _______ _______ _______ _____ _____    ______ ____
ROOT
ATOM      1  O   UNL     1      -6.521  14.233  16.068  0.00  0.00    +0.000 OA
ATOM      2  C   UNL     1      -6.856  14.455  17.216  0.00  0.00    +0.000 C 
ATOM      3  O   UNL     1      -7.189  15.680  17.724  0.00  0.00    +0.000 OA
ATOM      4  C   UNL     1      -7.573  15.544  19.100  0.00  0.00    +0.000 C 
ATOM      5  C   UNL     1      -7.439  14.099  19.354  0.00  0.00    +0.000 C 
ATOM      6  C   UNL     1      -6.990  13.464  18.268  0.00  0.00    +0.000 C 
ATOM      7  C   UNL     1      -6.726  11.987  18.208  0.00  0.00    +0.000 C 
ATOM      8  C   UNL     1      -7.155  11.372  19.510  0.00  0.00    +0.000 A 
ATOM      9  C   UNL     1      -7.626  12.055  20.576  0.00  0.00    +0.000 A 
ATOM     10  N   UNL     1      -7.915  11.217  21.635  0.00  0.00    +0.000 N 
ATOM     11  N   UNL     1      -7.431   9.952  21.269  0.00  0.00    +0.000 N 
ATOM     12  C   UNL     1      -7.104   9.966  19.922  0.00  0.00    +0.000 A 
ATOM     13  O   UNL     1      -6.843   9.017  19.208  0.00  0.00    +0.000 OA
ATOM     14  N   UNL     1      -7.719  13.428  20.526  0.00  0.00    +0.000 N 
ATOM     15  H   UNL     1      -7.536  11.572  22.513  0.00  0.00    +0.000 HD
ATOM     16  H   UNL     1      -7.754   9.105  21.725  0.00  0.00    +0.000 HD
ATOM     17  H   UNL     1      -8.188  13.905  21.287  0.00  0.00    +0.000 HD
ENDROOT
BRANCH   7  18
ATOM     18  C   UNL     1      -5.261  11.691  17.912  0.00  0.00    +0.000 A 
ATOM     19  C   UNL     1      -4.863  11.139  16.681  0.00  0.00    +0.000 A 
ATOM     20  C   UNL     1      -3.513  10.893  16.421  0.00  0.00    +0.000 A 
ATOM     21 BR   UNL     1      -3.008  10.158  14.755  0.00  0.00    +0.000 Br
ATOM     22  C   UNL     1      -2.543  11.189  17.372  0.00  0.00    +0.000 A 
ATOM     23  C   UNL     1      -2.931  11.735  18.592  0.00  0.00    +0.000 A 
ATOM     24 BR   UNL     1      -1.618  12.147  19.890  0.00  0.00    +0.000 Br
ATOM     25  C   UNL     1      -4.276  11.986  18.869  0.00  0.00    +0.000 A 
ENDBRANCH   7  18
TORSDOF 1
ENDMDL
MODEL 5
REMARK VINA RESULT:      -6.5      7.867     10.119
REMARK  Name = 
REMARK  1 active torsions:
REMARK  status: ('A' for Active; 'I' for Inactive)
REMARK    1  A    between atoms: C_7  and  C_8
REMARK                            x       y       z     vdW  Elec       q    Type
REMARK                         _______ _______ _______ _____ _____    ______ ____
ROOT
ATOM      1  O   UNL     1      -1.193  10.674  22.958  0.00  0.00    +0.000 OA
ATOM      2  C   UNL     1      -1.968  11.612  22.910  0.00  0.00    +0.000 C 
ATOM      3  O   UNL     1      -3.056  11.786  23.719  0.00  0.00    +0.000 OA
ATOM      4  C   UNL     1      -3.701  13.027  23.398  0.00  0.00    +0.000 C 
ATOM      5  C   UNL     1      -2.871  13.578  22.312  0.00  0.00    +0.000 C 
ATOM      6  C   UNL     1      -1.877  12.741  22.002  0.00  0.00    +0.000 C 
ATOM      7  C   UNL     1      -0.868  13.000  20.920  0.00  0.00    +0.000 C 
ATOM      8  C   UNL     1      -1.111  14.372  20.360  0.00  0.00    +0.000 A 
ATOM      9  C   UNL     1      -2.121  15.194  20.723  0.00  0.00    +0.000 A 
ATOM     10  N   UNL     1      -2.096  16.380  20.015  0.00  0.00    +0.000 N 
ATOM     11  N   UNL     1      -1.115  16.218  19.024  0.00  0.00    +0.000 N 
ATOM     12  C   UNL     1      -0.382  15.072  19.298  0.00  0.00    +0.000 A 
ATOM     13  O   UNL     1       0.661  14.715  18.786  0.00  0.00    +0.000 OA
ATOM     14  N   UNL     1      -3.039  14.782  21.661  0.00  0.00    +0.000 N 
ATOM     15  H   UNL     1      -3.018  16.624  19.654  0.00  0.00    +0.000 HD
ATOM     16  H   UNL     1      -0.695  17.013  18.554  0.00  0.00    +0.000 HD
ATOM     17  H   UNL     1      -3.711  15.458  22.006  0.00  0.00    +0.000 HD
ENDROOT
BRANCH   7  18
ATOM     18  C   UNL     1      -0.930  11.938  19.829  0.00  0.00    +0.000 A 
ATOM     19  C   UNL     1      -2.106  11.720  19.090  0.00  0.00    +0.000 A 
ATOM     20  C   UNL     1      -2.137  10.755  18.081  0.00  0.00    +0.000 A 
ATOM     21 BR   UNL     1      -3.730  10.489  17.100  0.00  0.00    +0.000 Br
ATOM     22  C   UNL     1      -1.008   9.996  17.792  0.00  0.00    +0.000 A 
ATOM     23  C   UNL     1       0.159  10.207  18.521  0.00  0.00    +0.000 A 
ATOM     24 BR   UNL     1       1.702   9.185  18.130  0.00  0.00    +0.000 Br
ATOM     25  C   UNL     1       0.206  11.168  19.533  0.00  0.00    +0.000 A 
ENDBRANCH   7  18
TORSDOF 1
ENDMDL
MODEL 6
REMARK VINA RESULT:      -6.5      7.781     10.107
REMARK  Name = 
REMARK  1 active torsions:
REMARK  status: ('A' for Active; 'I' for Inactive)
REMARK    1  A    between atoms: C_7  and  C_8
REMARK                            x       y       z     vdW  Elec       q    Type
REMARK                         _______ _______ _______ _____ _____    ______ ____
ROOT
ATOM      1  O   UNL     1      -1.062  10.640  22.906  0.00  0.00    +0.000 OA
ATOM      2  C   UNL     1      -1.851  11.565  22.859  0.00  0.00    +0.000 C 
ATOM      3  O   UNL     1      -2.943  11.721  23.667  0.00  0.00    +0.000 OA
ATOM      4  C   UNL     1      -3.608  12.952  23.348  0.00  0.00    +0.000 C 
ATOM      5  C   UNL     1      -2.786  13.517  22.264  0.00  0.00    +0.000 C 
ATOM      6  C   UNL     1      -1.779  12.696  21.953  0.00  0.00    +0.000 C 
ATOM      7  C   UNL     1      -0.773  12.973  20.872  0.00  0.00    +0.000 C 
ATOM      8  C   UNL     1      -1.038  14.342  20.313  0.00  0.00    +0.000 A 
ATOM      9  C   UNL     1      -2.061  15.147  20.676  0.00  0.00    +0.000 A 
ATOM     10  N   UNL     1      -2.055  16.334  19.970  0.00  0.00    +0.000 N 
ATOM     11  N   UNL     1      -1.070  16.189  18.980  0.00  0.00    +0.000 N 
ATOM     12  C   UNL     1      -0.320  15.055  19.253  0.00  0.00    +0.000 A 
ATOM     13  O   UNL     1       0.730  14.715  18.741  0.00  0.00    +0.000 OA
ATOM     14  N   UNL     1      -2.973  14.718  21.613  0.00  0.00    +0.000 N 
ATOM     15  H   UNL     1      -2.980  16.564  19.609  0.00  0.00    +0.000 HD
ATOM     16  H   UNL     1      -0.663  16.991  18.511  0.00  0.00    +0.000 HD
ATOM     17  H   UNL     1      -3.655  15.384  21.959  0.00  0.00    +0.000 HD
ENDROOT
BRANCH   7  18
ATOM     18  C   UNL     1      -0.817  11.911  19.780  0.00  0.00    +0.000 A 
ATOM     19  C   UNL     1       0.316  11.137  19.471  0.00  0.00    +0.000 A 
ATOM     20  C   UNL     1       0.251  10.155  18.481  0.00  0.00    +0.000 A 
ATOM     21 BR   UNL     1       1.788   9.125  18.092  0.00  0.00    +0.000 Br
ATOM     22  C   UNL     1      -0.931   9.927  17.785  0.00  0.00    +0.000 A 
ATOM     23  C   UNL     1      -2.056  10.690  18.087  0.00  0.00    +0.000 A 
ATOM     24 BR   UNL     1      -3.671  10.383  17.152  0.00  0.00    +0.000 Br
ATOM     25  C   UNL     1      -2.007  11.676  19.074  0.00  0.00    +0.000 A 
ENDBRANCH   7  18
TORSDOF 1
ENDMDL
MODEL 7
REMARK VINA RESULT:      -6.4     11.250     12.988
REMARK  Name = 
REMARK  1 active torsions:
REMARK  status: ('A' for Active; 'I' for Inactive)
REMARK    1  A    between atoms: C_7  and  C_8
REMARK                            x       y       z     vdW  Elec       q    Type
REMARK                         _______ _______ _______ _____ _____    ______ ____
ROOT
ATOM      1  O   UNL     1      11.070  17.711  20.700  0.00  0.00    +0.000 OA
ATOM      2  C   UNL     1      11.363  17.529  19.533  0.00  0.00    +0.000 C 
ATOM      3  O   UNL     1      11.657  18.508  18.626  0.00  0.00    +0.000 OA
ATOM      4  C   UNL     1      11.998  17.912  17.366  0.00  0.00    +0.000 C 
ATOM      5  C   UNL     1      11.882  16.466  17.625  0.00  0.00    +0.000 C 
ATOM      6  C   UNL     1      11.480  16.239  18.879  0.00  0.00    +0.000 C 
ATOM      7  C   UNL     1      11.245  14.869  19.449  0.00  0.00    +0.000 C 
ATOM      8  C   UNL     1      11.642  13.849  18.421  0.00  0.00    +0.000 A 
ATOM      9  C   UNL     1      12.064  14.129  17.168  0.00  0.00    +0.000 A 
ATOM     10  N   UNL     1      12.333  12.981  16.449  0.00  0.00    +0.000 N 
ATOM     11  N   UNL     1      11.884  11.915  17.244  0.00  0.00    +0.000 N 
ATOM     12  C   UNL     1      11.602  12.387  18.516  0.00  0.00    +0.000 A 
ATOM     13  O   UNL     1      11.382  11.737  19.520  0.00  0.00    +0.000 OA
ATOM     14  N   UNL     1      12.134  15.436  16.744  0.00  0.00    +0.000 N 
ATOM     15  H   UNL     1      11.919  13.013  15.518  0.00  0.00    +0.000 HD
ATOM     16  H   UNL     1      12.207  10.965  17.092  0.00  0.00    +0.000 HD
ATOM     17  H   UNL     1      12.570  15.628  15.848  0.00  0.00    +0.000 HD
ENDROOT
BRANCH   7  18
ATOM     18  C   UNL     1       9.795  14.684  19.883  0.00  0.00    +0.000 A 
ATOM     19  C   UNL     1       9.464  14.434  21.226  0.00  0.00    +0.000 A 
ATOM     20  C   UNL     1       8.128  14.287  21.608  0.00  0.00    +0.000 A 
ATOM     21 BR   UNL     1       7.712  13.957  23.421  0.00  0.00    +0.000 Br
ATOM     22  C   UNL     1       7.108  14.386  20.668  0.00  0.00    +0.000 A 
ATOM     23  C   UNL     1       7.431  14.634  19.337  0.00  0.00    +0.000 A 
ATOM     24 BR   UNL     1       6.050  14.777  18.052  0.00  0.00    +0.000 Br
ATOM     25  C   UNL     1       8.761  14.782  18.939  0.00  0.00    +0.000 A 
ENDBRANCH   7  18
TORSDOF 1
ENDMDL
MODEL 8
REMARK VINA RESULT:      -6.4      3.310      5.351
REMARK  Name = 
REMARK  1 active torsions:
REMARK  status: ('A' for Active; 'I' for Inactive)
REMARK    1  A    between atoms: C_7  and  C_8
REMARK                            x       y       z     vdW  Elec       q    Type
REMARK                         _______ _______ _______ _____ _____    ______ ____
ROOT
ATOM      1  O   UNL     1       1.008   4.316  17.109  0.00  0.00    +0.000 OA
ATOM      2  C   UNL     1       1.892   3.739  17.716  0.00  0.00    +0.000 C 
ATOM      3  O   UNL     1       1.789   2.499  18.280  0.00  0.00    +0.000 OA
ATOM      4  C   UNL     1       3.046   2.131  18.867  0.00  0.00    +0.000 C 
ATOM      5  C   UNL     1       3.912   3.288  18.583  0.00  0.00    +0.000 C 
ATOM      6  C   UNL     1       3.234   4.243  17.940  0.00  0.00    +0.000 C 
ATOM      7  C   UNL     1       3.828   5.560  17.526  0.00  0.00    +0.000 C 
ATOM      8  C   UNL     1       5.292   5.549  17.857  0.00  0.00    +0.000 A 
ATOM      9  C   UNL     1       5.940   4.546  18.491  0.00  0.00    +0.000 A 
ATOM     10  N   UNL     1       7.278   4.836  18.675  0.00  0.00    +0.000 N 
ATOM     11  N   UNL     1       7.440   6.175  18.287  0.00  0.00    +0.000 N 
ATOM     12  C   UNL     1       6.291   6.598  17.635  0.00  0.00    +0.000 A 
ATOM     13  O   UNL     1       6.132   7.618  16.992  0.00  0.00    +0.000 OA
ATOM     14  N   UNL     1       5.244   3.434  18.908  0.00  0.00    +0.000 N 
ATOM     15  H   UNL     1       7.581   4.637  19.628  0.00  0.00    +0.000 HD
ATOM     16  H   UNL     1       8.350   6.556  18.053  0.00  0.00    +0.000 HD
ATOM     17  H   UNL     1       5.770   2.646  19.268  0.00  0.00    +0.000 HD
ENDROOT
BRANCH   7  18
ATOM     18  C   UNL     1       3.117   6.729  18.196  0.00  0.00    +0.000 A 
ATOM     19  C   UNL     1       3.112   8.009  17.613  0.00  0.00    +0.000 A 
ATOM     20  C   UNL     1       2.439   9.065  18.233  0.00  0.00    +0.000 A 
ATOM     21 BR   UNL     1       2.444  10.772  17.422  0.00  0.00    +0.000 Br
ATOM     22  C   UNL     1       1.764   8.867  19.433  0.00  0.00    +0.000 A 
ATOM     23  C   UNL     1       1.766   7.602  20.014  0.00  0.00    +0.000 A 
ATOM     24 BR   UNL     1       0.845   7.322  21.642  0.00  0.00    +0.000 Br
ATOM     25  C   UNL     1       2.434   6.537  19.408  0.00  0.00    +0.000 A 
ENDBRANCH   7  18
TORSDOF 1
ENDMDL
MODEL 9
REMARK VINA RESULT:      -6.4      6.567      9.643
REMARK  Name = 
REMARK  1 active torsions:
REMARK  status: ('A' for Active; 'I' for Inactive)
REMARK    1  A    between atoms: C_7  and  C_8
REMARK                            x       y       z     vdW  Elec       q    Type
REMARK                         _______ _______ _______ _____ _____    ______ ____
ROOT
ATOM      1  O   UNL     1       0.189   9.865  23.670  0.00  0.00    +0.000 OA
ATOM      2  C   UNL     1       0.525   9.591  22.533  0.00  0.00    +0.000 C 
ATOM      3  O   UNL     1       1.495   8.694  22.184  0.00  0.00    +0.000 OA
ATOM      4  C   UNL     1       1.577   8.604  20.755  0.00  0.00    +0.000 C 
ATOM      5  C   UNL     1       0.542   9.543  20.289  0.00  0.00    +0.000 C 
ATOM      6  C   UNL     1      -0.053  10.146  21.322  0.00  0.00    +0.000 C 
ATOM      7  C   UNL     1      -1.136  11.176  21.182  0.00  0.00    +0.000 C 
ATOM      8  C   UNL     1      -1.487  11.306  19.727  0.00  0.00    +0.000 A 
ATOM      9  C   UNL     1      -0.868  10.657  18.716  0.00  0.00    +0.000 A 
ATOM     10  N   UNL     1      -1.398  10.999  17.487  0.00  0.00    +0.000 N 
ATOM     11  N   UNL     1      -2.284  12.060  17.731  0.00  0.00    +0.000 N 
ATOM     12  C   UNL     1      -2.487  12.173  19.098  0.00  0.00    +0.000 A 
ATOM     13  O   UNL     1      -3.328  12.836  19.674  0.00  0.00    +0.000 OA
ATOM     14  N   UNL     1       0.186   9.814  18.984  0.00  0.00    +0.000 N 
ATOM     15  H   UNL     1      -0.668  11.212  16.807  0.00  0.00    +0.000 HD
ATOM     16  H   UNL     1      -3.008  12.313  17.067  0.00  0.00    +0.000 HD
ATOM     17  H   UNL     1       0.551   9.245  18.229  0.00  0.00    +0.000 HD
ENDROOT
BRANCH   7  18
ATOM     18  C   UNL     1      -0.715  12.517  21.772  0.00  0.00    +0.000 A 
ATOM     19  C   UNL     1       0.382  13.228  21.255  0.00  0.00    +0.000 A 
ATOM     20  C   UNL     1       0.741  14.464  21.796  0.00  0.00    +0.000 A 
ATOM     21 BR   UNL     1       2.215  15.401  21.076  0.00  0.00    +0.000 Br
ATOM     22  C   UNL     1       0.021  15.010  22.854  0.00  0.00    +0.000 A 
ATOM     23  C   UNL     1      -1.066  14.310  23.370  0.00  0.00    +0.000 A 
ATOM     24 BR   UNL     1      -2.056  15.047  24.803  0.00  0.00    +0.000 Br
ATOM     25  C   UNL     1      -1.437  13.073  22.840  0.00  0.00    +0.000 A 
ENDBRANCH   7  18
TORSDOF 1
ENDMDL
