MODEL 1
REMARK VINA RESULT:      -7.1      0.000      0.000
REMARK  Name = 
REMARK  6 active torsions:
REMARK  status: ('A' for Active; 'I' for Inactive)
REMARK    1  A    between atoms: C_1  and  C_2
REMARK    2  A    between atoms: C_2  and  C_3
REMARK    3  A    between atoms: C_3  and  C_4
REMARK    4  A    between atoms: C_5  and  C_6
REMARK    5  A    between atoms: N_11  and  C_12
REMARK    6  A    between atoms: C_14  and  C_15
REMARK                            x       y       z     vdW  Elec       q    Type
REMARK                         _______ _______ _______ _____ _____    ______ ____
ROOT
ATOM      1  C   UNL     1       5.868   4.336  13.853  0.00  0.00    +0.000 A 
ATOM      2  C   UNL     1       7.180   4.877  13.807  0.00  0.00    +0.000 A 
ATOM      3  N   UNL     1       7.681   5.186  15.020  0.00  0.00    +0.000 NA
ATOM      4  N   UNL     1       6.666   4.828  15.856  0.00  0.00    +0.000 N 
ATOM      5  C   UNL     1       6.687   4.953  17.268  0.00  0.00    +0.000 A 
ATOM      6  N   UNL     1       7.785   5.466  17.935  0.00  0.00    +0.000 N 
ATOM      7  C   UNL     1       7.863   5.616  19.375  0.00  0.00    +0.000 C 
ATOM      8  N   UNL     1       5.623   4.564  17.914  0.00  0.00    +0.000 NA
ATOM      9  C   UNL     1       4.555   4.059  17.206  0.00  0.00    +0.000 A 
ATOM     10  C   UNL     1       3.384   3.645  18.047  0.00  0.00    +0.000 C 
ATOM     11  N   UNL     1       4.484   3.925  15.920  0.00  0.00    +0.000 NA
ATOM     12  C   UNL     1       5.564   4.317  15.202  0.00  0.00    +0.000 A 
ATOM     13  H   UNL     1       8.588   5.763  17.384  0.00  0.00    +0.000 HD
ENDROOT
BRANCH   1  15
ATOM     14  C   UNL     1       4.274   3.472  11.786  0.00  0.00    +0.000 C 
ATOM     15  C   UNL     1       5.018   3.897  12.769  0.00  0.00    +0.000 C 
BRANCH  14  16
ATOM     16  C   UNL     1       3.406   2.978  10.640  0.00  0.00    +0.000 C 
BRANCH  16  18
ATOM     17  C   UNL     1       2.231   4.746   9.305  0.00  0.00    +0.000 C 
ATOM     18  C   UNL     1       3.503   3.929   9.452  0.00  0.00    +0.000 C 
ENDBRANCH  16  18
ENDBRANCH  14  16
ENDBRANCH   1  15
TORSDOF 3
ENDMDL
MODEL 2
REMARK VINA RESULT:      -6.9      2.369      3.382
REMARK  Name = 
REMARK  6 active torsions:
REMARK  status: ('A' for Active; 'I' for Inactive)
REMARK    1  A    between atoms: C_1  and  C_2
REMARK    2  A    between atoms: C_2  and  C_3
REMARK    3  A    between atoms: C_3  and  C_4
REMARK    4  A    between atoms: C_5  and  C_6
REMARK    5  A    between atoms: N_11  and  C_12
REMARK    6  A    between atoms: C_14  and  C_15
REMARK                            x       y       z     vdW  Elec       q    Type
REMARK                         _______ _______ _______ _____ _____    ______ ____
ROOT
ATOM      1  C   UNL     1       5.066   5.218  15.795  0.00  0.00    +0.000 A 
ATOM      2  C   UNL     1       5.041   6.581  16.193  0.00  0.00    +0.000 A 
ATOM      3  N   UNL     1       4.409   6.791  17.364  0.00  0.00    +0.000 NA
ATOM      4  N   UNL     1       4.029   5.534  17.723  0.00  0.00    +0.000 N 
ATOM      5  C   UNL     1       3.315   5.199  18.902  0.00  0.00    +0.000 A 
ATOM      6  N   UNL     1       2.935   6.164  19.818  0.00  0.00    +0.000 N 
ATOM      7  C   UNL     1       2.206   5.881  21.038  0.00  0.00    +0.000 C 
ATOM      8  N   UNL     1       3.028   3.940  19.085  0.00  0.00    +0.000 NA
ATOM      9  C   UNL     1       3.427   3.017  18.144  0.00  0.00    +0.000 A 
ATOM     10  C   UNL     1       3.043   1.600  18.453  0.00  0.00    +0.000 C 
ATOM     11  N   UNL     1       4.078   3.269  17.053  0.00  0.00    +0.000 NA
ATOM     12  C   UNL     1       4.399   4.563  16.815  0.00  0.00    +0.000 A 
ATOM     13  H   UNL     1       3.177   7.133  19.625  0.00  0.00    +0.000 HD
ENDROOT
BRANCH   1  15
ATOM     14  C   UNL     1       6.127   4.071  13.533  0.00  0.00    +0.000 C 
ATOM     15  C   UNL     1       5.642   4.616  14.614  0.00  0.00    +0.000 C 
BRANCH  14  16
ATOM     16  C   UNL     1       6.693   3.435  12.274  0.00  0.00    +0.000 C 
BRANCH  16  18
ATOM     17  C   UNL     1       4.354   3.195  11.400  0.00  0.00    +0.000 C 
ATOM     18  C   UNL     1       5.674   2.486  11.654  0.00  0.00    +0.000 C 
ENDBRANCH  16  18
ENDBRANCH  14  16
ENDBRANCH   1  15
TORSDOF 3
ENDMDL
MODEL 3
REMARK VINA RESULT:      -6.8      4.463      7.007
REMARK  Name = 
REMARK  6 active torsions:
REMARK  status: ('A' for Active; 'I' for Inactive)
REMARK    1  A    between atoms: C_1  and  C_2
REMARK    2  A    between atoms: C_2  and  C_3
REMARK    3  A    between atoms: C_3  and  C_4
REMARK    4  A    between atoms: C_5  and  C_6
REMARK    5  A    between atoms: N_11  and  C_12
REMARK    6  A    between atoms: C_14  and  C_15
REMARK                            x       y       z     vdW  Elec       q    Type
REMARK                         _______ _______ _______ _____ _____    ______ ____
ROOT
ATOM      1  C   UNL     1       7.094   6.380  17.917  0.00  0.00    +0.000 A 
ATOM      2  C   UNL     1       7.691   5.091  17.891  0.00  0.00    +0.000 A 
ATOM      3  N   UNL     1       6.797   4.082  17.871  0.00  0.00    +0.000 NA
ATOM      4  N   UNL     1       5.607   4.743  17.880  0.00  0.00    +0.000 N 
ATOM      5  C   UNL     1       4.329   4.129  17.867  0.00  0.00    +0.000 A 
ATOM      6  N   UNL     1       4.187   2.753  17.841  0.00  0.00    +0.000 N 
ATOM      7  C   UNL     1       2.908   2.070  17.826  0.00  0.00    +0.000 C 
ATOM      8  N   UNL     1       3.291   4.917  17.883  0.00  0.00    +0.000 NA
ATOM      9  C   UNL     1       3.484   6.281  17.908  0.00  0.00    +0.000 A 
ATOM     10  C   UNL     1       2.223   7.093  17.928  0.00  0.00    +0.000 C 
ATOM     11  N   UNL     1       4.626   6.892  17.922  0.00  0.00    +0.000 NA
ATOM     12  C   UNL     1       5.736   6.117  17.908  0.00  0.00    +0.000 A 
ATOM     13  H   UNL     1       5.028   2.181  17.837  0.00  0.00    +0.000 HD
ENDROOT
BRANCH   1  15
ATOM     14  C   UNL     1       8.258   8.869  17.991  0.00  0.00    +0.000 C 
ATOM     15  C   UNL     1       7.722   7.682  17.947  0.00  0.00    +0.000 C 
BRANCH  14  16
ATOM     16  C   UNL     1       8.884  10.254  18.043  0.00  0.00    +0.000 C 
BRANCH  16  18
ATOM     17  C   UNL     1      10.703  11.417  19.320  0.00  0.00    +0.000 C 
ATOM     18  C   UNL     1       9.485  10.514  19.419  0.00  0.00    +0.000 C 
ENDBRANCH  16  18
ENDBRANCH  14  16
ENDBRANCH   1  15
TORSDOF 3
ENDMDL
MODEL 4
REMARK VINA RESULT:      -6.2      2.783      4.019
REMARK  Name = 
REMARK  6 active torsions:
REMARK  status: ('A' for Active; 'I' for Inactive)
REMARK    1  A    between atoms: C_1  and  C_2
REMARK    2  A    between atoms: C_2  and  C_3
REMARK    3  A    between atoms: C_3  and  C_4
REMARK    4  A    between atoms: C_5  and  C_6
REMARK    5  A    between atoms: N_11  and  C_12
REMARK    6  A    between atoms: C_14  and  C_15
REMARK                            x       y       z     vdW  Elec       q    Type
REMARK                         _______ _______ _______ _____ _____    ______ ____
ROOT
ATOM      1  C   UNL     1       4.842   5.655  16.316  0.00  0.00    +0.000 A 
ATOM      2  C   UNL     1       5.111   6.970  16.780  0.00  0.00    +0.000 A 
ATOM      3  N   UNL     1       4.374   7.327  17.851  0.00  0.00    +0.000 NA
ATOM      4  N   UNL     1       3.623   6.213  18.075  0.00  0.00    +0.000 N 
ATOM      5  C   UNL     1       2.664   6.067  19.109  0.00  0.00    +0.000 A 
ATOM      6  N   UNL     1       2.407   7.086  20.009  0.00  0.00    +0.000 N 
ATOM      7  C   UNL     1       1.440   6.994  21.085  0.00  0.00    +0.000 C 
ATOM      8  N   UNL     1       2.031   4.929  19.175  0.00  0.00    +0.000 NA
ATOM      9  C   UNL     1       2.322   3.945  18.256  0.00  0.00    +0.000 A 
ATOM     10  C   UNL     1       1.533   2.679  18.422  0.00  0.00    +0.000 C 
ATOM     11  N   UNL     1       3.185   4.027  17.294  0.00  0.00    +0.000 NA
ATOM     12  C   UNL     1       3.869   5.190  17.182  0.00  0.00    +0.000 A 
ATOM     13  H   UNL     1       2.923   7.958  19.910  0.00  0.00    +0.000 HD
ENDROOT
BRANCH   1  15
ATOM     14  C   UNL     1       5.954   4.259  14.224  0.00  0.00    +0.000 C 
ATOM     15  C   UNL     1       5.424   4.937  15.205  0.00  0.00    +0.000 C 
BRANCH  14  16
ATOM     16  C   UNL     1       6.571   3.469  13.082  0.00  0.00    +0.000 C 
BRANCH  16  18
ATOM     17  C   UNL     1       5.770   1.811  11.378  0.00  0.00    +0.000 C 
ATOM     18  C   UNL     1       5.522   3.166  12.018  0.00  0.00    +0.000 C 
ENDBRANCH  16  18
ENDBRANCH  14  16
ENDBRANCH   1  15
TORSDOF 3
ENDMDL
MODEL 5
REMARK VINA RESULT:      -6.2      9.232     11.279
REMARK  Name = 
REMARK  6 active torsions:
REMARK  status: ('A' for Active; 'I' for Inactive)
REMARK    1  A    between atoms: C_1  and  C_2
REMARK    2  A    between atoms: C_2  and  C_3
REMARK    3  A    between atoms: C_3  and  C_4
REMARK    4  A    between atoms: C_5  and  C_6
REMARK    5  A    between atoms: N_11  and  C_12
REMARK    6  A    between atoms: C_14  and  C_15
REMARK                            x       y       z     vdW  Elec       q    Type
REMARK                         _______ _______ _______ _____ _____    ______ ____
ROOT
ATOM      1  C   UNL     1      -0.890  10.474  18.353  0.00  0.00    +0.000 A 
ATOM      2  C   UNL     1      -1.317  11.229  19.478  0.00  0.00    +0.000 A 
ATOM      3  N   UNL     1      -2.531  11.792  19.321  0.00  0.00    +0.000 NA
ATOM      4  N   UNL     1      -2.887  11.383  18.072  0.00  0.00    +0.000 N 
ATOM      5  C   UNL     1      -4.101  11.710  17.417  0.00  0.00    +0.000 A 
ATOM      6  N   UNL     1      -5.060  12.502  18.023  0.00  0.00    +0.000 N 
ATOM      7  C   UNL     1      -6.319  12.868  17.404  0.00  0.00    +0.000 C 
ATOM      8  N   UNL     1      -4.275  11.235  16.216  0.00  0.00    +0.000 NA
ATOM      9  C   UNL     1      -3.290  10.451  15.655  0.00  0.00    +0.000 A 
ATOM     10  C   UNL     1      -3.593   9.960  14.270  0.00  0.00    +0.000 C 
ATOM     11  N   UNL     1      -2.166  10.124  16.207  0.00  0.00    +0.000 NA
ATOM     12  C   UNL     1      -1.936  10.595  17.456  0.00  0.00    +0.000 A 
ATOM     13  H   UNL     1      -4.873  12.855  18.959  0.00  0.00    +0.000 HD
ENDROOT
BRANCH   1  15
ATOM     14  C   UNL     1       1.459   9.087  18.007  0.00  0.00    +0.000 C 
ATOM     15  C   UNL     1       0.340   9.740  18.153  0.00  0.00    +0.000 C 
BRANCH  14  16
ATOM     16  C   UNL     1       2.763   8.325  17.837  0.00  0.00    +0.000 C 
BRANCH  16  18
ATOM     17  C   UNL     1       2.480   6.581  19.618  0.00  0.00    +0.000 C 
ATOM     18  C   UNL     1       2.553   6.842  18.124  0.00  0.00    +0.000 C 
ENDBRANCH  16  18
ENDBRANCH  14  16
ENDBRANCH   1  15
TORSDOF 3
ENDMDL
MODEL 6
REMARK VINA RESULT:      -6.1      5.682      8.928
REMARK  Name = 
REMARK  6 active torsions:
REMARK  status: ('A' for Active; 'I' for Inactive)
REMARK    1  A    between atoms: C_1  and  C_2
REMARK    2  A    between atoms: C_2  and  C_3
REMARK    3  A    between atoms: C_3  and  C_4
REMARK    4  A    between atoms: C_5  and  C_6
REMARK    5  A    between atoms: N_11  and  C_12
REMARK    6  A    between atoms: C_14  and  C_15
REMARK                            x       y       z     vdW  Elec       q    Type
REMARK                         _______ _______ _______ _____ _____    ______ ____
ROOT
ATOM      1  C   UNL     1       1.664   7.819  20.103  0.00  0.00    +0.000 A 
ATOM      2  C   UNL     1       2.164   8.325  18.873  0.00  0.00    +0.000 A 
ATOM      3  N   UNL     1       2.808   7.402  18.131  0.00  0.00    +0.000 NA
ATOM      4  N   UNL     1       2.712   6.284  18.903  0.00  0.00    +0.000 N 
ATOM      5  C   UNL     1       3.240   5.011  18.570  0.00  0.00    +0.000 A 
ATOM      6  N   UNL     1       3.920   4.796  17.385  0.00  0.00    +0.000 N 
ATOM      7  C   UNL     1       4.480   3.518  16.991  0.00  0.00    +0.000 C 
ATOM      8  N   UNL     1       3.058   4.049  19.432  0.00  0.00    +0.000 NA
ATOM      9  C   UNL     1       2.375   4.313  20.598  0.00  0.00    +0.000 A 
ATOM     10  C   UNL     1       2.226   3.137  21.518  0.00  0.00    +0.000 C 
ATOM     11  N   UNL     1       1.875   5.455  20.951  0.00  0.00    +0.000 NA
ATOM     12  C   UNL     1       2.038   6.488  20.090  0.00  0.00    +0.000 A 
ATOM     13  H   UNL     1       4.041   5.582  16.749  0.00  0.00    +0.000 HD
ENDROOT
BRANCH   1  15
ATOM     14  C   UNL     1       0.252   9.131  22.064  0.00  0.00    +0.000 C 
ATOM     15  C   UNL     1       0.934   8.502  21.147  0.00  0.00    +0.000 C 
BRANCH  14  16
ATOM     16  C   UNL     1      -0.543   9.863  23.132  0.00  0.00    +0.000 C 
BRANCH  16  18
ATOM     17  C   UNL     1      -2.162  11.776  23.261  0.00  0.00    +0.000 C 
ATOM     18  C   UNL     1      -0.842  11.290  22.686  0.00  0.00    +0.000 C 
ENDBRANCH  16  18
ENDBRANCH  14  16
ENDBRANCH   1  15
TORSDOF 3
ENDMDL
MODEL 7
REMARK VINA RESULT:      -6.1      3.029      4.055
REMARK  Name = 
REMARK  6 active torsions:
REMARK  status: ('A' for Active; 'I' for Inactive)
REMARK    1  A    between atoms: C_1  and  C_2
REMARK    2  A    between atoms: C_2  and  C_3
REMARK    3  A    between atoms: C_3  and  C_4
REMARK    4  A    between atoms: C_5  and  C_6
REMARK    5  A    between atoms: N_11  and  C_12
REMARK    6  A    between atoms: C_14  and  C_15
REMARK                            x       y       z     vdW  Elec       q    Type
REMARK                         _______ _______ _______ _____ _____    ______ ____
ROOT
ATOM      1  C   UNL     1       4.849   5.367  16.147  0.00  0.00    +0.000 A 
ATOM      2  C   UNL     1       5.113   6.686  16.604  0.00  0.00    +0.000 A 
ATOM      3  N   UNL     1       4.406   7.031  17.698  0.00  0.00    +0.000 NA
ATOM      4  N   UNL     1       3.680   5.905  17.946  0.00  0.00    +0.000 N 
ATOM      5  C   UNL     1       2.757   5.744  19.010  0.00  0.00    +0.000 A 
ATOM      6  N   UNL     1       2.514   6.758  19.919  0.00  0.00    +0.000 N 
ATOM      7  C   UNL     1       1.584   6.650  21.026  0.00  0.00    +0.000 C 
ATOM      8  N   UNL     1       2.144   4.596  19.096  0.00  0.00    +0.000 NA
ATOM      9  C   UNL     1       2.420   3.617  18.167  0.00  0.00    +0.000 A 
ATOM     10  C   UNL     1       1.657   2.339  18.357  0.00  0.00    +0.000 C 
ATOM     11  N   UNL     1       3.250   3.713  17.177  0.00  0.00    +0.000 NA
ATOM     12  C   UNL     1       3.912   4.887  17.044  0.00  0.00    +0.000 A 
ATOM     13  H   UNL     1       3.013   7.638  19.804  0.00  0.00    +0.000 HD
ENDROOT
BRANCH   1  15
ATOM     14  C   UNL     1       5.908   4.050  13.978  0.00  0.00    +0.000 C 
ATOM     15  C   UNL     1       5.406   4.658  15.017  0.00  0.00    +0.000 C 
BRANCH  14  16
ATOM     16  C   UNL     1       6.493   3.342  12.767  0.00  0.00    +0.000 C 
BRANCH  16  18
ATOM     17  C   UNL     1       7.989   5.352  12.642  0.00  0.00    +0.000 C 
ATOM     18  C   UNL     1       7.178   4.344  11.845  0.00  0.00    +0.000 C 
ENDBRANCH  16  18
ENDBRANCH  14  16
ENDBRANCH   1  15
TORSDOF 3
ENDMDL
MODEL 8
REMARK VINA RESULT:      -6.0      6.900      8.924
REMARK  Name = 
REMARK  6 active torsions:
REMARK  status: ('A' for Active; 'I' for Inactive)
REMARK    1  A    between atoms: C_1  and  C_2
REMARK    2  A    between atoms: C_2  and  C_3
REMARK    3  A    between atoms: C_3  and  C_4
REMARK    4  A    between atoms: C_5  and  C_6
REMARK    5  A    between atoms: N_11  and  C_12
REMARK    6  A    between atoms: C_14  and  C_15
REMARK                            x       y       z     vdW  Elec       q    Type
REMARK                         _______ _______ _______ _____ _____    ______ ____
ROOT
ATOM      1  C   UNL     1       2.023   7.657  19.234  0.00  0.00    +0.000 A 
ATOM      2  C   UNL     1       2.427   8.131  17.958  0.00  0.00    +0.000 A 
ATOM      3  N   UNL     1       2.091   9.416  17.727  0.00  0.00    +0.000 NA
ATOM      4  N   UNL     1       1.464   9.768  18.883  0.00  0.00    +0.000 N 
ATOM      5  C   UNL     1       0.909  11.044  19.158  0.00  0.00    +0.000 A 
ATOM      6  N   UNL     1       0.965  12.072  18.234  0.00  0.00    +0.000 N 
ATOM      7  C   UNL     1       0.416  13.395  18.460  0.00  0.00    +0.000 C 
ATOM      8  N   UNL     1       0.339  11.206  20.319  0.00  0.00    +0.000 NA
ATOM      9  C   UNL     1       0.309  10.151  21.205  0.00  0.00    +0.000 A 
ATOM     10  C   UNL     1      -0.373  10.446  22.509  0.00  0.00    +0.000 C 
ATOM     11  N   UNL     1       0.798   8.969  21.004  0.00  0.00    +0.000 NA
ATOM     12  C   UNL     1       1.400   8.749  19.811  0.00  0.00    +0.000 A 
ATOM     13  H   UNL     1       1.414  11.893  17.339  0.00  0.00    +0.000 HD
ENDROOT
BRANCH   1  15
ATOM     14  C   UNL     1       2.340   5.183  20.390  0.00  0.00    +0.000 C 
ATOM     15  C   UNL     1       2.201   6.351  19.827  0.00  0.00    +0.000 C 
BRANCH  14  16
ATOM     16  C   UNL     1       2.502   3.821  21.046  0.00  0.00    +0.000 C 
BRANCH  16  18
ATOM     17  C   UNL     1       0.870   2.854  19.405  0.00  0.00    +0.000 C 
ATOM     18  C   UNL     1       1.233   2.994  20.874  0.00  0.00    +0.000 C 
ENDBRANCH  16  18
ENDBRANCH  14  16
ENDBRANCH   1  15
TORSDOF 3
ENDMDL
MODEL 9
REMARK VINA RESULT:      -6.0      4.131      6.773
REMARK  Name = 
REMARK  6 active torsions:
REMARK  status: ('A' for Active; 'I' for Inactive)
REMARK    1  A    between atoms: C_1  and  C_2
REMARK    2  A    between atoms: C_2  and  C_3
REMARK    3  A    between atoms: C_3  and  C_4
REMARK    4  A    between atoms: C_5  and  C_6
REMARK    5  A    between atoms: N_11  and  C_12
REMARK    6  A    between atoms: C_14  and  C_15
REMARK                            x       y       z     vdW  Elec       q    Type
REMARK                         _______ _______ _______ _____ _____    ______ ____
ROOT
ATOM      1  C   UNL     1       5.581   5.756  17.474  0.00  0.00    +0.000 A 
ATOM      2  C   UNL     1       5.684   4.520  16.782  0.00  0.00    +0.000 A 
ATOM      3  N   UNL     1       4.655   3.681  17.015  0.00  0.00    +0.000 NA
ATOM      4  N   UNL     1       3.877   4.401  17.870  0.00  0.00    +0.000 N 
ATOM      5  C   UNL     1       2.651   3.961  18.430  0.00  0.00    +0.000 A 
ATOM      6  N   UNL     1       2.127   2.715  18.137  0.00  0.00    +0.000 N 
ATOM      7  C   UNL     1       0.879   2.212  18.677  0.00  0.00    +0.000 C 
ATOM      8  N   UNL     1       2.038   4.781  19.237  0.00  0.00    +0.000 NA
ATOM      9  C   UNL     1       2.600   6.011  19.498  0.00  0.00    +0.000 A 
ATOM     10  C   UNL     1       1.814   6.873  20.441  0.00  0.00    +0.000 C 
ATOM     11  N   UNL     1       3.715   6.461  19.016  0.00  0.00    +0.000 NA
ATOM     12  C   UNL     1       4.392   5.646  18.173  0.00  0.00    +0.000 A 
ATOM     13  H   UNL     1       2.648   2.109  17.506  0.00  0.00    +0.000 HD
ENDROOT
BRANCH   1  15
ATOM     14  C   UNL     1       7.319   7.886  17.498  0.00  0.00    +0.000 C 
ATOM     15  C   UNL     1       6.482   6.886  17.476  0.00  0.00    +0.000 C 
BRANCH  14  16
ATOM     16  C   UNL     1       8.293   9.052  17.525  0.00  0.00    +0.000 C 
BRANCH  16  18
ATOM     17  C   UNL     1       9.460  10.646  19.071  0.00  0.00    +0.000 C 
ATOM     18  C   UNL     1       8.811   9.279  18.941  0.00  0.00    +0.000 C 
ENDBRANCH  16  18
ENDBRANCH  14  16
ENDBRANCH   1  15
TORSDOF 3
ENDMDL
