MODEL 1
REMARK VINA RESULT:      -7.7      0.000      0.000
REMARK  Name = 
REMARK  8 active torsions:
REMARK  status: ('A' for Active; 'I' for Inactive)
REMARK    1  A    between atoms: C_1  and  C_2
REMARK    2  A    between atoms: C_6  and  N_7
REMARK    3  A    between atoms: C_11  and  C_13
REMARK    4  A    between atoms: C_17  and  S_18
REMARK    5  A    between atoms: S_18  and  N_21
REMARK    6  A    between atoms: N_21  and  C_22
REMARK    7  A    between atoms: N_21  and  C_23
REMARK    8  A    between atoms: C_27  and  C_28
REMARK                            x       y       z     vdW  Elec       q    Type
REMARK                         _______ _______ _______ _____ _____    ______ ____
ROOT
ATOM      1  N   UNL     1       1.371  11.621  18.878  0.00  0.00    +0.000 N 
ATOM      2  C   UNL     1       1.393  11.096  20.268  0.00  0.00    +0.000 C 
ATOM      3  C   UNL     1       0.672   9.736  20.339  0.00  0.00    +0.000 C 
ATOM      4  N   UNL     1       1.257   8.790  19.381  0.00  0.00    +0.000 N 
ATOM      5  C   UNL     1       1.797   7.604  19.870  0.00  0.00    +0.000 C 
ATOM      6  O   UNL     1       1.728   7.292  21.059  0.00  0.00    +0.000 OA
ATOM      7  C   UNL     1       1.219   9.305  17.998  0.00  0.00    +0.000 C 
ATOM      8  C   UNL     1       1.970  10.661  17.909  0.00  0.00    +0.000 C 
ENDROOT
BRANCH   1  14
ATOM      9  C   UNL     1       0.182  16.502  18.666  0.00  0.00    +0.000 C 
ATOM     10  C   UNL     1       1.174  15.371  18.596  0.00  0.00    +0.000 A 
ATOM     11  C   UNL     1       2.503  15.671  18.274  0.00  0.00    +0.000 A 
ATOM     12  C   UNL     1       3.444  14.658  18.179  0.00  0.00    +0.000 A 
ATOM     13  C   UNL     1       3.060  13.331  18.367  0.00  0.00    +0.000 A 
ATOM     14  C   UNL     1       1.736  12.970  18.686  0.00  0.00    +0.000 A 
ATOM     15  C   UNL     1       0.796  14.024  18.853  0.00  0.00    +0.000 A 
ATOM     16  C   UNL     1      -0.613  13.754  19.335  0.00  0.00    +0.000 C 
ENDBRANCH   1  14
BRANCH   5  17
ATOM     17  C   UNL     1       2.485   6.636  18.980  0.00  0.00    +0.000 A 
ATOM     18  C   UNL     1       1.975   5.330  18.897  0.00  0.00    +0.000 A 
ATOM     19  C   UNL     1       2.581   4.378  18.073  0.00  0.00    +0.000 A 
ATOM     20  C   UNL     1       3.699   4.728  17.319  0.00  0.00    +0.000 A 
ATOM     21  C   UNL     1       4.242   6.008  17.456  0.00  0.00    +0.000 A 
ATOM     22  C   UNL     1       3.660   6.952  18.304  0.00  0.00    +0.000 A 
BRANCH  21  23
ATOM     23  S   UNL     1       5.677   6.475  16.506  0.00  0.00    +0.000 S 
ATOM     24  O   UNL     1       5.206   6.918  15.213  0.00  0.00    +0.000 OA
ATOM     25  O   UNL     1       6.478   7.341  17.352  0.00  0.00    +0.000 OA
BRANCH  23  26
ATOM     26  N   UNL     1       6.483   4.994  16.317  0.00  0.00    +0.000 NA
ATOM     27  C   UNL     1       6.959   4.659  14.964  0.00  0.00    +0.000 C 
ATOM     28  C   UNL     1       7.449   4.647  17.377  0.00  0.00    +0.000 C 
ENDBRANCH  23  26
ENDBRANCH  21  23
ENDBRANCH   5  17
TORSDOF 4
ENDMDL
MODEL 2
REMARK VINA RESULT:      -7.4      3.029      3.403
REMARK  Name = 
REMARK  8 active torsions:
REMARK  status: ('A' for Active; 'I' for Inactive)
REMARK    1  A    between atoms: C_1  and  C_2
REMARK    2  A    between atoms: C_6  and  N_7
REMARK    3  A    between atoms: C_11  and  C_13
REMARK    4  A    between atoms: C_17  and  S_18
REMARK    5  A    between atoms: S_18  and  N_21
REMARK    6  A    between atoms: N_21  and  C_22
REMARK    7  A    between atoms: N_21  and  C_23
REMARK    8  A    between atoms: C_27  and  C_28
REMARK                            x       y       z     vdW  Elec       q    Type
REMARK                         _______ _______ _______ _____ _____    ______ ____
ROOT
ATOM      1  N   UNL     1       1.384  12.530  19.189  0.00  0.00    +0.000 N 
ATOM      2  C   UNL     1       1.405  12.236  20.646  0.00  0.00    +0.000 C 
ATOM      3  C   UNL     1       0.506  11.026  20.962  0.00  0.00    +0.000 C 
ATOM      4  N   UNL     1       0.903   9.863  20.158  0.00  0.00    +0.000 N 
ATOM      5  C   UNL     1       1.297   8.705  20.822  0.00  0.00    +0.000 C 
ATOM      6  O   UNL     1       1.246   8.601  22.048  0.00  0.00    +0.000 OA
ATOM      7  C   UNL     1       0.866  10.150  18.711  0.00  0.00    +0.000 C 
ATOM      8  C   UNL     1       1.793  11.349  18.377  0.00  0.00    +0.000 C 
ENDROOT
BRANCH   1  14
ATOM      9  C   UNL     1       0.874  17.431  18.188  0.00  0.00    +0.000 C 
ATOM     10  C   UNL     1       1.696  16.172  18.287  0.00  0.00    +0.000 A 
ATOM     11  C   UNL     1       3.037  16.221  17.889  0.00  0.00    +0.000 A 
ATOM     12  C   UNL     1       3.824  15.081  17.944  0.00  0.00    +0.000 A 
ATOM     13  C   UNL     1       3.268  13.872  18.361  0.00  0.00    +0.000 A 
ATOM     14  C   UNL     1       1.923  13.762  18.765  0.00  0.00    +0.000 A 
ATOM     15  C   UNL     1       1.147  14.954  18.775  0.00  0.00    +0.000 A 
ATOM     16  C   UNL     1      -0.262  14.972  19.326  0.00  0.00    +0.000 C 
ENDBRANCH   1  14
BRANCH   5  17
ATOM     17  C   UNL     1       1.796   7.517  20.086  0.00  0.00    +0.000 A 
ATOM     18  C   UNL     1       2.396   7.715  18.831  0.00  0.00    +0.000 A 
ATOM     19  C   UNL     1       2.886   6.633  18.096  0.00  0.00    +0.000 A 
ATOM     20  C   UNL     1       2.786   5.343  18.614  0.00  0.00    +0.000 A 
ATOM     21  C   UNL     1       2.129   5.145  19.831  0.00  0.00    +0.000 A 
ATOM     22  C   UNL     1       1.607   6.220  20.553  0.00  0.00    +0.000 A 
BRANCH  21  23
ATOM     23  S   UNL     1       1.982   3.502  20.508  0.00  0.00    +0.000 S 
ATOM     24  O   UNL     1       2.311   3.590  21.914  0.00  0.00    +0.000 OA
ATOM     25  O   UNL     1       0.703   2.977  20.066  0.00  0.00    +0.000 OA
BRANCH  23  26
ATOM     26  N   UNL     1       3.224   2.668  19.707  0.00  0.00    +0.000 NA
ATOM     27  C   UNL     1       4.341   2.177  20.532  0.00  0.00    +0.000 C 
ATOM     28  C   UNL     1       2.792   1.704  18.678  0.00  0.00    +0.000 C 
ENDBRANCH  23  26
ENDBRANCH  21  23
ENDBRANCH   5  17
TORSDOF 4
ENDMDL
MODEL 3
REMARK VINA RESULT:      -7.3      1.070      1.317
REMARK  Name = 
REMARK  8 active torsions:
REMARK  status: ('A' for Active; 'I' for Inactive)
REMARK    1  A    between atoms: C_1  and  C_2
REMARK    2  A    between atoms: C_6  and  N_7
REMARK    3  A    between atoms: C_11  and  C_13
REMARK    4  A    between atoms: C_17  and  S_18
REMARK    5  A    between atoms: S_18  and  N_21
REMARK    6  A    between atoms: N_21  and  C_22
REMARK    7  A    between atoms: N_21  and  C_23
REMARK    8  A    between atoms: C_27  and  C_28
REMARK                            x       y       z     vdW  Elec       q    Type
REMARK                         _______ _______ _______ _____ _____    ______ ____
ROOT
ATOM      1  N   UNL     1       1.347  11.189  18.911  0.00  0.00    +0.000 N 
ATOM      2  C   UNL     1       1.450  10.643  20.290  0.00  0.00    +0.000 C 
ATOM      3  C   UNL     1       0.761   9.268  20.375  0.00  0.00    +0.000 C 
ATOM      4  N   UNL     1       1.318   8.348  19.374  0.00  0.00    +0.000 N 
ATOM      5  C   UNL     1       1.905   7.167  19.816  0.00  0.00    +0.000 C 
ATOM      6  O   UNL     1       1.902   6.836  21.002  0.00  0.00    +0.000 OA
ATOM      7  C   UNL     1       1.200   8.884  18.003  0.00  0.00    +0.000 C 
ATOM      8  C   UNL     1       1.917  10.256  17.899  0.00  0.00    +0.000 C 
ENDROOT
BRANCH   1  14
ATOM      9  C   UNL     1       0.030  16.039  18.758  0.00  0.00    +0.000 C 
ATOM     10  C   UNL     1       1.050  14.934  18.661  0.00  0.00    +0.000 A 
ATOM     11  C   UNL     1       2.364  15.271  18.318  0.00  0.00    +0.000 A 
ATOM     12  C   UNL     1       3.329  14.283  18.198  0.00  0.00    +0.000 A 
ATOM     13  C   UNL     1       2.982  12.945  18.383  0.00  0.00    +0.000 A 
ATOM     14  C   UNL     1       1.674  12.548  18.723  0.00  0.00    +0.000 A 
ATOM     15  C   UNL     1       0.711  13.576  18.916  0.00  0.00    +0.000 A 
ATOM     16  C   UNL     1      -0.682  13.267  19.420  0.00  0.00    +0.000 C 
ENDBRANCH   1  14
BRANCH   5  17
ATOM     17  C   UNL     1       2.568   6.228  18.878  0.00  0.00    +0.000 A 
ATOM     18  C   UNL     1       1.940   4.999  18.613  0.00  0.00    +0.000 A 
ATOM     19  C   UNL     1       2.518   4.078  17.736  0.00  0.00    +0.000 A 
ATOM     20  C   UNL     1       3.725   4.381  17.111  0.00  0.00    +0.000 A 
ATOM     21  C   UNL     1       4.378   5.575  17.429  0.00  0.00    +0.000 A 
ATOM     22  C   UNL     1       3.821   6.484  18.331  0.00  0.00    +0.000 A 
BRANCH  21  23
ATOM     23  S   UNL     1       5.928   5.980  16.647  0.00  0.00    +0.000 S 
ATOM     24  O   UNL     1       6.556   4.731  16.274  0.00  0.00    +0.000 OA
ATOM     25  O   UNL     1       5.645   7.004  15.657  0.00  0.00    +0.000 OA
BRANCH  23  26
ATOM     26  N   UNL     1       6.806   6.676  17.921  0.00  0.00    +0.000 NA
ATOM     27  C   UNL     1       7.468   5.753  18.860  0.00  0.00    +0.000 C 
ATOM     28  C   UNL     1       7.637   7.842  17.568  0.00  0.00    +0.000 C 
ENDBRANCH  23  26
ENDBRANCH  21  23
ENDBRANCH   5  17
TORSDOF 4
ENDMDL
MODEL 4
REMARK VINA RESULT:      -7.3      2.232      2.887
REMARK  Name = 
REMARK  8 active torsions:
REMARK  status: ('A' for Active; 'I' for Inactive)
REMARK    1  A    between atoms: C_1  and  C_2
REMARK    2  A    between atoms: C_6  and  N_7
REMARK    3  A    between atoms: C_11  and  C_13
REMARK    4  A    between atoms: C_17  and  S_18
REMARK    5  A    between atoms: S_18  and  N_21
REMARK    6  A    between atoms: N_21  and  C_22
REMARK    7  A    between atoms: N_21  and  C_23
REMARK    8  A    between atoms: C_27  and  C_28
REMARK                            x       y       z     vdW  Elec       q    Type
REMARK                         _______ _______ _______ _____ _____    ______ ____
ROOT
ATOM      1  N   UNL     1       1.311  12.007  18.992  0.00  0.00    +0.000 N 
ATOM      2  C   UNL     1       1.117  11.398  20.333  0.00  0.00    +0.000 C 
ATOM      3  C   UNL     1       0.467  10.007  20.202  0.00  0.00    +0.000 C 
ATOM      4  N   UNL     1       1.259   9.147  19.314  0.00  0.00    +0.000 N 
ATOM      5  C   UNL     1       1.766   7.958  19.826  0.00  0.00    +0.000 C 
ATOM      6  O   UNL     1       1.506   7.569  20.966  0.00  0.00    +0.000 OA
ATOM      7  C   UNL     1       1.437   9.746  17.976  0.00  0.00    +0.000 C 
ATOM      8  C   UNL     1       2.120  11.135  18.095  0.00  0.00    +0.000 C 
ENDROOT
BRANCH   1  14
ATOM      9  C   UNL     1      -0.068  16.828  18.617  0.00  0.00    +0.000 C 
ATOM     10  C   UNL     1       0.974  15.751  18.776  0.00  0.00    +0.000 A 
ATOM     11  C   UNL     1       2.320  16.131  18.821  0.00  0.00    +0.000 A 
ATOM     12  C   UNL     1       3.312  15.170  18.946  0.00  0.00    +0.000 A 
ATOM     13  C   UNL     1       2.971  13.819  18.989  0.00  0.00    +0.000 A 
ATOM     14  C   UNL     1       1.633  13.379  18.940  0.00  0.00    +0.000 A 
ATOM     15  C   UNL     1       0.622  14.377  18.887  0.00  0.00    +0.000 A 
ATOM     16  C   UNL     1      -0.845  14.017  18.976  0.00  0.00    +0.000 C 
ENDBRANCH   1  14
BRANCH   5  17
ATOM     17  C   UNL     1       2.649   7.076  19.022  0.00  0.00    +0.000 A 
ATOM     18  C   UNL     1       3.334   7.637  17.932  0.00  0.00    +0.000 A 
ATOM     19  C   UNL     1       4.180   6.855  17.142  0.00  0.00    +0.000 A 
ATOM     20  C   UNL     1       4.353   5.505  17.441  0.00  0.00    +0.000 A 
ATOM     21  C   UNL     1       3.618   4.937  18.485  0.00  0.00    +0.000 A 
ATOM     22  C   UNL     1       2.745   5.708  19.256  0.00  0.00    +0.000 A 
BRANCH  21  23
ATOM     23  S   UNL     1       3.818   3.210  18.880  0.00  0.00    +0.000 S 
ATOM     24  O   UNL     1       3.678   2.472  17.644  0.00  0.00    +0.000 OA
ATOM     25  O   UNL     1       5.017   3.100  19.690  0.00  0.00    +0.000 OA
BRANCH  23  26
ATOM     26  N   UNL     1       2.465   2.903  19.857  0.00  0.00    +0.000 NA
ATOM     27  C   UNL     1       1.399   2.066  19.280  0.00  0.00    +0.000 C 
ATOM     28  C   UNL     1       2.749   2.591  21.270  0.00  0.00    +0.000 C 
ENDBRANCH  23  26
ENDBRANCH  21  23
ENDBRANCH   5  17
TORSDOF 4
ENDMDL
MODEL 5
REMARK VINA RESULT:      -7.2      2.505      3.050
REMARK  Name = 
REMARK  8 active torsions:
REMARK  status: ('A' for Active; 'I' for Inactive)
REMARK    1  A    between atoms: C_1  and  C_2
REMARK    2  A    between atoms: C_6  and  N_7
REMARK    3  A    between atoms: C_11  and  C_13
REMARK    4  A    between atoms: C_17  and  S_18
REMARK    5  A    between atoms: S_18  and  N_21
REMARK    6  A    between atoms: N_21  and  C_22
REMARK    7  A    between atoms: N_21  and  C_23
REMARK    8  A    between atoms: C_27  and  C_28
REMARK                            x       y       z     vdW  Elec       q    Type
REMARK                         _______ _______ _______ _____ _____    ______ ____
ROOT
ATOM      1  N   UNL     1       1.308  11.953  19.031  0.00  0.00    +0.000 N 
ATOM      2  C   UNL     1       1.351  11.489  20.442  0.00  0.00    +0.000 C 
ATOM      3  C   UNL     1       0.586  10.160  20.593  0.00  0.00    +0.000 C 
ATOM      4  N   UNL     1       1.112   9.152  19.664  0.00  0.00    +0.000 N 
ATOM      5  C   UNL     1       1.624   7.971  20.191  0.00  0.00    +0.000 C 
ATOM      6  O   UNL     1       1.577   7.714  21.394  0.00  0.00    +0.000 OA
ATOM      7  C   UNL     1       1.052   9.608  18.261  0.00  0.00    +0.000 C 
ATOM      8  C   UNL     1       1.846  10.930  18.091  0.00  0.00    +0.000 C 
ENDROOT
BRANCH   1  14
ATOM      9  C   UNL     1       0.282  16.860  18.641  0.00  0.00    +0.000 C 
ATOM     10  C   UNL     1       1.233  15.692  18.590  0.00  0.00    +0.000 A 
ATOM     11  C   UNL     1       2.560  15.930  18.216  0.00  0.00    +0.000 A 
ATOM     12  C   UNL     1       3.462  14.880  18.137  0.00  0.00    +0.000 A 
ATOM     13  C   UNL     1       3.038  13.578  18.395  0.00  0.00    +0.000 A 
ATOM     14  C   UNL     1       1.713  13.278  18.769  0.00  0.00    +0.000 A 
ATOM     15  C   UNL     1       0.816  14.372  18.918  0.00  0.00    +0.000 A 
ATOM     16  C   UNL     1      -0.585  14.174  19.454  0.00  0.00    +0.000 C 
ENDBRANCH   1  14
BRANCH   5  17
ATOM     17  C   UNL     1       2.253   6.941  19.328  0.00  0.00    +0.000 A 
ATOM     18  C   UNL     1       3.217   7.355  18.393  0.00  0.00    +0.000 A 
ATOM     19  C   UNL     1       3.843   6.427  17.556  0.00  0.00    +0.000 A 
ATOM     20  C   UNL     1       3.514   5.077  17.653  0.00  0.00    +0.000 A 
ATOM     21  C   UNL     1       2.507   4.680  18.536  0.00  0.00    +0.000 A 
ATOM     22  C   UNL     1       1.855   5.608  19.350  0.00  0.00    +0.000 A 
BRANCH  21  23
ATOM     23  S   UNL     1       2.066   2.958  18.670  0.00  0.00    +0.000 S 
ATOM     24  O   UNL     1       0.662   2.904  19.015  0.00  0.00    +0.000 OA
ATOM     25  O   UNL     1       2.573   2.300  17.479  0.00  0.00    +0.000 OA
BRANCH  23  26
ATOM     26  N   UNL     1       2.979   2.453  20.008  0.00  0.00    +0.000 NA
ATOM     27  C   UNL     1       4.443   2.584  19.908  0.00  0.00    +0.000 C 
ATOM     28  C   UNL     1       2.449   2.836  21.330  0.00  0.00    +0.000 C 
ENDBRANCH  23  26
ENDBRANCH  21  23
ENDBRANCH   5  17
TORSDOF 4
ENDMDL
MODEL 6
REMARK VINA RESULT:      -7.2      3.780      9.167
REMARK  Name = 
REMARK  8 active torsions:
REMARK  status: ('A' for Active; 'I' for Inactive)
REMARK    1  A    between atoms: C_1  and  C_2
REMARK    2  A    between atoms: C_6  and  N_7
REMARK    3  A    between atoms: C_11  and  C_13
REMARK    4  A    between atoms: C_17  and  S_18
REMARK    5  A    between atoms: S_18  and  N_21
REMARK    6  A    between atoms: N_21  and  C_22
REMARK    7  A    between atoms: N_21  and  C_23
REMARK    8  A    between atoms: C_27  and  C_28
REMARK                            x       y       z     vdW  Elec       q    Type
REMARK                         _______ _______ _______ _____ _____    ______ ____
ROOT
ATOM      1  N   UNL     1       2.604   6.484  18.931  0.00  0.00    +0.000 N 
ATOM      2  C   UNL     1       1.859   6.379  20.213  0.00  0.00    +0.000 C 
ATOM      3  C   UNL     1       1.879   7.727  20.958  0.00  0.00    +0.000 C 
ATOM      4  N   UNL     1       1.356   8.799  20.101  0.00  0.00    +0.000 N 
ATOM      5  C   UNL     1       0.241   9.507  20.537  0.00  0.00    +0.000 C 
ATOM      6  O   UNL     1      -0.267   9.319  21.643  0.00  0.00    +0.000 OA
ATOM      7  C   UNL     1       2.107   8.914  18.836  0.00  0.00    +0.000 C 
ATOM      8  C   UNL     1       2.067   7.569  18.062  0.00  0.00    +0.000 C 
ENDROOT
BRANCH   1  14
ATOM      9  C   UNL     1       5.617   3.794  15.937  0.00  0.00    +0.000 C 
ATOM     10  C   UNL     1       4.398   3.943  16.810  0.00  0.00    +0.000 A 
ATOM     11  C   UNL     1       3.519   2.859  16.914  0.00  0.00    +0.000 A 
ATOM     12  C   UNL     1       2.375   2.961  17.690  0.00  0.00    +0.000 A 
ATOM     13  C   UNL     1       2.077   4.159  18.338  0.00  0.00    +0.000 A 
ATOM     14  C   UNL     1       2.922   5.284  18.262  0.00  0.00    +0.000 A 
ATOM     15  C   UNL     1       4.129   5.143  17.524  0.00  0.00    +0.000 A 
ATOM     16  C   UNL     1       5.170   6.242  17.499  0.00  0.00    +0.000 C 
ENDBRANCH   1  14
BRANCH   5  17
ATOM     17  C   UNL     1      -0.402  10.545  19.693  0.00  0.00    +0.000 A 
ATOM     18  C   UNL     1       0.191  11.817  19.634  0.00  0.00    +0.000 A 
ATOM     19  C   UNL     1      -0.370  12.830  18.853  0.00  0.00    +0.000 A 
ATOM     20  C   UNL     1      -1.526  12.577  18.118  0.00  0.00    +0.000 A 
ATOM     21  C   UNL     1      -2.149  11.332  18.233  0.00  0.00    +0.000 A 
ATOM     22  C   UNL     1      -1.611  10.327  19.039  0.00  0.00    +0.000 A 
BRANCH  21  23
ATOM     23  S   UNL     1      -3.634  10.989  17.308  0.00  0.00    +0.000 S 
ATOM     24  O   UNL     1      -3.355  11.303  15.923  0.00  0.00    +0.000 OA
ATOM     25  O   UNL     1      -4.081   9.666  17.704  0.00  0.00    +0.000 OA
BRANCH  23  26
ATOM     26  N   UNL     1      -4.718  12.141  17.922  0.00  0.00    +0.000 NA
ATOM     27  C   UNL     1      -5.916  12.431  17.115  0.00  0.00    +0.000 C 
ATOM     28  C   UNL     1      -4.997  12.055  19.368  0.00  0.00    +0.000 C 
ENDBRANCH  23  26
ENDBRANCH  21  23
ENDBRANCH   5  17
TORSDOF 4
ENDMDL
MODEL 7
REMARK VINA RESULT:      -7.1      2.544      3.055
REMARK  Name = 
REMARK  8 active torsions:
REMARK  status: ('A' for Active; 'I' for Inactive)
REMARK    1  A    between atoms: C_1  and  C_2
REMARK    2  A    between atoms: C_6  and  N_7
REMARK    3  A    between atoms: C_11  and  C_13
REMARK    4  A    between atoms: C_17  and  S_18
REMARK    5  A    between atoms: S_18  and  N_21
REMARK    6  A    between atoms: N_21  and  C_22
REMARK    7  A    between atoms: N_21  and  C_23
REMARK    8  A    between atoms: C_27  and  C_28
REMARK                            x       y       z     vdW  Elec       q    Type
REMARK                         _______ _______ _______ _____ _____    ______ ____
ROOT
ATOM      1  N   UNL     1       1.144  12.181  19.210  0.00  0.00    +0.000 N 
ATOM      2  C   UNL     1       1.113  11.778  20.640  0.00  0.00    +0.000 C 
ATOM      3  C   UNL     1       0.378  10.434  20.803  0.00  0.00    +0.000 C 
ATOM      4  N   UNL     1       0.987   9.404  19.951  0.00  0.00    +0.000 N 
ATOM      5  C   UNL     1       1.498   8.262  20.559  0.00  0.00    +0.000 C 
ATOM      6  O   UNL     1       1.385   8.054  21.768  0.00  0.00    +0.000 OA
ATOM      7  C   UNL     1       1.001   9.799  18.529  0.00  0.00    +0.000 C 
ATOM      8  C   UNL     1       1.767  11.137  18.350  0.00  0.00    +0.000 C 
ENDROOT
BRANCH   1  14
ATOM      9  C   UNL     1       0.026  17.049  18.632  0.00  0.00    +0.000 C 
ATOM     10  C   UNL     1       1.002  15.901  18.645  0.00  0.00    +0.000 A 
ATOM     11  C   UNL     1       2.333  16.156  18.298  0.00  0.00    +0.000 A 
ATOM     12  C   UNL     1       3.259  15.125  18.277  0.00  0.00    +0.000 A 
ATOM     13  C   UNL     1       2.856  13.822  18.566  0.00  0.00    +0.000 A 
ATOM     14  C   UNL     1       1.528  13.506  18.915  0.00  0.00    +0.000 A 
ATOM     15  C   UNL     1       0.604  14.583  19.005  0.00  0.00    +0.000 A 
ATOM     16  C   UNL     1      -0.806  14.372  19.510  0.00  0.00    +0.000 C 
ENDBRANCH   1  14
BRANCH   5  17
ATOM     17  C   UNL     1       2.207   7.217  19.781  0.00  0.00    +0.000 A 
ATOM     18  C   UNL     1       2.699   7.553  18.509  0.00  0.00    +0.000 A 
ATOM     19  C   UNL     1       3.376   6.608  17.733  0.00  0.00    +0.000 A 
ATOM     20  C   UNL     1       3.573   5.321  18.228  0.00  0.00    +0.000 A 
ATOM     21  C   UNL     1       3.023   4.972  19.464  0.00  0.00    +0.000 A 
ATOM     22  C   UNL     1       2.317   5.903  20.228  0.00  0.00    +0.000 A 
BRANCH  21  23
ATOM     23  S   UNL     1       3.257   3.328  20.112  0.00  0.00    +0.000 S 
ATOM     24  O   UNL     1       4.655   2.998  19.944  0.00  0.00    +0.000 OA
ATOM     25  O   UNL     1       2.630   3.299  21.421  0.00  0.00    +0.000 OA
BRANCH  23  26
ATOM     26  N   UNL     1       2.339   2.383  19.043  0.00  0.00    +0.000 NA
ATOM     27  C   UNL     1       0.998   2.882  18.691  0.00  0.00    +0.000 C 
ATOM     28  C   UNL     1       3.070   1.819  17.893  0.00  0.00    +0.000 C 
ENDBRANCH  23  26
ENDBRANCH  21  23
ENDBRANCH   5  17
TORSDOF 4
ENDMDL
MODEL 8
REMARK VINA RESULT:      -7.0      1.683      2.272
REMARK  Name = 
REMARK  8 active torsions:
REMARK  status: ('A' for Active; 'I' for Inactive)
REMARK    1  A    between atoms: C_1  and  C_2
REMARK    2  A    between atoms: C_6  and  N_7
REMARK    3  A    between atoms: C_11  and  C_13
REMARK    4  A    between atoms: C_17  and  S_18
REMARK    5  A    between atoms: S_18  and  N_21
REMARK    6  A    between atoms: N_21  and  C_22
REMARK    7  A    between atoms: N_21  and  C_23
REMARK    8  A    between atoms: C_27  and  C_28
REMARK                            x       y       z     vdW  Elec       q    Type
REMARK                         _______ _______ _______ _____ _____    ______ ____
ROOT
ATOM      1  N   UNL     1       1.253   9.771  19.045  0.00  0.00    +0.000 N 
ATOM      2  C   UNL     1       1.499   9.198  20.394  0.00  0.00    +0.000 C 
ATOM      3  C   UNL     1       1.094   7.712  20.427  0.00  0.00    +0.000 C 
ATOM      4  N   UNL     1       1.789   6.962  19.372  0.00  0.00    +0.000 N 
ATOM      5  C   UNL     1       2.607   5.901  19.746  0.00  0.00    +0.000 C 
ATOM      6  O   UNL     1       2.703   5.525  20.915  0.00  0.00    +0.000 OA
ATOM      7  C   UNL     1       1.529   7.522  18.031  0.00  0.00    +0.000 C 
ATOM      8  C   UNL     1       1.963   9.012  17.978  0.00  0.00    +0.000 C 
ENDROOT
BRANCH   1  14
ATOM      9  C   UNL     1      -0.817  14.313  19.654  0.00  0.00    +0.000 C 
ATOM     10  C   UNL     1       0.312  13.413  19.222  0.00  0.00    +0.000 A 
ATOM     11  C   UNL     1       1.433  13.994  18.620  0.00  0.00    +0.000 A 
ATOM     12  C   UNL     1       2.485  13.200  18.189  0.00  0.00    +0.000 A 
ATOM     13  C   UNL     1       2.410  11.814  18.323  0.00  0.00    +0.000 A 
ATOM     14  C   UNL     1       1.303  11.174  18.915  0.00  0.00    +0.000 A 
ATOM     15  C   UNL     1       0.265  12.005  19.419  0.00  0.00    +0.000 A 
ATOM     16  C   UNL     1      -0.897  11.427  20.198  0.00  0.00    +0.000 C 
ENDBRANCH   1  14
BRANCH   5  17
ATOM     17  C   UNL     1       3.412   5.150  18.751  0.00  0.00    +0.000 A 
ATOM     18  C   UNL     1       2.897   3.941  18.255  0.00  0.00    +0.000 A 
ATOM     19  C   UNL     1       3.611   3.194  17.315  0.00  0.00    +0.000 A 
ATOM     20  C   UNL     1       4.844   3.655  16.857  0.00  0.00    +0.000 A 
ATOM     21  C   UNL     1       5.381   4.823  17.403  0.00  0.00    +0.000 A 
ATOM     22  C   UNL     1       4.687   5.555  18.367  0.00  0.00    +0.000 A 
BRANCH  21  23
ATOM     23  S   UNL     1       6.961   5.427  16.837  0.00  0.00    +0.000 S 
ATOM     24  O   UNL     1       7.888   4.318  16.900  0.00  0.00    +0.000 OA
ATOM     25  O   UNL     1       6.719   6.135  15.593  0.00  0.00    +0.000 OA
BRANCH  23  26
ATOM     26  N   UNL     1       7.370   6.552  18.039  0.00  0.00    +0.000 NA
ATOM     27  C   UNL     1       8.109   6.044  19.208  0.00  0.00    +0.000 C 
ATOM     28  C   UNL     1       7.867   7.855  17.558  0.00  0.00    +0.000 C 
ENDBRANCH  23  26
ENDBRANCH  21  23
ENDBRANCH   5  17
TORSDOF 4
ENDMDL
MODEL 9
REMARK VINA RESULT:      -7.0      2.916      4.315
REMARK  Name = 
REMARK  8 active torsions:
REMARK  status: ('A' for Active; 'I' for Inactive)
REMARK    1  A    between atoms: C_1  and  C_2
REMARK    2  A    between atoms: C_6  and  N_7
REMARK    3  A    between atoms: C_11  and  C_13
REMARK    4  A    between atoms: C_17  and  S_18
REMARK    5  A    between atoms: S_18  and  N_21
REMARK    6  A    between atoms: N_21  and  C_22
REMARK    7  A    between atoms: N_21  and  C_23
REMARK    8  A    between atoms: C_27  and  C_28
REMARK                            x       y       z     vdW  Elec       q    Type
REMARK                         _______ _______ _______ _____ _____    ______ ____
ROOT
ATOM      1  N   UNL     1      -0.731  11.364  20.227  0.00  0.00    +0.000 N 
ATOM      2  C   UNL     1      -0.375  11.358  18.784  0.00  0.00    +0.000 C 
ATOM      3  C   UNL     1       1.122  11.042  18.603  0.00  0.00    +0.000 C 
ATOM      4  N   UNL     1       1.467   9.777  19.263  0.00  0.00    +0.000 N 
ATOM      5  C   UNL     1       1.997   8.751  18.487  0.00  0.00    +0.000 C 
ATOM      6  O   UNL     1       2.256   8.897  17.292  0.00  0.00    +0.000 OA
ATOM      7  C   UNL     1       1.128   9.790  20.700  0.00  0.00    +0.000 C 
ATOM      8  C   UNL     1      -0.385  10.077  20.892  0.00  0.00    +0.000 C 
ENDROOT
BRANCH   1  14
ATOM      9  C   UNL     1      -3.888  13.213  23.678  0.00  0.00    +0.000 C 
ATOM     10  C   UNL     1      -3.540  12.831  22.262  0.00  0.00    +0.000 A 
ATOM     11  C   UNL     1      -4.522  12.972  21.275  0.00  0.00    +0.000 A 
ATOM     12  C   UNL     1      -4.250  12.613  19.964  0.00  0.00    +0.000 A 
ATOM     13  C   UNL     1      -3.007  12.075  19.633  0.00  0.00    +0.000 A 
ATOM     14  C   UNL     1      -1.984  11.904  20.586  0.00  0.00    +0.000 A 
ATOM     15  C   UNL     1      -2.249  12.345  21.912  0.00  0.00    +0.000 A 
ATOM     16  C   UNL     1      -1.172  12.339  22.975  0.00  0.00    +0.000 C 
ENDBRANCH   1  14
BRANCH   5  17
ATOM     17  C   UNL     1       2.289   7.413  19.059  0.00  0.00    +0.000 A 
ATOM     18  C   UNL     1       1.603   7.021  20.220  0.00  0.00    +0.000 A 
ATOM     19  C   UNL     1       1.837   5.772  20.800  0.00  0.00    +0.000 A 
ATOM     20  C   UNL     1       2.756   4.902  20.219  0.00  0.00    +0.000 A 
ATOM     21  C   UNL     1       3.485   5.322  19.103  0.00  0.00    +0.000 A 
ATOM     22  C   UNL     1       3.279   6.583  18.540  0.00  0.00    +0.000 A 
BRANCH  21  23
ATOM     23  S   UNL     1       4.672   4.227  18.348  0.00  0.00    +0.000 S 
ATOM     24  O   UNL     1       5.254   4.936  17.230  0.00  0.00    +0.000 OA
ATOM     25  O   UNL     1       5.500   3.702  19.419  0.00  0.00    +0.000 OA
BRANCH  23  26
ATOM     26  N   UNL     1       3.687   2.980  17.754  0.00  0.00    +0.000 NA
ATOM     27  C   UNL     1       3.567   1.768  18.583  0.00  0.00    +0.000 C 
ATOM     28  C   UNL     1       2.409   3.402  17.151  0.00  0.00    +0.000 C 
ENDBRANCH  23  26
ENDBRANCH  21  23
ENDBRANCH   5  17
TORSDOF 4
ENDMDL
