MODEL 1
REMARK VINA RESULT:      -7.6      0.000      0.000
REMARK  Name = 
REMARK  10 active torsions:
REMARK  status: ('A' for Active; 'I' for Inactive)
REMARK    1  A    between atoms: C_1  and  C_2
REMARK    2  A    between atoms: C_2  and  C_3
REMARK    3  A    between atoms: C_3  and  C_4
REMARK    4  A    between atoms: C_4  and  N_5
REMARK    5  A    between atoms: N_5  and  C_6
REMARK    6  A    between atoms: N_5  and  C_10
REMARK    7  A    between atoms: C_6  and  C_7
REMARK    8  A    between atoms: C_7  and  C_8
REMARK    9  A    between atoms: C_8  and  C_9
REMARK   10  A    between atoms: C_17  and  O_18
REMARK                            x       y       z     vdW  Elec       q    Type
REMARK                         _______ _______ _______ _____ _____    ______ ____
ROOT
ATOM      1  C   UNL     1       5.156   5.103  17.087  0.00  0.00    +0.000 C 
ATOM      2  C   UNL     1       4.441   6.176  17.936  0.00  0.00    +0.000 C 
ATOM      3  C   UNL     1       2.941   5.906  17.996  0.00  0.00    +0.000 C 
ATOM      4  C   UNL     1       2.601   4.488  18.369  0.00  0.00    +0.000 A 
ATOM      5  C   UNL     1       1.296   4.186  18.780  0.00  0.00    +0.000 A 
ATOM      6  C   UNL     1       0.936   2.878  19.102  0.00  0.00    +0.000 A 
ATOM      7  C   UNL     1       1.876   1.856  19.010  0.00  0.00    +0.000 A 
ATOM      8  C   UNL     1       3.171   2.151  18.591  0.00  0.00    +0.000 A 
ATOM      9  C   UNL     1       3.550   3.458  18.252  0.00  0.00    +0.000 A 
ATOM     10  C   UNL     1       4.969   3.742  17.810  0.00  0.00    +0.000 C 
ENDROOT
BRANCH   8  11
ATOM     11  O   UNL     1       4.102   1.153  18.500  0.00  0.00    +0.000 OA
ATOM     12  H   UNL     1       3.946   0.656  17.682  0.00  0.00    +0.000 HD
ENDBRANCH   8  11
BRANCH   1  13
ATOM     13  N   UNL     1       6.592   5.447  16.797  0.00  0.00    +0.000 NA
BRANCH  13  14
ATOM     14  C   UNL     1       7.392   5.458  18.047  0.00  0.00    +0.000 C 
BRANCH  14  15
ATOM     15  C   UNL     1       7.968   6.803  18.520  0.00  0.00    +0.000 C 
BRANCH  15  17
ATOM     16  C   UNL     1       8.312   9.251  18.072  0.00  0.00    +0.000 C 
ATOM     17  C   UNL     1       7.728   7.951  17.539  0.00  0.00    +0.000 C 
ENDBRANCH  15  17
ENDBRANCH  14  15
ENDBRANCH  13  14
BRANCH  13  18
ATOM     18  C   UNL     1       7.186   4.562  15.763  0.00  0.00    +0.000 C 
BRANCH  18  19
ATOM     19  C   UNL     1       6.743   4.879  14.326  0.00  0.00    +0.000 C 
BRANCH  19  20
ATOM     20  C   UNL     1       5.912   3.777  13.671  0.00  0.00    +0.000 C 
ATOM     21  C   UNL     1       6.417   3.555  12.250  0.00  0.00    +0.000 C 
ENDBRANCH  19  20
ENDBRANCH  18  19
ENDBRANCH  13  18
ENDBRANCH   1  13
TORSDOF 8
ENDMDL
MODEL 2
REMARK VINA RESULT:      -7.5      1.437      1.717
REMARK  Name = 
REMARK  10 active torsions:
REMARK  status: ('A' for Active; 'I' for Inactive)
REMARK    1  A    between atoms: C_1  and  C_2
REMARK    2  A    between atoms: C_2  and  C_3
REMARK    3  A    between atoms: C_3  and  C_4
REMARK    4  A    between atoms: C_4  and  N_5
REMARK    5  A    between atoms: N_5  and  C_6
REMARK    6  A    between atoms: N_5  and  C_10
REMARK    7  A    between atoms: C_6  and  C_7
REMARK    8  A    between atoms: C_7  and  C_8
REMARK    9  A    between atoms: C_8  and  C_9
REMARK   10  A    between atoms: C_17  and  O_18
REMARK                            x       y       z     vdW  Elec       q    Type
REMARK                         _______ _______ _______ _____ _____    ______ ____
ROOT
ATOM      1  C   UNL     1       4.229   5.150  17.334  0.00  0.00    +0.000 C 
ATOM      2  C   UNL     1       3.500   6.324  18.018  0.00  0.00    +0.000 C 
ATOM      3  C   UNL     1       2.236   5.840  18.723  0.00  0.00    +0.000 C 
ATOM      4  C   UNL     1       2.466   4.646  19.611  0.00  0.00    +0.000 A 
ATOM      5  C   UNL     1       1.491   4.305  20.558  0.00  0.00    +0.000 A 
ATOM      6  C   UNL     1       1.654   3.187  21.376  0.00  0.00    +0.000 A 
ATOM      7  C   UNL     1       2.791   2.396  21.251  0.00  0.00    +0.000 A 
ATOM      8  C   UNL     1       3.757   2.725  20.304  0.00  0.00    +0.000 A 
ATOM      9  C   UNL     1       3.606   3.839  19.464  0.00  0.00    +0.000 A 
ATOM     10  C   UNL     1       4.681   4.172  18.452  0.00  0.00    +0.000 C 
ENDROOT
BRANCH   8  11
ATOM     11  O   UNL     1       4.879   1.954  20.175  0.00  0.00    +0.000 OA
ATOM     12  H   UNL     1       5.052   1.514  21.023  0.00  0.00    +0.000 HD
ENDBRANCH   8  11
BRANCH   1  13
ATOM     13  N   UNL     1       5.346   5.599  16.430  0.00  0.00    +0.000 NA
BRANCH  13  14
ATOM     14  C   UNL     1       5.974   6.840  16.949  0.00  0.00    +0.000 C 
BRANCH  14  15
ATOM     15  C   UNL     1       7.504   6.861  17.102  0.00  0.00    +0.000 C 
BRANCH  15  17
ATOM     16  C   UNL     1       7.876   5.713  19.306  0.00  0.00    +0.000 C 
ATOM     17  C   UNL     1       7.973   7.029  18.548  0.00  0.00    +0.000 C 
ENDBRANCH  15  17
ENDBRANCH  14  15
ENDBRANCH  13  14
BRANCH  13  18
ATOM     18  C   UNL     1       6.345   4.527  16.191  0.00  0.00    +0.000 C 
BRANCH  18  19
ATOM     19  C   UNL     1       6.055   3.654  14.961  0.00  0.00    +0.000 C 
BRANCH  19  20
ATOM     20  C   UNL     1       6.549   4.247  13.643  0.00  0.00    +0.000 C 
ATOM     21  C   UNL     1       5.954   3.451  12.488  0.00  0.00    +0.000 C 
ENDBRANCH  19  20
ENDBRANCH  18  19
ENDBRANCH  13  18
ENDBRANCH   1  13
TORSDOF 8
ENDMDL
MODEL 3
REMARK VINA RESULT:      -7.3      1.082      1.532
REMARK  Name = 
REMARK  10 active torsions:
REMARK  status: ('A' for Active; 'I' for Inactive)
REMARK    1  A    between atoms: C_1  and  C_2
REMARK    2  A    between atoms: C_2  and  C_3
REMARK    3  A    between atoms: C_3  and  C_4
REMARK    4  A    between atoms: C_4  and  N_5
REMARK    5  A    between atoms: N_5  and  C_6
REMARK    6  A    between atoms: N_5  and  C_10
REMARK    7  A    between atoms: C_6  and  C_7
REMARK    8  A    between atoms: C_7  and  C_8
REMARK    9  A    between atoms: C_8  and  C_9
REMARK   10  A    between atoms: C_17  and  O_18
REMARK                            x       y       z     vdW  Elec       q    Type
REMARK                         _______ _______ _______ _____ _____    ______ ____
ROOT
ATOM      1  C   UNL     1       4.473   4.905  16.269  0.00  0.00    +0.000 C 
ATOM      2  C   UNL     1       4.281   6.041  17.295  0.00  0.00    +0.000 C 
ATOM      3  C   UNL     1       2.912   5.942  17.962  0.00  0.00    +0.000 C 
ATOM      4  C   UNL     1       2.600   4.566  18.489  0.00  0.00    +0.000 A 
ATOM      5  C   UNL     1       1.546   4.409  19.399  0.00  0.00    +0.000 A 
ATOM      6  C   UNL     1       1.207   3.147  19.884  0.00  0.00    +0.000 A 
ATOM      7  C   UNL     1       1.914   2.027  19.458  0.00  0.00    +0.000 A 
ATOM      8  C   UNL     1       2.955   2.178  18.545  0.00  0.00    +0.000 A 
ATOM      9  C   UNL     1       3.304   3.437  18.037  0.00  0.00    +0.000 A 
ATOM     10  C   UNL     1       4.446   3.564  17.053  0.00  0.00    +0.000 C 
ENDROOT
BRANCH   8  11
ATOM     11  O   UNL     1       3.657   1.083  18.122  0.00  0.00    +0.000 OA
ATOM     12  H   UNL     1       3.942   0.577  18.900  0.00  0.00    +0.000 HD
ENDBRANCH   8  11
BRANCH   1  13
ATOM     13  N   UNL     1       5.698   5.087  15.415  0.00  0.00    +0.000 NA
BRANCH  13  14
ATOM     14  C   UNL     1       6.827   5.614  16.223  0.00  0.00    +0.000 C 
BRANCH  14  15
ATOM     15  C   UNL     1       7.592   4.625  17.119  0.00  0.00    +0.000 C 
BRANCH  15  17
ATOM     16  C   UNL     1       7.870   6.566  18.689  0.00  0.00    +0.000 C 
ATOM     17  C   UNL     1       7.670   5.062  18.583  0.00  0.00    +0.000 C 
ENDBRANCH  15  17
ENDBRANCH  14  15
ENDBRANCH  13  14
BRANCH  13  18
ATOM     18  C   UNL     1       6.067   3.847  14.685  0.00  0.00    +0.000 C 
BRANCH  18  19
ATOM     19  C   UNL     1       6.310   4.047  13.181  0.00  0.00    +0.000 C 
BRANCH  19  20
ATOM     20  C   UNL     1       5.769   2.917  12.306  0.00  0.00    +0.000 C 
ATOM     21  C   UNL     1       4.493   3.390  11.619  0.00  0.00    +0.000 C 
ENDBRANCH  19  20
ENDBRANCH  18  19
ENDBRANCH  13  18
ENDBRANCH   1  13
TORSDOF 8
ENDMDL
MODEL 4
REMARK VINA RESULT:      -7.3      1.343      1.378
REMARK  Name = 
REMARK  10 active torsions:
REMARK  status: ('A' for Active; 'I' for Inactive)
REMARK    1  A    between atoms: C_1  and  C_2
REMARK    2  A    between atoms: C_2  and  C_3
REMARK    3  A    between atoms: C_3  and  C_4
REMARK    4  A    between atoms: C_4  and  N_5
REMARK    5  A    between atoms: N_5  and  C_6
REMARK    6  A    between atoms: N_5  and  C_10
REMARK    7  A    between atoms: C_6  and  C_7
REMARK    8  A    between atoms: C_7  and  C_8
REMARK    9  A    between atoms: C_8  and  C_9
REMARK   10  A    between atoms: C_17  and  O_18
REMARK                            x       y       z     vdW  Elec       q    Type
REMARK                         _______ _______ _______ _____ _____    ______ ____
ROOT
ATOM      1  C   UNL     1       4.339   5.486  17.350  0.00  0.00    +0.000 C 
ATOM      2  C   UNL     1       3.705   6.644  18.148  0.00  0.00    +0.000 C 
ATOM      3  C   UNL     1       2.431   6.183  18.850  0.00  0.00    +0.000 C 
ATOM      4  C   UNL     1       2.605   4.909  19.632  0.00  0.00    +0.000 A 
ATOM      5  C   UNL     1       1.634   4.552  20.577  0.00  0.00    +0.000 A 
ATOM      6  C   UNL     1       1.745   3.364  21.298  0.00  0.00    +0.000 A 
ATOM      7  C   UNL     1       2.825   2.516  21.077  0.00  0.00    +0.000 A 
ATOM      8  C   UNL     1       3.787   2.861  20.130  0.00  0.00    +0.000 A 
ATOM      9  C   UNL     1       3.687   4.046  19.386  0.00  0.00    +0.000 A 
ATOM     10  C   UNL     1       4.755   4.393  18.373  0.00  0.00    +0.000 C 
ENDROOT
BRANCH   8  11
ATOM     11  O   UNL     1       4.853   2.035  19.906  0.00  0.00    +0.000 OA
ATOM     12  H   UNL     1       5.632   2.405  20.350  0.00  0.00    +0.000 HD
ENDBRANCH   8  11
BRANCH   1  13
ATOM     13  N   UNL     1       5.459   5.937  16.452  0.00  0.00    +0.000 NA
BRANCH  13  14
ATOM     14  C   UNL     1       6.777   5.579  17.034  0.00  0.00    +0.000 C 
BRANCH  14  15
ATOM     15  C   UNL     1       7.452   6.602  17.964  0.00  0.00    +0.000 C 
BRANCH  15  17
ATOM     16  C   UNL     1       8.398   8.910  18.256  0.00  0.00    +0.000 C 
ATOM     17  C   UNL     1       7.603   7.990  17.341  0.00  0.00    +0.000 C 
ENDBRANCH  15  17
ENDBRANCH  14  15
ENDBRANCH  13  14
BRANCH  13  18
ATOM     18  C   UNL     1       5.308   5.431  15.063  0.00  0.00    +0.000 C 
BRANCH  18  19
ATOM     19  C   UNL     1       6.529   4.663  14.533  0.00  0.00    +0.000 C 
BRANCH  19  20
ATOM     20  C   UNL     1       6.214   3.705  13.386  0.00  0.00    +0.000 C 
ATOM     21  C   UNL     1       7.041   4.103  12.168  0.00  0.00    +0.000 C 
ENDBRANCH  19  20
ENDBRANCH  18  19
ENDBRANCH  13  18
ENDBRANCH   1  13
TORSDOF 8
ENDMDL
MODEL 5
REMARK VINA RESULT:      -7.2      1.469      3.922
REMARK  Name = 
REMARK  10 active torsions:
REMARK  status: ('A' for Active; 'I' for Inactive)
REMARK    1  A    between atoms: C_1  and  C_2
REMARK    2  A    between atoms: C_2  and  C_3
REMARK    3  A    between atoms: C_3  and  C_4
REMARK    4  A    between atoms: C_4  and  N_5
REMARK    5  A    between atoms: N_5  and  C_6
REMARK    6  A    between atoms: N_5  and  C_10
REMARK    7  A    between atoms: C_6  and  C_7
REMARK    8  A    between atoms: C_7  and  C_8
REMARK    9  A    between atoms: C_8  and  C_9
REMARK   10  A    between atoms: C_17  and  O_18
REMARK                            x       y       z     vdW  Elec       q    Type
REMARK                         _______ _______ _______ _____ _____    ______ ____
ROOT
ATOM      1  C   UNL     1       4.618   4.374  17.508  0.00  0.00    +0.000 C 
ATOM      2  C   UNL     1       3.673   5.581  17.681  0.00  0.00    +0.000 C 
ATOM      3  C   UNL     1       2.296   5.127  18.156  0.00  0.00    +0.000 C 
ATOM      4  C   UNL     1       2.347   4.199  19.341  0.00  0.00    +0.000 A 
ATOM      5  C   UNL     1       1.176   3.970  20.077  0.00  0.00    +0.000 A 
ATOM      6  C   UNL     1       1.177   3.094  21.161  0.00  0.00    +0.000 A 
ATOM      7  C   UNL     1       2.347   2.430  21.516  0.00  0.00    +0.000 A 
ATOM      8  C   UNL     1       3.510   2.646  20.780  0.00  0.00    +0.000 A 
ATOM      9  C   UNL     1       3.527   3.516  19.680  0.00  0.00    +0.000 A 
ATOM     10  C   UNL     1       4.811   3.733  18.909  0.00  0.00    +0.000 C 
ENDROOT
BRANCH   8  11
ATOM     11  O   UNL     1       4.665   2.000  21.124  0.00  0.00    +0.000 OA
ATOM     12  H   UNL     1       4.474   1.385  21.849  0.00  0.00    +0.000 HD
ENDBRANCH   8  11
BRANCH   1  13
ATOM     13  N   UNL     1       5.908   4.732  16.820  0.00  0.00    +0.000 NA
BRANCH  13  14
ATOM     14  C   UNL     1       6.128   3.868  15.634  0.00  0.00    +0.000 C 
BRANCH  14  15
ATOM     15  C   UNL     1       5.539   4.328  14.289  0.00  0.00    +0.000 C 
BRANCH  15  17
ATOM     16  C   UNL     1       5.168   3.303  12.026  0.00  0.00    +0.000 C 
ATOM     17  C   UNL     1       6.204   3.678  13.075  0.00  0.00    +0.000 C 
ENDBRANCH  15  17
ENDBRANCH  14  15
ENDBRANCH  13  14
BRANCH  13  18
ATOM     18  C   UNL     1       5.982   6.176  16.477  0.00  0.00    +0.000 C 
BRANCH  18  19
ATOM     19  C   UNL     1       7.381   6.791  16.628  0.00  0.00    +0.000 C 
BRANCH  19  20
ATOM     20  C   UNL     1       7.705   7.269  18.042  0.00  0.00    +0.000 C 
ATOM     21  C   UNL     1       8.180   8.717  17.979  0.00  0.00    +0.000 C 
ENDBRANCH  19  20
ENDBRANCH  18  19
ENDBRANCH  13  18
ENDBRANCH   1  13
TORSDOF 8
ENDMDL
MODEL 6
REMARK VINA RESULT:      -7.2      1.269      3.848
REMARK  Name = 
REMARK  10 active torsions:
REMARK  status: ('A' for Active; 'I' for Inactive)
REMARK    1  A    between atoms: C_1  and  C_2
REMARK    2  A    between atoms: C_2  and  C_3
REMARK    3  A    between atoms: C_3  and  C_4
REMARK    4  A    between atoms: C_4  and  N_5
REMARK    5  A    between atoms: N_5  and  C_6
REMARK    6  A    between atoms: N_5  and  C_10
REMARK    7  A    between atoms: C_6  and  C_7
REMARK    8  A    between atoms: C_7  and  C_8
REMARK    9  A    between atoms: C_8  and  C_9
REMARK   10  A    between atoms: C_17  and  O_18
REMARK                            x       y       z     vdW  Elec       q    Type
REMARK                         _______ _______ _______ _____ _____    ______ ____
ROOT
ATOM      1  C   UNL     1       5.160   4.921  17.934  0.00  0.00    +0.000 C 
ATOM      2  C   UNL     1       4.203   6.126  18.048  0.00  0.00    +0.000 C 
ATOM      3  C   UNL     1       2.752   5.659  18.118  0.00  0.00    +0.000 C 
ATOM      4  C   UNL     1       2.519   4.578  19.141  0.00  0.00    +0.000 A 
ATOM      5  C   UNL     1       1.207   4.292  19.542  0.00  0.00    +0.000 A 
ATOM      6  C   UNL     1       0.950   3.277  20.462  0.00  0.00    +0.000 A 
ATOM      7  C   UNL     1       2.002   2.532  20.986  0.00  0.00    +0.000 A 
ATOM      8  C   UNL     1       3.306   2.806  20.581  0.00  0.00    +0.000 A 
ATOM      9  C   UNL     1       3.584   3.815  19.648  0.00  0.00    +0.000 A 
ATOM     10  C   UNL     1       5.014   4.090  19.238  0.00  0.00    +0.000 C 
ENDROOT
BRANCH   8  11
ATOM     11  O   UNL     1       4.346   2.080  21.092  0.00  0.00    +0.000 OA
ATOM     12  H   UNL     1       4.804   2.618  21.757  0.00  0.00    +0.000 HD
ENDBRANCH   8  11
BRANCH   1  13
ATOM     13  N   UNL     1       6.577   5.326  17.625  0.00  0.00    +0.000 NA
BRANCH  13  14
ATOM     14  C   UNL     1       7.149   4.460  16.564  0.00  0.00    +0.000 C 
BRANCH  14  15
ATOM     15  C   UNL     1       6.921   4.872  15.099  0.00  0.00    +0.000 C 
BRANCH  15  17
ATOM     16  C   UNL     1       6.175   3.725  12.992  0.00  0.00    +0.000 C 
ATOM     17  C   UNL     1       5.791   4.100  14.416  0.00  0.00    +0.000 C 
ENDBRANCH  15  17
ENDBRANCH  14  15
ENDBRANCH  13  14
BRANCH  13  18
ATOM     18  C   UNL     1       6.691   6.768  17.289  0.00  0.00    +0.000 C 
BRANCH  18  19
ATOM     19  C   UNL     1       7.911   7.468  17.907  0.00  0.00    +0.000 C 
BRANCH  19  20
ATOM     20  C   UNL     1       7.890   8.990  17.778  0.00  0.00    +0.000 C 
ATOM     21  C   UNL     1       8.835   9.587  18.814  0.00  0.00    +0.000 C 
ENDBRANCH  19  20
ENDBRANCH  18  19
ENDBRANCH  13  18
ENDBRANCH   1  13
TORSDOF 8
ENDMDL
MODEL 7
REMARK VINA RESULT:      -7.2      1.106      1.448
REMARK  Name = 
REMARK  10 active torsions:
REMARK  status: ('A' for Active; 'I' for Inactive)
REMARK    1  A    between atoms: C_1  and  C_2
REMARK    2  A    between atoms: C_2  and  C_3
REMARK    3  A    between atoms: C_3  and  C_4
REMARK    4  A    between atoms: C_4  and  N_5
REMARK    5  A    between atoms: N_5  and  C_6
REMARK    6  A    between atoms: N_5  and  C_10
REMARK    7  A    between atoms: C_6  and  C_7
REMARK    8  A    between atoms: C_7  and  C_8
REMARK    9  A    between atoms: C_8  and  C_9
REMARK   10  A    between atoms: C_17  and  O_18
REMARK                            x       y       z     vdW  Elec       q    Type
REMARK                         _______ _______ _______ _____ _____    ______ ____
ROOT
ATOM      1  C   UNL     1       4.191   5.270  16.881  0.00  0.00    +0.000 C 
ATOM      2  C   UNL     1       4.156   6.291  18.038  0.00  0.00    +0.000 C 
ATOM      3  C   UNL     1       2.838   6.199  18.801  0.00  0.00    +0.000 C 
ATOM      4  C   UNL     1       2.471   4.794  19.198  0.00  0.00    +0.000 A 
ATOM      5  C   UNL     1       1.481   4.598  20.169  0.00  0.00    +0.000 A 
ATOM      6  C   UNL     1       1.092   3.311  20.539  0.00  0.00    +0.000 A 
ATOM      7  C   UNL     1       1.685   2.206  19.937  0.00  0.00    +0.000 A 
ATOM      8  C   UNL     1       2.662   2.398  18.963  0.00  0.00    +0.000 A 
ATOM      9  C   UNL     1       3.059   3.684  18.568  0.00  0.00    +0.000 A 
ATOM     10  C   UNL     1       4.130   3.853  17.513  0.00  0.00    +0.000 C 
ENDROOT
BRANCH   8  11
ATOM     11  O   UNL     1       3.252   1.317  18.366  0.00  0.00    +0.000 OA
ATOM     12  H   UNL     1       2.817   1.156  17.514  0.00  0.00    +0.000 HD
ENDBRANCH   8  11
BRANCH   1  13
ATOM     13  N   UNL     1       5.358   5.474  15.954  0.00  0.00    +0.000 NA
BRANCH  13  14
ATOM     14  C   UNL     1       6.637   5.444  16.706  0.00  0.00    +0.000 C 
BRANCH  14  15
ATOM     15  C   UNL     1       7.353   6.782  16.960  0.00  0.00    +0.000 C 
BRANCH  15  17
ATOM     16  C   UNL     1       7.623   5.668  19.195  0.00  0.00    +0.000 C 
ATOM     17  C   UNL     1       7.897   6.925  18.382  0.00  0.00    +0.000 C 
ENDBRANCH  15  17
ENDBRANCH  14  15
ENDBRANCH  13  14
BRANCH  13  18
ATOM     18  C   UNL     1       5.355   4.512  14.822  0.00  0.00    +0.000 C 
BRANCH  18  19
ATOM     19  C   UNL     1       6.687   4.424  14.063  0.00  0.00    +0.000 C 
BRANCH  19  20
ATOM     20  C   UNL     1       6.576   3.789  12.678  0.00  0.00    +0.000 C 
ATOM     21  C   UNL     1       5.116   3.447  12.406  0.00  0.00    +0.000 C 
ENDBRANCH  19  20
ENDBRANCH  18  19
ENDBRANCH  13  18
ENDBRANCH   1  13
TORSDOF 8
ENDMDL
MODEL 8
REMARK VINA RESULT:      -7.1      1.795      2.497
REMARK  Name = 
REMARK  10 active torsions:
REMARK  status: ('A' for Active; 'I' for Inactive)
REMARK    1  A    between atoms: C_1  and  C_2
REMARK    2  A    between atoms: C_2  and  C_3
REMARK    3  A    between atoms: C_3  and  C_4
REMARK    4  A    between atoms: C_4  and  N_5
REMARK    5  A    between atoms: N_5  and  C_6
REMARK    6  A    between atoms: N_5  and  C_10
REMARK    7  A    between atoms: C_6  and  C_7
REMARK    8  A    between atoms: C_7  and  C_8
REMARK    9  A    between atoms: C_8  and  C_9
REMARK   10  A    between atoms: C_17  and  O_18
REMARK                            x       y       z     vdW  Elec       q    Type
REMARK                         _______ _______ _______ _____ _____    ______ ____
ROOT
ATOM      1  C   UNL     1       4.890   4.597  17.264  0.00  0.00    +0.000 C 
ATOM      2  C   UNL     1       4.036   3.451  16.683  0.00  0.00    +0.000 C 
ATOM      3  C   UNL     1       3.392   2.636  17.801  0.00  0.00    +0.000 C 
ATOM      4  C   UNL     1       2.687   3.480  18.829  0.00  0.00    +0.000 A 
ATOM      5  C   UNL     1       1.787   2.867  19.711  0.00  0.00    +0.000 A 
ATOM      6  C   UNL     1       1.139   3.611  20.697  0.00  0.00    +0.000 A 
ATOM      7  C   UNL     1       1.389   4.974  20.815  0.00  0.00    +0.000 A 
ATOM      8  C   UNL     1       2.292   5.584  19.947  0.00  0.00    +0.000 A 
ATOM      9  C   UNL     1       2.962   4.852  18.956  0.00  0.00    +0.000 A 
ATOM     10  C   UNL     1       3.928   5.550  18.025  0.00  0.00    +0.000 C 
ENDROOT
BRANCH   8  11
ATOM     11  O   UNL     1       2.542   6.925  20.054  0.00  0.00    +0.000 OA
ATOM     12  H   UNL     1       1.783   7.413  19.698  0.00  0.00    +0.000 HD
ENDBRANCH   8  11
BRANCH   1  13
ATOM     13  N   UNL     1       5.734   5.284  16.225  0.00  0.00    +0.000 NA
BRANCH  13  14
ATOM     14  C   UNL     1       7.178   5.098  16.513  0.00  0.00    +0.000 C 
BRANCH  14  15
ATOM     15  C   UNL     1       7.588   4.809  17.967  0.00  0.00    +0.000 C 
BRANCH  15  17
ATOM     16  C   UNL     1       7.816   7.311  17.944  0.00  0.00    +0.000 C 
ATOM     17  C   UNL     1       7.745   6.068  18.820  0.00  0.00    +0.000 C 
ENDBRANCH  15  17
ENDBRANCH  14  15
ENDBRANCH  13  14
BRANCH  13  18
ATOM     18  C   UNL     1       5.383   4.863  14.844  0.00  0.00    +0.000 C 
BRANCH  18  19
ATOM     19  C   UNL     1       6.473   4.046  14.135  0.00  0.00    +0.000 C 
BRANCH  19  20
ATOM     20  C   UNL     1       6.070   3.533  12.754  0.00  0.00    +0.000 C 
ATOM     21  C   UNL     1       7.117   3.973  11.737  0.00  0.00    +0.000 C 
ENDBRANCH  19  20
ENDBRANCH  18  19
ENDBRANCH  13  18
ENDBRANCH   1  13
TORSDOF 8
ENDMDL
MODEL 9
REMARK VINA RESULT:      -7.1      1.609      2.158
REMARK  Name = 
REMARK  10 active torsions:
REMARK  status: ('A' for Active; 'I' for Inactive)
REMARK    1  A    between atoms: C_1  and  C_2
REMARK    2  A    between atoms: C_2  and  C_3
REMARK    3  A    between atoms: C_3  and  C_4
REMARK    4  A    between atoms: C_4  and  N_5
REMARK    5  A    between atoms: N_5  and  C_6
REMARK    6  A    between atoms: N_5  and  C_10
REMARK    7  A    between atoms: C_6  and  C_7
REMARK    8  A    between atoms: C_7  and  C_8
REMARK    9  A    between atoms: C_8  and  C_9
REMARK   10  A    between atoms: C_17  and  O_18
REMARK                            x       y       z     vdW  Elec       q    Type
REMARK                         _______ _______ _______ _____ _____    ______ ____
ROOT
ATOM      1  C   UNL     1       5.312   4.242  18.066  0.00  0.00    +0.000 C 
ATOM      2  C   UNL     1       4.543   3.398  17.028  0.00  0.00    +0.000 C 
ATOM      3  C   UNL     1       3.519   2.498  17.713  0.00  0.00    +0.000 C 
ATOM      4  C   UNL     1       2.643   3.228  18.697  0.00  0.00    +0.000 A 
ATOM      5  C   UNL     1       1.466   2.614  19.145  0.00  0.00    +0.000 A 
ATOM      6  C   UNL     1       0.646   3.245  20.079  0.00  0.00    +0.000 A 
ATOM      7  C   UNL     1       0.998   4.495  20.581  0.00  0.00    +0.000 A 
ATOM      8  C   UNL     1       2.173   5.102  20.146  0.00  0.00    +0.000 A 
ATOM      9  C   UNL     1       3.017   4.479  19.215  0.00  0.00    +0.000 A 
ATOM     10  C   UNL     1       4.281   5.174  18.759  0.00  0.00    +0.000 C 
ENDROOT
BRANCH   8  11
ATOM     11  O   UNL     1       2.526   6.331  20.632  0.00  0.00    +0.000 OA
ATOM     12  H   UNL     1       3.113   6.207  21.395  0.00  0.00    +0.000 HD
ENDBRANCH   8  11
BRANCH   1  13
ATOM     13  N   UNL     1       6.490   4.968  17.474  0.00  0.00    +0.000 NA
BRANCH  13  14
ATOM     14  C   UNL     1       7.508   5.253  18.516  0.00  0.00    +0.000 C 
BRANCH  14  15
ATOM     15  C   UNL     1       8.060   6.685  18.609  0.00  0.00    +0.000 C 
BRANCH  15  17
ATOM     16  C   UNL     1       7.973   9.051  17.768  0.00  0.00    +0.000 C 
ATOM     17  C   UNL     1       7.535   7.616  17.514  0.00  0.00    +0.000 C 
ENDBRANCH  15  17
ENDBRANCH  14  15
ENDBRANCH  13  14
BRANCH  13  18
ATOM     18  C   UNL     1       7.069   4.250  16.310  0.00  0.00    +0.000 C 
BRANCH  18  19
ATOM     19  C   UNL     1       6.898   4.978  14.968  0.00  0.00    +0.000 C 
BRANCH  19  20
ATOM     20  C   UNL     1       5.728   4.472  14.127  0.00  0.00    +0.000 C 
ATOM     21  C   UNL     1       6.275   3.708  12.926  0.00  0.00    +0.000 C 
ENDBRANCH  19  20
ENDBRANCH  18  19
ENDBRANCH  13  18
ENDBRANCH   1  13
TORSDOF 8
ENDMDL
