MODEL 1
REMARK VINA RESULT:      -7.2      0.000      0.000
REMARK  Name = 
REMARK  9 active torsions:
REMARK  status: ('A' for Active; 'I' for Inactive)
REMARK    1  A    between atoms: C_1  and  C_2
REMARK    2  A    between atoms: C_2  and  O_3
REMARK    3  A    between atoms: O_3  and  C_4
REMARK    4  A    between atoms: C_4  and  C_6
REMARK    5  A    between atoms: C_8  and  C_9
REMARK    6  A    between atoms: C_18  and  N_19
REMARK    7  A    between atoms: N_22  and  C_23
REMARK    8  A    between atoms: C_26  and  O_27
REMARK    9  A    between atoms: O_27  and  C_28
REMARK                            x       y       z     vdW  Elec       q    Type
REMARK                         _______ _______ _______ _____ _____    ______ ____
ROOT
ATOM      1  C   UNL     1      -0.494  12.313  18.873  0.00  0.00    +0.000 A 
ATOM      2  C   UNL     1      -0.053  13.658  19.109  0.00  0.00    +0.000 A 
ATOM      3  C   UNL     1       1.301  13.654  19.387  0.00  0.00    +0.000 A 
ATOM      4  N   UNL     1       1.662  12.329  19.386  0.00  0.00    +0.000 N 
ATOM      5  C   UNL     1       0.618  11.508  19.042  0.00  0.00    +0.000 A 
ATOM      6  H   UNL     1       2.585  11.991  19.611  0.00  0.00    +0.000 HD
ENDROOT
BRANCH   3   7
ATOM      7  C   UNL     1       2.234  14.757  19.671  0.00  0.00    +0.000 A 
ATOM      8  C   UNL     1       3.187  15.084  18.689  0.00  0.00    +0.000 A 
ATOM      9  C   UNL     1       4.112  16.111  18.887  0.00  0.00    +0.000 A 
ATOM     10  C   UNL     1       4.098  16.833  20.079  0.00  0.00    +0.000 A 
ATOM     11 CL   UNL     1       5.237  18.096  20.324  0.00  0.00    +0.000 Cl
ATOM     12  C   UNL     1       3.169  16.534  21.067  0.00  0.00    +0.000 A 
ATOM     13  C   UNL     1       2.242  15.503  20.870  0.00  0.00    +0.000 A 
ATOM     14 CL   UNL     1       1.153  15.202  22.187  0.00  0.00    +0.000 Cl
ENDBRANCH   3   7
BRANCH   5  15
ATOM     15  N   UNL     1       0.841  10.171  19.011  0.00  0.00    +0.000 N 
ATOM     16  C   UNL     1       1.320   9.460  17.812  0.00  0.00    +0.000 C 
ATOM     17  C   UNL     1       2.497   8.534  18.186  0.00  0.00    +0.000 C 
ATOM     18  N   UNL     1       2.148   7.656  19.319  0.00  0.00    +0.000 N 
ATOM     19  C   UNL     1       1.595   8.355  20.499  0.00  0.00    +0.000 C 
ATOM     20  C   UNL     1       0.414   9.272  20.096  0.00  0.00    +0.000 C 
BRANCH  18  21
ATOM     21  C   UNL     1       2.201   6.281  19.259  0.00  0.00    +0.000 A 
ATOM     22  C   UNL     1       2.019   5.496  20.407  0.00  0.00    +0.000 A 
ATOM     23  C   UNL     1       2.075   4.099  20.364  0.00  0.00    +0.000 A 
ATOM     24  C   UNL     1       2.297   3.440  19.160  0.00  0.00    +0.000 A 
ATOM     25  C   UNL     1       2.493   4.191  18.007  0.00  0.00    +0.000 A 
ATOM     26  C   UNL     1       2.446   5.592  18.063  0.00  0.00    +0.000 A 
BRANCH  24  27
ATOM     27  O   UNL     1       2.344   2.076  19.238  0.00  0.00    +0.000 OA
ATOM     28  C   UNL     1       3.461   1.464  18.604  0.00  0.00    +0.000 C 
ENDBRANCH  24  27
ENDBRANCH  18  21
ENDBRANCH   5  15
BRANCH   1  29
ATOM     29  C   UNL     1      -1.833  11.927  18.449  0.00  0.00    +0.000 C 
ATOM     30  O   UNL     1      -2.821  11.908  19.174  0.00  0.00    +0.000 OA
BRANCH  29  31
ATOM     31  O   UNL     1      -1.830  11.491  17.152  0.00  0.00    +0.000 OA
BRANCH  31  33
ATOM     32  C   UNL     1      -2.865  10.036  15.591  0.00  0.00    +0.000 C 
ATOM     33  C   UNL     1      -2.217  10.128  16.960  0.00  0.00    +0.000 C 
ENDBRANCH  31  33
ENDBRANCH  29  31
ENDBRANCH   1  29
TORSDOF 7
ENDMDL
MODEL 2
REMARK VINA RESULT:      -7.1      4.377      7.234
REMARK  Name = 
REMARK  9 active torsions:
REMARK  status: ('A' for Active; 'I' for Inactive)
REMARK    1  A    between atoms: C_1  and  C_2
REMARK    2  A    between atoms: C_2  and  O_3
REMARK    3  A    between atoms: O_3  and  C_4
REMARK    4  A    between atoms: C_4  and  C_6
REMARK    5  A    between atoms: C_8  and  C_9
REMARK    6  A    between atoms: C_18  and  N_19
REMARK    7  A    between atoms: N_22  and  C_23
REMARK    8  A    between atoms: C_26  and  O_27
REMARK    9  A    between atoms: O_27  and  C_28
REMARK                            x       y       z     vdW  Elec       q    Type
REMARK                         _______ _______ _______ _____ _____    ______ ____
ROOT
ATOM      1  C   UNL     1       2.250   5.558  20.346  0.00  0.00    +0.000 A 
ATOM      2  C   UNL     1       1.557   6.501  21.175  0.00  0.00    +0.000 A 
ATOM      3  C   UNL     1       1.441   7.704  20.501  0.00  0.00    +0.000 A 
ATOM      4  N   UNL     1       2.109   7.516  19.316  0.00  0.00    +0.000 N 
ATOM      5  C   UNL     1       2.567   6.230  19.179  0.00  0.00    +0.000 A 
ATOM      6  H   UNL     1       2.248   8.234  18.622  0.00  0.00    +0.000 HD
ENDROOT
BRANCH   3   7
ATOM      7  C   UNL     1       0.802   8.972  20.890  0.00  0.00    +0.000 A 
ATOM      8  C   UNL     1       0.463   9.151  22.244  0.00  0.00    +0.000 A 
ATOM      9  C   UNL     1      -0.154  10.322  22.690  0.00  0.00    +0.000 A 
ATOM     10  C   UNL     1      -0.445  11.338  21.782  0.00  0.00    +0.000 A 
ATOM     11 CL   UNL     1      -1.207  12.778  22.329  0.00  0.00    +0.000 Cl
ATOM     12  C   UNL     1      -0.123  11.190  20.440  0.00  0.00    +0.000 A 
ATOM     13  C   UNL     1       0.495  10.016  19.991  0.00  0.00    +0.000 A 
ATOM     14 CL   UNL     1       0.819   9.935  18.289  0.00  0.00    +0.000 Cl
ENDBRANCH   3   7
BRANCH   5  15
ATOM     15  N   UNL     1       3.252   5.915  18.052  0.00  0.00    +0.000 N 
ATOM     16  C   UNL     1       4.036   6.897  17.282  0.00  0.00    +0.000 C 
ATOM     17  C   UNL     1       5.435   6.324  16.971  0.00  0.00    +0.000 C 
ATOM     18  N   UNL     1       5.341   4.992  16.344  0.00  0.00    +0.000 N 
ATOM     19  C   UNL     1       4.492   4.023  17.071  0.00  0.00    +0.000 C 
ATOM     20  C   UNL     1       3.095   4.622  17.365  0.00  0.00    +0.000 C 
BRANCH  18  21
ATOM     21  C   UNL     1       5.883   4.691  15.114  0.00  0.00    +0.000 A 
ATOM     22  C   UNL     1       5.211   3.856  14.209  0.00  0.00    +0.000 A 
ATOM     23  C   UNL     1       5.751   3.537  12.958  0.00  0.00    +0.000 A 
ATOM     24  C   UNL     1       6.976   4.062  12.565  0.00  0.00    +0.000 A 
ATOM     25  C   UNL     1       7.671   4.883  13.446  0.00  0.00    +0.000 A 
ATOM     26  C   UNL     1       7.126   5.189  14.702  0.00  0.00    +0.000 A 
BRANCH  24  27
ATOM     27  O   UNL     1       7.411   3.673  11.329  0.00  0.00    +0.000 OA
ATOM     28  C   UNL     1       7.401   2.271  11.089  0.00  0.00    +0.000 C 
ENDBRANCH  24  27
ENDBRANCH  18  21
ENDBRANCH   5  15
BRANCH   1  29
ATOM     29  C   UNL     1       2.472   4.155  20.668  0.00  0.00    +0.000 C 
ATOM     30  O   UNL     1       3.561   3.592  20.645  0.00  0.00    +0.000 OA
BRANCH  29  31
ATOM     31  O   UNL     1       1.287   3.514  20.908  0.00  0.00    +0.000 OA
BRANCH  31  33
ATOM     32  C   UNL     1       0.686   2.511  18.845  0.00  0.00    +0.000 C 
ATOM     33  C   UNL     1       1.135   2.244  20.270  0.00  0.00    +0.000 C 
ENDBRANCH  31  33
ENDBRANCH  29  31
ENDBRANCH   1  29
TORSDOF 7
ENDMDL
MODEL 3
REMARK VINA RESULT:      -7.1      3.702      5.677
REMARK  Name = 
REMARK  9 active torsions:
REMARK  status: ('A' for Active; 'I' for Inactive)
REMARK    1  A    between atoms: C_1  and  C_2
REMARK    2  A    between atoms: C_2  and  O_3
REMARK    3  A    between atoms: O_3  and  C_4
REMARK    4  A    between atoms: C_4  and  C_6
REMARK    5  A    between atoms: C_8  and  C_9
REMARK    6  A    between atoms: C_18  and  N_19
REMARK    7  A    between atoms: N_22  and  C_23
REMARK    8  A    between atoms: C_26  and  O_27
REMARK    9  A    between atoms: O_27  and  C_28
REMARK                            x       y       z     vdW  Elec       q    Type
REMARK                         _______ _______ _______ _____ _____    ______ ____
ROOT
ATOM      1  C   UNL     1      -0.137  12.549  20.902  0.00  0.00    +0.000 A 
ATOM      2  C   UNL     1      -1.238  13.297  21.436  0.00  0.00    +0.000 A 
ATOM      3  C   UNL     1      -2.271  12.432  21.749  0.00  0.00    +0.000 A 
ATOM      4  N   UNL     1      -1.832  11.193  21.352  0.00  0.00    +0.000 N 
ATOM      5  C   UNL     1      -0.544  11.227  20.880  0.00  0.00    +0.000 A 
ATOM      6  H   UNL     1      -2.385  10.351  21.400  0.00  0.00    +0.000 HD
ENDROOT
BRANCH   3   7
ATOM      7  C   UNL     1      -3.595  12.681  22.342  0.00  0.00    +0.000 A 
ATOM      8  C   UNL     1      -3.707  12.645  23.743  0.00  0.00    +0.000 A 
ATOM      9  C   UNL     1      -4.931  12.862  24.381  0.00  0.00    +0.000 A 
ATOM     10  C   UNL     1      -6.070  13.121  23.621  0.00  0.00    +0.000 A 
ATOM     11 CL   UNL     1      -7.576  13.385  24.404  0.00  0.00    +0.000 Cl
ATOM     12  C   UNL     1      -5.990  13.163  22.235  0.00  0.00    +0.000 A 
ATOM     13  C   UNL     1      -4.764  12.943  21.595  0.00  0.00    +0.000 A 
ATOM     14 CL   UNL     1      -4.797  12.989  19.861  0.00  0.00    +0.000 Cl
ENDBRANCH   3   7
BRANCH   5  15
ATOM     15  N   UNL     1       0.007  10.066  20.447  0.00  0.00    +0.000 N 
ATOM     16  C   UNL     1       0.380   9.825  19.042  0.00  0.00    +0.000 C 
ATOM     17  C   UNL     1       1.810   9.246  18.970  0.00  0.00    +0.000 C 
ATOM     18  N   UNL     1       1.957   8.073  19.852  0.00  0.00    +0.000 N 
ATOM     19  C   UNL     1       1.513   8.285  21.247  0.00  0.00    +0.000 C 
ATOM     20  C   UNL     1       0.075   8.860  21.288  0.00  0.00    +0.000 C 
BRANCH  18  21
ATOM     21  C   UNL     1       2.352   6.831  19.405  0.00  0.00    +0.000 A 
ATOM     22  C   UNL     1       3.002   6.675  18.172  0.00  0.00    +0.000 A 
ATOM     23  C   UNL     1       3.405   5.421  17.702  0.00  0.00    +0.000 A 
ATOM     24  C   UNL     1       3.184   4.280  18.464  0.00  0.00    +0.000 A 
ATOM     25  C   UNL     1       2.531   4.401  19.686  0.00  0.00    +0.000 A 
ATOM     26  C   UNL     1       2.122   5.662  20.143  0.00  0.00    +0.000 A 
BRANCH  24  27
ATOM     27  O   UNL     1       3.608   3.108  17.902  0.00  0.00    +0.000 OA
ATOM     28  C   UNL     1       2.628   2.080  17.816  0.00  0.00    +0.000 C 
ENDBRANCH  24  27
ENDBRANCH  18  21
ENDBRANCH   5  15
BRANCH   1  29
ATOM     29  C   UNL     1       1.166  13.099  20.555  0.00  0.00    +0.000 C 
ATOM     30  O   UNL     1       2.047  13.380  21.359  0.00  0.00    +0.000 OA
BRANCH  29  31
ATOM     31  O   UNL     1       1.249  13.355  19.213  0.00  0.00    +0.000 OA
BRANCH  31  33
ATOM     32  C   UNL     1       3.161  14.276  18.155  0.00  0.00    +0.000 C 
ATOM     33  C   UNL     1       2.484  12.990  18.592  0.00  0.00    +0.000 C 
ENDBRANCH  31  33
ENDBRANCH  29  31
ENDBRANCH   1  29
TORSDOF 7
ENDMDL
MODEL 4
REMARK VINA RESULT:      -7.0      0.993      1.358
REMARK  Name = 
REMARK  9 active torsions:
REMARK  status: ('A' for Active; 'I' for Inactive)
REMARK    1  A    between atoms: C_1  and  C_2
REMARK    2  A    between atoms: C_2  and  O_3
REMARK    3  A    between atoms: O_3  and  C_4
REMARK    4  A    between atoms: C_4  and  C_6
REMARK    5  A    between atoms: C_8  and  C_9
REMARK    6  A    between atoms: C_18  and  N_19
REMARK    7  A    between atoms: N_22  and  C_23
REMARK    8  A    between atoms: C_26  and  O_27
REMARK    9  A    between atoms: O_27  and  C_28
REMARK                            x       y       z     vdW  Elec       q    Type
REMARK                         _______ _______ _______ _____ _____    ______ ____
ROOT
ATOM      1  C   UNL     1      -0.692  12.354  19.097  0.00  0.00    +0.000 A 
ATOM      2  C   UNL     1      -0.308  13.695  19.432  0.00  0.00    +0.000 A 
ATOM      3  C   UNL     1       1.014  13.703  19.839  0.00  0.00    +0.000 A 
ATOM      4  N   UNL     1       1.404  12.387  19.815  0.00  0.00    +0.000 N 
ATOM      5  C   UNL     1       0.417  11.563  19.336  0.00  0.00    +0.000 A 
ATOM      6  H   UNL     1       2.310  12.057  20.112  0.00  0.00    +0.000 HD
ENDROOT
BRANCH   3   7
ATOM      7  C   UNL     1       1.889  14.810  20.259  0.00  0.00    +0.000 A 
ATOM      8  C   UNL     1       1.772  15.278  21.581  0.00  0.00    +0.000 A 
ATOM      9  C   UNL     1       2.559  16.331  22.053  0.00  0.00    +0.000 A 
ATOM     10  C   UNL     1       3.484  16.936  21.204  0.00  0.00    +0.000 A 
ATOM     11 CL   UNL     1       4.451  18.233  21.782  0.00  0.00    +0.000 Cl
ATOM     12  C   UNL     1       3.623  16.496  19.894  0.00  0.00    +0.000 A 
ATOM     13  C   UNL     1       2.832  15.442  19.419  0.00  0.00    +0.000 A 
ATOM     14 CL   UNL     1       3.073  15.004  17.758  0.00  0.00    +0.000 Cl
ENDBRANCH   3   7
BRANCH   5  15
ATOM     15  N   UNL     1       0.673  10.234  19.269  0.00  0.00    +0.000 N 
ATOM     16  C   UNL     1       1.078   9.552  18.027  0.00  0.00    +0.000 C 
ATOM     17  C   UNL     1       2.305   8.654  18.297  0.00  0.00    +0.000 C 
ATOM     18  N   UNL     1       2.067   7.752  19.440  0.00  0.00    +0.000 N 
ATOM     19  C   UNL     1       1.586   8.421  20.669  0.00  0.00    +0.000 C 
ATOM     20  C   UNL     1       0.354   9.309  20.370  0.00  0.00    +0.000 C 
BRANCH  18  21
ATOM     21  C   UNL     1       2.153   6.380  19.356  0.00  0.00    +0.000 A 
ATOM     22  C   UNL     1       1.864   5.564  20.460  0.00  0.00    +0.000 A 
ATOM     23  C   UNL     1       1.951   4.170  20.392  0.00  0.00    +0.000 A 
ATOM     24  C   UNL     1       2.313   3.544  19.205  0.00  0.00    +0.000 A 
ATOM     25  C   UNL     1       2.616   4.326  18.096  0.00  0.00    +0.000 A 
ATOM     26  C   UNL     1       2.536   5.725  18.177  0.00  0.00    +0.000 A 
BRANCH  24  27
ATOM     27  O   UNL     1       2.377   2.180  19.257  0.00  0.00    +0.000 OA
ATOM     28  C   UNL     1       3.394   1.584  18.461  0.00  0.00    +0.000 C 
ENDBRANCH  24  27
ENDBRANCH  18  21
ENDBRANCH   5  15
BRANCH   1  29
ATOM     29  C   UNL     1      -1.975  11.962  18.530  0.00  0.00    +0.000 C 
ATOM     30  O   UNL     1      -3.003  11.783  19.175  0.00  0.00    +0.000 OA
BRANCH  29  31
ATOM     31  O   UNL     1      -1.866  11.722  17.188  0.00  0.00    +0.000 OA
BRANCH  31  33
ATOM     32  C   UNL     1      -2.641   9.791  16.049  0.00  0.00    +0.000 C 
ATOM     33  C   UNL     1      -3.027  11.166  16.565  0.00  0.00    +0.000 C 
ENDBRANCH  31  33
ENDBRANCH  29  31
ENDBRANCH   1  29
TORSDOF 7
ENDMDL
MODEL 5
REMARK VINA RESULT:      -7.0      0.999      1.367
REMARK  Name = 
REMARK  9 active torsions:
REMARK  status: ('A' for Active; 'I' for Inactive)
REMARK    1  A    between atoms: C_1  and  C_2
REMARK    2  A    between atoms: C_2  and  O_3
REMARK    3  A    between atoms: O_3  and  C_4
REMARK    4  A    between atoms: C_4  and  C_6
REMARK    5  A    between atoms: C_8  and  C_9
REMARK    6  A    between atoms: C_18  and  N_19
REMARK    7  A    between atoms: N_22  and  C_23
REMARK    8  A    between atoms: C_26  and  O_27
REMARK    9  A    between atoms: O_27  and  C_28
REMARK                            x       y       z     vdW  Elec       q    Type
REMARK                         _______ _______ _______ _____ _____    ______ ____
ROOT
ATOM      1  C   UNL     1      -0.740  12.231  18.658  0.00  0.00    +0.000 A 
ATOM      2  C   UNL     1      -0.373  13.601  18.876  0.00  0.00    +0.000 A 
ATOM      3  C   UNL     1       0.951  13.663  19.273  0.00  0.00    +0.000 A 
ATOM      4  N   UNL     1       1.359  12.355  19.361  0.00  0.00    +0.000 N 
ATOM      5  C   UNL     1       0.382  11.480  18.960  0.00  0.00    +0.000 A 
ATOM      6  H   UNL     1       2.270  12.064  19.681  0.00  0.00    +0.000 HD
ENDROOT
BRANCH   3   7
ATOM      7  C   UNL     1       1.811  14.814  19.593  0.00  0.00    +0.000 A 
ATOM      8  C   UNL     1       2.986  14.574  20.328  0.00  0.00    +0.000 A 
ATOM      9  C   UNL     1       3.850  15.614  20.679  0.00  0.00    +0.000 A 
ATOM     10  C   UNL     1       3.550  16.920  20.296  0.00  0.00    +0.000 A 
ATOM     11 CL   UNL     1       4.610  18.201  20.729  0.00  0.00    +0.000 Cl
ATOM     12  C   UNL     1       2.397  17.188  19.569  0.00  0.00    +0.000 A 
ATOM     13  C   UNL     1       1.530  16.146  19.218  0.00  0.00    +0.000 A 
ATOM     14 CL   UNL     1       0.108  16.608  18.338  0.00  0.00    +0.000 Cl
ENDBRANCH   3   7
BRANCH   5  15
ATOM     15  N   UNL     1       0.657  10.153  19.006  0.00  0.00    +0.000 N 
ATOM     16  C   UNL     1       1.085   9.376  17.829  0.00  0.00    +0.000 C 
ATOM     17  C   UNL     1       2.320   8.521  18.185  0.00  0.00    +0.000 C 
ATOM     18  N   UNL     1       2.082   7.714  19.396  0.00  0.00    +0.000 N 
ATOM     19  C   UNL     1       1.578   8.475  20.560  0.00  0.00    +0.000 C 
ATOM     20  C   UNL     1       0.337   9.318  20.176  0.00  0.00    +0.000 C 
BRANCH  18  21
ATOM     21  C   UNL     1       2.187   6.341  19.427  0.00  0.00    +0.000 A 
ATOM     22  C   UNL     1       2.574   5.616  18.291  0.00  0.00    +0.000 A 
ATOM     23  C   UNL     1       2.680   4.221  18.305  0.00  0.00    +0.000 A 
ATOM     24  C   UNL     1       2.420   3.507  19.469  0.00  0.00    +0.000 A 
ATOM     25  C   UNL     1       2.023   4.197  20.608  0.00  0.00    +0.000 A 
ATOM     26  C   UNL     1       1.909   5.595  20.581  0.00  0.00    +0.000 A 
BRANCH  24  27
ATOM     27  O   UNL     1       2.544   2.149  19.363  0.00  0.00    +0.000 OA
ATOM     28  C   UNL     1       3.372   1.691  18.301  0.00  0.00    +0.000 C 
ENDBRANCH  24  27
ENDBRANCH  18  21
ENDBRANCH   5  15
BRANCH   1  29
ATOM     29  C   UNL     1      -2.019  11.775  18.134  0.00  0.00    +0.000 C 
ATOM     30  O   UNL     1      -3.010  11.530  18.813  0.00  0.00    +0.000 OA
BRANCH  29  31
ATOM     31  O   UNL     1      -1.946  11.557  16.785  0.00  0.00    +0.000 OA
BRANCH  31  33
ATOM     32  C   UNL     1      -2.942   9.744  15.625  0.00  0.00    +0.000 C 
ATOM     33  C   UNL     1      -3.166  11.146  16.162  0.00  0.00    +0.000 C 
ENDBRANCH  31  33
ENDBRANCH  29  31
ENDBRANCH   1  29
TORSDOF 7
ENDMDL
MODEL 6
REMARK VINA RESULT:      -7.0      4.344      9.326
REMARK  Name = 
REMARK  9 active torsions:
REMARK  status: ('A' for Active; 'I' for Inactive)
REMARK    1  A    between atoms: C_1  and  C_2
REMARK    2  A    between atoms: C_2  and  O_3
REMARK    3  A    between atoms: O_3  and  C_4
REMARK    4  A    between atoms: C_4  and  C_6
REMARK    5  A    between atoms: C_8  and  C_9
REMARK    6  A    between atoms: C_18  and  N_19
REMARK    7  A    between atoms: N_22  and  C_23
REMARK    8  A    between atoms: C_26  and  O_27
REMARK    9  A    between atoms: O_27  and  C_28
REMARK                            x       y       z     vdW  Elec       q    Type
REMARK                         _______ _______ _______ _____ _____    ______ ____
ROOT
ATOM      1  C   UNL     1       2.648   5.302  19.508  0.00  0.00    +0.000 A 
ATOM      2  C   UNL     1       3.502   4.628  18.573  0.00  0.00    +0.000 A 
ATOM      3  C   UNL     1       4.067   5.556  17.718  0.00  0.00    +0.000 A 
ATOM      4  N   UNL     1       3.517   6.760  18.083  0.00  0.00    +0.000 N 
ATOM      5  C   UNL     1       2.696   6.644  19.176  0.00  0.00    +0.000 A 
ATOM      6  H   UNL     1       3.691   7.632  17.608  0.00  0.00    +0.000 HD
ENDROOT
BRANCH   3   7
ATOM      7  C   UNL     1       5.024   5.394  16.611  0.00  0.00    +0.000 A 
ATOM      8  C   UNL     1       4.626   4.623  15.504  0.00  0.00    +0.000 A 
ATOM      9  C   UNL     1       5.479   4.414  14.418  0.00  0.00    +0.000 A 
ATOM     10  C   UNL     1       6.754   4.978  14.423  0.00  0.00    +0.000 A 
ATOM     11 CL   UNL     1       7.805   4.720  13.089  0.00  0.00    +0.000 Cl
ATOM     12  C   UNL     1       7.175   5.745  15.502  0.00  0.00    +0.000 A 
ATOM     13  C   UNL     1       6.321   5.953  16.591  0.00  0.00    +0.000 A 
ATOM     14 CL   UNL     1       6.970   6.900  17.892  0.00  0.00    +0.000 Cl
ENDBRANCH   3   7
BRANCH   5  15
ATOM     15  N   UNL     1       2.082   7.763  19.634  0.00  0.00    +0.000 N 
ATOM     16  C   UNL     1       1.911   8.980  18.821  0.00  0.00    +0.000 C 
ATOM     17  C   UNL     1       0.451   9.472  18.913  0.00  0.00    +0.000 C 
ATOM     18  N   UNL     1       0.021   9.610  20.318  0.00  0.00    +0.000 N 
ATOM     19  C   UNL     1       0.260   8.418  21.160  0.00  0.00    +0.000 C 
ATOM     20  C   UNL     1       1.732   7.950  21.052  0.00  0.00    +0.000 C 
BRANCH  18  21
ATOM     21  C   UNL     1      -0.448  10.788  20.856  0.00  0.00    +0.000 A 
ATOM     22  C   UNL     1      -0.749  11.890  20.043  0.00  0.00    +0.000 A 
ATOM     23  C   UNL     1      -1.221  13.095  20.576  0.00  0.00    +0.000 A 
ATOM     24  C   UNL     1      -1.425  13.227  21.944  0.00  0.00    +0.000 A 
ATOM     25  C   UNL     1      -1.125  12.156  22.777  0.00  0.00    +0.000 A 
ATOM     26  C   UNL     1      -0.642  10.956  22.235  0.00  0.00    +0.000 A 
BRANCH  24  27
ATOM     27  O   UNL     1      -1.877  14.451  22.353  0.00  0.00    +0.000 OA
ATOM     28  C   UNL     1      -3.212  14.768  21.978  0.00  0.00    +0.000 C 
ENDBRANCH  24  27
ENDBRANCH  18  21
ENDBRANCH   5  15
BRANCH   1  29
ATOM     29  C   UNL     1       1.961   4.672  20.627  0.00  0.00    +0.000 C 
ATOM     30  O   UNL     1       2.400   4.598  21.770  0.00  0.00    +0.000 OA
BRANCH  29  31
ATOM     31  O   UNL     1       0.796   4.083  20.219  0.00  0.00    +0.000 OA
BRANCH  31  33
ATOM     32  C   UNL     1       0.727   2.269  18.691  0.00  0.00    +0.000 C 
ATOM     33  C   UNL     1       0.818   2.654  20.156  0.00  0.00    +0.000 C 
ENDBRANCH  31  33
ENDBRANCH  29  31
ENDBRANCH   1  29
TORSDOF 7
ENDMDL
MODEL 7
REMARK VINA RESULT:      -6.9      3.800      6.483
REMARK  Name = 
REMARK  9 active torsions:
REMARK  status: ('A' for Active; 'I' for Inactive)
REMARK    1  A    between atoms: C_1  and  C_2
REMARK    2  A    between atoms: C_2  and  O_3
REMARK    3  A    between atoms: O_3  and  C_4
REMARK    4  A    between atoms: C_4  and  C_6
REMARK    5  A    between atoms: C_8  and  C_9
REMARK    6  A    between atoms: C_18  and  N_19
REMARK    7  A    between atoms: N_22  and  C_23
REMARK    8  A    between atoms: C_26  and  O_27
REMARK    9  A    between atoms: O_27  and  C_28
REMARK                            x       y       z     vdW  Elec       q    Type
REMARK                         _______ _______ _______ _____ _____    ______ ____
ROOT
ATOM      1  C   UNL     1       1.743   6.380  20.464  0.00  0.00    +0.000 A 
ATOM      2  C   UNL     1       1.114   7.432  21.210  0.00  0.00    +0.000 A 
ATOM      3  C   UNL     1       1.169   8.606  20.481  0.00  0.00    +0.000 A 
ATOM      4  N   UNL     1       1.875   8.290  19.346  0.00  0.00    +0.000 N 
ATOM      5  C   UNL     1       2.194   6.957  19.291  0.00  0.00    +0.000 A 
ATOM      6  H   UNL     1       2.130   8.954  18.632  0.00  0.00    +0.000 HD
ENDROOT
BRANCH   3   7
ATOM      7  C   UNL     1       0.654   9.953  20.777  0.00  0.00    +0.000 A 
ATOM      8  C   UNL     1       0.709  10.919  19.756  0.00  0.00    +0.000 A 
ATOM      9  C   UNL     1       0.249  12.222  19.962  0.00  0.00    +0.000 A 
ATOM     10  C   UNL     1      -0.277  12.581  21.201  0.00  0.00    +0.000 A 
ATOM     11 CL   UNL     1      -0.841  14.184  21.456  0.00  0.00    +0.000 Cl
ATOM     12  C   UNL     1      -0.346  11.649  22.228  0.00  0.00    +0.000 A 
ATOM     13  C   UNL     1       0.117  10.343  22.024  0.00  0.00    +0.000 A 
ATOM     14 CL   UNL     1       0.009   9.280  23.390  0.00  0.00    +0.000 Cl
ENDBRANCH   3   7
BRANCH   5  15
ATOM     15  N   UNL     1       2.900   6.515  18.220  0.00  0.00    +0.000 N 
ATOM     16  C   UNL     1       3.787   7.383  17.425  0.00  0.00    +0.000 C 
ATOM     17  C   UNL     1       5.151   6.690  17.218  0.00  0.00    +0.000 C 
ATOM     18  N   UNL     1       4.983   5.328  16.678  0.00  0.00    +0.000 N 
ATOM     19  C   UNL     1       4.035   4.475  17.427  0.00  0.00    +0.000 C 
ATOM     20  C   UNL     1       2.675   5.192  17.615  0.00  0.00    +0.000 C 
BRANCH  18  21
ATOM     21  C   UNL     1       5.552   4.903  15.497  0.00  0.00    +0.000 A 
ATOM     22  C   UNL     1       6.863   5.263  15.151  0.00  0.00    +0.000 A 
ATOM     23  C   UNL     1       7.452   4.844  13.954  0.00  0.00    +0.000 A 
ATOM     24  C   UNL     1       6.752   4.031  13.070  0.00  0.00    +0.000 A 
ATOM     25  C   UNL     1       5.446   3.667  13.380  0.00  0.00    +0.000 A 
ATOM     26  C   UNL     1       4.860   4.102  14.579  0.00  0.00    +0.000 A 
BRANCH  24  27
ATOM     27  O   UNL     1       7.421   3.693  11.928  0.00  0.00    +0.000 OA
ATOM     28  C   UNL     1       7.068   2.438  11.360  0.00  0.00    +0.000 C 
ENDBRANCH  24  27
ENDBRANCH  18  21
ENDBRANCH   5  15
BRANCH   1  29
ATOM     29  C   UNL     1       1.789   4.979  20.858  0.00  0.00    +0.000 C 
ATOM     30  O   UNL     1       2.579   4.503  21.666  0.00  0.00    +0.000 OA
BRANCH  29  31
ATOM     31  O   UNL     1       0.897   4.236  20.136  0.00  0.00    +0.000 OA
BRANCH  31  33
ATOM     32  C   UNL     1       0.702   2.270  18.823  0.00  0.00    +0.000 C 
ATOM     33  C   UNL     1       1.095   2.821  20.182  0.00  0.00    +0.000 C 
ENDBRANCH  31  33
ENDBRANCH  29  31
ENDBRANCH   1  29
TORSDOF 7
ENDMDL
MODEL 8
REMARK VINA RESULT:      -6.9      1.459      1.975
REMARK  Name = 
REMARK  9 active torsions:
REMARK  status: ('A' for Active; 'I' for Inactive)
REMARK    1  A    between atoms: C_1  and  C_2
REMARK    2  A    between atoms: C_2  and  O_3
REMARK    3  A    between atoms: O_3  and  C_4
REMARK    4  A    between atoms: C_4  and  C_6
REMARK    5  A    between atoms: C_8  and  C_9
REMARK    6  A    between atoms: C_18  and  N_19
REMARK    7  A    between atoms: N_22  and  C_23
REMARK    8  A    between atoms: C_26  and  O_27
REMARK    9  A    between atoms: O_27  and  C_28
REMARK                            x       y       z     vdW  Elec       q    Type
REMARK                         _______ _______ _______ _____ _____    ______ ____
ROOT
ATOM      1  C   UNL     1      -0.979  11.991  18.474  0.00  0.00    +0.000 A 
ATOM      2  C   UNL     1      -0.773  13.387  18.733  0.00  0.00    +0.000 A 
ATOM      3  C   UNL     1       0.467  13.566  19.320  0.00  0.00    +0.000 A 
ATOM      4  N   UNL     1       0.975  12.300  19.475  0.00  0.00    +0.000 N 
ATOM      5  C   UNL     1       0.150  11.342  18.941  0.00  0.00    +0.000 A 
ATOM      6  H   UNL     1       1.851  12.090  19.927  0.00  0.00    +0.000 HD
ENDROOT
BRANCH   3   7
ATOM      7  C   UNL     1       1.164  14.788  19.754  0.00  0.00    +0.000 A 
ATOM      8  C   UNL     1       0.630  15.500  20.842  0.00  0.00    +0.000 A 
ATOM      9  C   UNL     1       1.227  16.674  21.308  0.00  0.00    +0.000 A 
ATOM     10  C   UNL     1       2.377  17.157  20.686  0.00  0.00    +0.000 A 
ATOM     11 CL   UNL     1       3.112  18.602  21.256  0.00  0.00    +0.000 Cl
ATOM     12  C   UNL     1       2.929  16.475  19.609  0.00  0.00    +0.000 A 
ATOM     13  C   UNL     1       2.329  15.299  19.141  0.00  0.00    +0.000 A 
ATOM     14 CL   UNL     1       3.090  14.556  17.771  0.00  0.00    +0.000 Cl
ENDBRANCH   3   7
BRANCH   5  15
ATOM     15  N   UNL     1       0.534  10.045  19.037  0.00  0.00    +0.000 N 
ATOM     16  C   UNL     1       1.054   9.272  17.895  0.00  0.00    +0.000 C 
ATOM     17  C   UNL     1       2.347   8.536  18.305  0.00  0.00    +0.000 C 
ATOM     18  N   UNL     1       2.148   7.749  19.536  0.00  0.00    +0.000 N 
ATOM     19  C   UNL     1       1.555   8.500  20.664  0.00  0.00    +0.000 C 
ATOM     20  C   UNL     1       0.257   9.223  20.226  0.00  0.00    +0.000 C 
BRANCH  18  21
ATOM     21  C   UNL     1       2.367   6.391  19.614  0.00  0.00    +0.000 A 
ATOM     22  C   UNL     1       3.190   5.733  18.688  0.00  0.00    +0.000 A 
ATOM     23  C   UNL     1       3.419   4.355  18.751  0.00  0.00    +0.000 A 
ATOM     24  C   UNL     1       2.842   3.591  19.759  0.00  0.00    +0.000 A 
ATOM     25  C   UNL     1       2.013   4.213  20.685  0.00  0.00    +0.000 A 
ATOM     26  C   UNL     1       1.781   5.594  20.607  0.00  0.00    +0.000 A 
BRANCH  24  27
ATOM     27  O   UNL     1       3.124   2.254  19.715  0.00  0.00    +0.000 OA
ATOM     28  C   UNL     1       3.380   1.724  18.420  0.00  0.00    +0.000 C 
ENDBRANCH  24  27
ENDBRANCH  18  21
ENDBRANCH   5  15
BRANCH   1  29
ATOM     29  C   UNL     1      -2.121  11.424  17.771  0.00  0.00    +0.000 C 
ATOM     30  O   UNL     1      -2.055  10.775  16.733  0.00  0.00    +0.000 OA
BRANCH  29  31
ATOM     31  O   UNL     1      -3.296  11.792  18.367  0.00  0.00    +0.000 OA
BRANCH  31  33
ATOM     32  C   UNL     1      -5.342  12.006  17.186  0.00  0.00    +0.000 C 
ATOM     33  C   UNL     1      -4.450  11.052  17.961  0.00  0.00    +0.000 C 
ENDBRANCH  31  33
ENDBRANCH  29  31
ENDBRANCH   1  29
TORSDOF 7
ENDMDL
MODEL 9
REMARK VINA RESULT:      -6.8      3.923      6.004
REMARK  Name = 
REMARK  9 active torsions:
REMARK  status: ('A' for Active; 'I' for Inactive)
REMARK    1  A    between atoms: C_1  and  C_2
REMARK    2  A    between atoms: C_2  and  O_3
REMARK    3  A    between atoms: O_3  and  C_4
REMARK    4  A    between atoms: C_4  and  C_6
REMARK    5  A    between atoms: C_8  and  C_9
REMARK    6  A    between atoms: C_18  and  N_19
REMARK    7  A    between atoms: N_22  and  C_23
REMARK    8  A    between atoms: C_26  and  O_27
REMARK    9  A    between atoms: O_27  and  C_28
REMARK                            x       y       z     vdW  Elec       q    Type
REMARK                         _______ _______ _______ _____ _____    ______ ____
ROOT
ATOM      1  C   UNL     1       0.115  13.402  21.385  0.00  0.00    +0.000 A 
ATOM      2  C   UNL     1      -1.133  13.922  21.866  0.00  0.00    +0.000 A 
ATOM      3  C   UNL     1      -2.049  12.891  21.969  0.00  0.00    +0.000 A 
ATOM      4  N   UNL     1      -1.393  11.781  21.496  0.00  0.00    +0.000 N 
ATOM      5  C   UNL     1      -0.085  12.049  21.179  0.00  0.00    +0.000 A 
ATOM      6  H   UNL     1      -1.815  10.871  21.393  0.00  0.00    +0.000 HD
ENDROOT
BRANCH   3   7
ATOM      7  C   UNL     1      -3.447  12.882  22.431  0.00  0.00    +0.000 A 
ATOM      8  C   UNL     1      -3.683  12.907  23.817  0.00  0.00    +0.000 A 
ATOM      9  C   UNL     1      -4.980  12.891  24.335  0.00  0.00    +0.000 A 
ATOM     10  C   UNL     1      -6.069  12.850  23.467  0.00  0.00    +0.000 A 
ATOM     11 CL   UNL     1      -7.666  12.827  24.102  0.00  0.00    +0.000 Cl
ATOM     12  C   UNL     1      -5.868  12.825  22.093  0.00  0.00    +0.000 A 
ATOM     13  C   UNL     1      -4.568  12.839  21.573  0.00  0.00    +0.000 A 
ATOM     14 CL   UNL     1      -4.443  12.773  19.844  0.00  0.00    +0.000 Cl
ENDBRANCH   3   7
BRANCH   5  15
ATOM     15  N   UNL     1       0.673  11.036  20.693  0.00  0.00    +0.000 N 
ATOM     16  C   UNL     1       1.201   9.947  21.534  0.00  0.00    +0.000 C 
ATOM     17  C   UNL     1       0.917   8.584  20.867  0.00  0.00    +0.000 C 
ATOM     18  N   UNL     1       1.391   8.561  19.471  0.00  0.00    +0.000 N 
ATOM     19  C   UNL     1       0.927   9.694  18.640  0.00  0.00    +0.000 C 
ATOM     20  C   UNL     1       1.230  11.047  19.330  0.00  0.00    +0.000 C 
BRANCH  18  21
ATOM     21  C   UNL     1       2.299   7.643  18.991  0.00  0.00    +0.000 A 
ATOM     22  C   UNL     1       3.088   7.921  17.866  0.00  0.00    +0.000 A 
ATOM     23  C   UNL     1       4.011   6.997  17.363  0.00  0.00    +0.000 A 
ATOM     24  C   UNL     1       4.185   5.767  17.986  0.00  0.00    +0.000 A 
ATOM     25  C   UNL     1       3.409   5.458  19.097  0.00  0.00    +0.000 A 
ATOM     26  C   UNL     1       2.479   6.387  19.587  0.00  0.00    +0.000 A 
BRANCH  24  27
ATOM     27  O   UNL     1       5.104   4.940  17.403  0.00  0.00    +0.000 OA
ATOM     28  C   UNL     1       4.660   3.611  17.154  0.00  0.00    +0.000 C 
ENDBRANCH  24  27
ENDBRANCH  18  21
ENDBRANCH   5  15
BRANCH   1  29
ATOM     29  C   UNL     1       1.348  14.164  21.247  0.00  0.00    +0.000 C 
ATOM     30  O   UNL     1       2.438  13.823  21.692  0.00  0.00    +0.000 OA
BRANCH  29  31
ATOM     31  O   UNL     1       1.116  15.366  20.636  0.00  0.00    +0.000 OA
BRANCH  31  33
ATOM     32  C   UNL     1       0.367  16.433  18.654  0.00  0.00    +0.000 C 
ATOM     33  C   UNL     1       1.308  15.384  19.219  0.00  0.00    +0.000 C 
ENDBRANCH  31  33
ENDBRANCH  29  31
ENDBRANCH   1  29
TORSDOF 7
ENDMDL
