MODEL 1
REMARK VINA RESULT:      -7.4      0.000      0.000
REMARK  Name = 
REMARK  4 active torsions:
REMARK  status: ('A' for Active; 'I' for Inactive)
REMARK    1  A    between atoms: C_1  and  O_2
REMARK    2  A    between atoms: O_2  and  C_3
REMARK    3  A    between atoms: C_6  and  C_7
REMARK    4  A    between atoms: C_14  and  N_15
REMARK                            x       y       z     vdW  Elec       q    Type
REMARK                         _______ _______ _______ _____ _____    ______ ____
ROOT
ATOM      1  C   UNL     1       1.940   8.252  18.770  0.00  0.00    +0.000 A 
ATOM      2  N   UNL     1       1.372   9.008  17.856  0.00  0.00    +0.000 NA
ATOM      3  N   UNL     1       0.477   9.893  18.403  0.00  0.00    +0.000 NA
ATOM      4  C   UNL     1       0.404   9.831  19.722  0.00  0.00    +0.000 A 
ATOM      5  N   UNL     1      -0.354  10.676  20.484  0.00  0.00    +0.000 N 
ATOM      6  C   UNL     1      -1.365  11.467  19.788  0.00  0.00    +0.000 C 
ATOM      7  C   UNL     1      -1.523  12.812  20.479  0.00  0.00    +0.000 C 
ATOM      8  C   UNL     1      -1.808  12.714  21.991  0.00  0.00    +0.000 C 
ATOM      9  C   UNL     1      -0.785  11.764  22.640  0.00  0.00    +0.000 C 
ATOM     10  C   UNL     1      -0.578  10.440  21.907  0.00  0.00    +0.000 C 
ATOM     11  S   UNL     1       1.419   8.588  20.363  0.00  0.00    +0.000 S 
ENDROOT
BRANCH   1  15
ATOM     12  C   UNL     1       4.942   5.286  18.069  0.00  0.00    +0.000 A 
ATOM     13  C   UNL     1       4.099   5.205  19.178  0.00  0.00    +0.000 A 
ATOM     14  C   UNL     1       3.113   6.170  19.388  0.00  0.00    +0.000 A 
ATOM     15  C   UNL     1       2.962   7.243  18.498  0.00  0.00    +0.000 A 
ATOM     16  C   UNL     1       3.824   7.323  17.394  0.00  0.00    +0.000 A 
ATOM     17  C   UNL     1       4.807   6.353  17.182  0.00  0.00    +0.000 A 
BRANCH  12  19
ATOM     18  C   UNL     1       7.218   4.738  17.761  0.00  0.00    +0.000 C 
ATOM     19  O   UNL     1       5.884   4.299  17.985  0.00  0.00    +0.000 OA
ENDBRANCH  12  19
ENDBRANCH   1  15
BRANCH   8  20
ATOM     20  N   UNL     1      -3.213  12.501  22.425  0.00  0.00    +0.000 NA
ATOM     21  C   UNL     1      -3.388  12.804  23.856  0.00  0.00    +0.000 C 
ATOM     22  C   UNL     1      -4.787  12.459  24.366  0.00  0.00    +0.000 C 
ATOM     23  C   UNL     1      -5.847  13.171  23.544  0.00  0.00    +0.000 C 
ATOM     24  C   UNL     1      -5.678  12.796  22.081  0.00  0.00    +0.000 C 
ATOM     25  C   UNL     1      -4.260  13.095  21.591  0.00  0.00    +0.000 C 
ENDBRANCH   8  20
TORSDOF 3
ENDMDL
MODEL 2
REMARK VINA RESULT:      -7.3      0.820      1.192
REMARK  Name = 
REMARK  4 active torsions:
REMARK  status: ('A' for Active; 'I' for Inactive)
REMARK    1  A    between atoms: C_1  and  O_2
REMARK    2  A    between atoms: O_2  and  C_3
REMARK    3  A    between atoms: C_6  and  C_7
REMARK    4  A    between atoms: C_14  and  N_15
REMARK                            x       y       z     vdW  Elec       q    Type
REMARK                         _______ _______ _______ _____ _____    ______ ____
ROOT
ATOM      1  C   UNL     1       2.172   8.092  18.346  0.00  0.00    +0.000 A 
ATOM      2  N   UNL     1       1.855   9.120  17.589  0.00  0.00    +0.000 NA
ATOM      3  N   UNL     1       1.041  10.010  18.245  0.00  0.00    +0.000 NA
ATOM      4  C   UNL     1       0.781   9.675  19.497  0.00  0.00    +0.000 A 
ATOM      5  N   UNL     1       0.067  10.454  20.363  0.00  0.00    +0.000 N 
ATOM      6  C   UNL     1      -0.709  11.548  19.783  0.00  0.00    +0.000 C 
ATOM      7  C   UNL     1      -0.750  12.714  20.757  0.00  0.00    +0.000 C 
ATOM      8  C   UNL     1      -1.247  12.340  22.167  0.00  0.00    +0.000 C 
ATOM      9  C   UNL     1      -0.480  11.102  22.665  0.00  0.00    +0.000 C 
ATOM     10  C   UNL     1      -0.381   9.957  21.660  0.00  0.00    +0.000 C 
ATOM     11  S   UNL     1       1.498   8.159  19.916  0.00  0.00    +0.000 S 
ENDROOT
BRANCH   1  15
ATOM     12  C   UNL     1       4.781   4.948  17.081  0.00  0.00    +0.000 A 
ATOM     13  C   UNL     1       5.112   6.286  16.862  0.00  0.00    +0.000 A 
ATOM     14  C   UNL     1       4.260   7.304  17.292  0.00  0.00    +0.000 A 
ATOM     15  C   UNL     1       3.053   7.000  17.940  0.00  0.00    +0.000 A 
ATOM     16  C   UNL     1       2.723   5.652  18.142  0.00  0.00    +0.000 A 
ATOM     17  C   UNL     1       3.580   4.633  17.715  0.00  0.00    +0.000 A 
BRANCH  12  19
ATOM     18  C   UNL     1       7.017   4.510  16.462  0.00  0.00    +0.000 C 
ATOM     19  O   UNL     1       5.681   4.042  16.590  0.00  0.00    +0.000 OA
ENDBRANCH  12  19
ENDBRANCH   1  15
BRANCH   8  20
ATOM     20  N   UNL     1      -2.714  12.294  22.402  0.00  0.00    +0.000 NA
ATOM     21  C   UNL     1      -3.057  12.727  23.767  0.00  0.00    +0.000 C 
ATOM     22  C   UNL     1      -4.542  12.555  24.086  0.00  0.00    +0.000 C 
ATOM     23  C   UNL     1      -5.396  13.294  23.071  0.00  0.00    +0.000 C 
ATOM     24  C   UNL     1      -5.062  12.788  21.677  0.00  0.00    +0.000 C 
ATOM     25  C   UNL     1      -3.567  12.913  21.384  0.00  0.00    +0.000 C 
ENDBRANCH   8  20
TORSDOF 3
ENDMDL
MODEL 3
REMARK VINA RESULT:      -7.3      2.408      3.914
REMARK  Name = 
REMARK  4 active torsions:
REMARK  status: ('A' for Active; 'I' for Inactive)
REMARK    1  A    between atoms: C_1  and  O_2
REMARK    2  A    between atoms: O_2  and  C_3
REMARK    3  A    between atoms: C_6  and  C_7
REMARK    4  A    between atoms: C_14  and  N_15
REMARK                            x       y       z     vdW  Elec       q    Type
REMARK                         _______ _______ _______ _____ _____    ______ ____
ROOT
ATOM      1  C   UNL     1       3.658   6.261  18.142  0.00  0.00    +0.000 A 
ATOM      2  N   UNL     1       3.435   5.807  19.356  0.00  0.00    +0.000 NA
ATOM      3  N   UNL     1       2.628   6.649  20.080  0.00  0.00    +0.000 NA
ATOM      4  C   UNL     1       2.213   7.705  19.403  0.00  0.00    +0.000 A 
ATOM      5  N   UNL     1       1.333   8.629  19.892  0.00  0.00    +0.000 N 
ATOM      6  C   UNL     1       1.094   8.616  21.334  0.00  0.00    +0.000 C 
ATOM      7  C   UNL     1      -0.341   9.027  21.615  0.00  0.00    +0.000 C 
ATOM      8  C   UNL     1      -0.748  10.369  20.976  0.00  0.00    +0.000 C 
ATOM      9  C   UNL     1      -0.352  10.366  19.489  0.00  0.00    +0.000 C 
ATOM     10  C   UNL     1       1.070   9.888  19.202  0.00  0.00    +0.000 C 
ATOM     11  S   UNL     1       2.880   7.747  17.808  0.00  0.00    +0.000 S 
ENDROOT
BRANCH   1  15
ATOM     12  C   UNL     1       5.942   4.299  15.104  0.00  0.00    +0.000 A 
ATOM     13  C   UNL     1       5.755   5.681  15.080  0.00  0.00    +0.000 A 
ATOM     14  C   UNL     1       5.020   6.313  16.084  0.00  0.00    +0.000 A 
ATOM     15  C   UNL     1       4.449   5.569  17.127  0.00  0.00    +0.000 A 
ATOM     16  C   UNL     1       4.630   4.178  17.134  0.00  0.00    +0.000 A 
ATOM     17  C   UNL     1       5.370   3.547  16.130  0.00  0.00    +0.000 A 
BRANCH  12  19
ATOM     18  C   UNL     1       5.924   3.599  12.849  0.00  0.00    +0.000 C 
ATOM     19  O   UNL     1       6.656   3.793  14.053  0.00  0.00    +0.000 OA
ENDBRANCH  12  19
ENDBRANCH   1  15
BRANCH   8  20
ATOM     20  N   UNL     1      -0.411  11.621  21.703  0.00  0.00    +0.000 NA
ATOM     21  C   UNL     1       0.236  12.603  20.817  0.00  0.00    +0.000 C 
ATOM     22  C   UNL     1       0.724  13.843  21.566  0.00  0.00    +0.000 C 
ATOM     23  C   UNL     1      -0.420  14.494  22.325  0.00  0.00    +0.000 C 
ATOM     24  C   UNL     1      -1.032  13.475  23.271  0.00  0.00    +0.000 C 
ATOM     25  C   UNL     1      -1.470  12.215  22.524  0.00  0.00    +0.000 C 
ENDBRANCH   8  20
TORSDOF 3
ENDMDL
MODEL 4
REMARK VINA RESULT:      -7.2      2.278      3.517
REMARK  Name = 
REMARK  4 active torsions:
REMARK  status: ('A' for Active; 'I' for Inactive)
REMARK    1  A    between atoms: C_1  and  O_2
REMARK    2  A    between atoms: O_2  and  C_3
REMARK    3  A    between atoms: C_6  and  C_7
REMARK    4  A    between atoms: C_14  and  N_15
REMARK                            x       y       z     vdW  Elec       q    Type
REMARK                         _______ _______ _______ _____ _____    ______ ____
ROOT
ATOM      1  C   UNL     1       3.323   6.618  18.310  0.00  0.00    +0.000 A 
ATOM      2  N   UNL     1       3.056   6.159  19.513  0.00  0.00    +0.000 NA
ATOM      3  N   UNL     1       2.280   7.032  20.236  0.00  0.00    +0.000 NA
ATOM      4  C   UNL     1       1.933   8.118  19.568  0.00  0.00    +0.000 A 
ATOM      5  N   UNL     1       1.094   9.080  20.056  0.00  0.00    +0.000 N 
ATOM      6  C   UNL     1       0.829   9.058  21.493  0.00  0.00    +0.000 C 
ATOM      7  C   UNL     1      -0.588   9.540  21.756  0.00  0.00    +0.000 C 
ATOM      8  C   UNL     1      -0.913  10.911  21.131  0.00  0.00    +0.000 C 
ATOM      9  C   UNL     1      -0.491  10.908  19.650  0.00  0.00    +0.000 C 
ATOM     10  C   UNL     1       0.909  10.360  19.381  0.00  0.00    +0.000 C 
ATOM     11  S   UNL     1       2.630   8.148  17.986  0.00  0.00    +0.000 S 
ENDROOT
BRANCH   1  15
ATOM     12  C   UNL     1       5.600   4.446  15.412  0.00  0.00    +0.000 A 
ATOM     13  C   UNL     1       4.870   3.780  16.397  0.00  0.00    +0.000 A 
ATOM     14  C   UNL     1       4.119   4.498  17.328  0.00  0.00    +0.000 A 
ATOM     15  C   UNL     1       4.095   5.900  17.298  0.00  0.00    +0.000 A 
ATOM     16  C   UNL     1       4.844   6.561  16.314  0.00  0.00    +0.000 A 
ATOM     17  C   UNL     1       5.592   5.840  15.379  0.00  0.00    +0.000 A 
BRANCH  12  19
ATOM     18  C   UNL     1       5.990   3.735  13.195  0.00  0.00    +0.000 C 
ATOM     19  O   UNL     1       6.317   3.636  14.576  0.00  0.00    +0.000 OA
ENDBRANCH  12  19
ENDBRANCH   1  15
BRANCH   8  20
ATOM     20  N   UNL     1      -0.525  12.133  21.882  0.00  0.00    +0.000 NA
ATOM     21  C   UNL     1       0.107  13.130  21.002  0.00  0.00    +0.000 C 
ATOM     22  C   UNL     1       0.647  14.338  21.770  0.00  0.00    +0.000 C 
ATOM     23  C   UNL     1      -0.454  14.984  22.592  0.00  0.00    +0.000 C 
ATOM     24  C   UNL     1      -1.049  13.947  23.530  0.00  0.00    +0.000 C 
ATOM     25  C   UNL     1      -1.539  12.719  22.762  0.00  0.00    +0.000 C 
ENDBRANCH   8  20
TORSDOF 3
ENDMDL
MODEL 5
REMARK VINA RESULT:      -7.1      2.390      3.631
REMARK  Name = 
REMARK  4 active torsions:
REMARK  status: ('A' for Active; 'I' for Inactive)
REMARK    1  A    between atoms: C_1  and  O_2
REMARK    2  A    between atoms: O_2  and  C_3
REMARK    3  A    between atoms: C_6  and  C_7
REMARK    4  A    between atoms: C_14  and  N_15
REMARK                            x       y       z     vdW  Elec       q    Type
REMARK                         _______ _______ _______ _____ _____    ______ ____
ROOT
ATOM      1  C   UNL     1       3.231   6.703  18.335  0.00  0.00    +0.000 A 
ATOM      2  N   UNL     1       2.866   6.396  19.560  0.00  0.00    +0.000 NA
ATOM      3  N   UNL     1       2.100   7.382  20.131  0.00  0.00    +0.000 NA
ATOM      4  C   UNL     1       1.856   8.402  19.327  0.00  0.00    +0.000 A 
ATOM      5  N   UNL     1       1.046   9.454  19.651  0.00  0.00    +0.000 N 
ATOM      6  C   UNL     1       0.694   9.607  21.061  0.00  0.00    +0.000 C 
ATOM      7  C   UNL     1      -0.707  10.186  21.176  0.00  0.00    +0.000 C 
ATOM      8  C   UNL     1      -0.914  11.493  20.385  0.00  0.00    +0.000 C 
ATOM      9  C   UNL     1      -0.405  11.302  18.945  0.00  0.00    +0.000 C 
ATOM     10  C   UNL     1       0.975  10.658  18.829  0.00  0.00    +0.000 C 
ATOM     11  S   UNL     1       2.647   8.219  17.801  0.00  0.00    +0.000 S 
ENDROOT
BRANCH   1  15
ATOM     12  C   UNL     1       5.533   4.237  15.704  0.00  0.00    +0.000 A 
ATOM     13  C   UNL     1       5.617   5.627  15.639  0.00  0.00    +0.000 A 
ATOM     14  C   UNL     1       4.872   6.422  16.513  0.00  0.00    +0.000 A 
ATOM     15  C   UNL     1       4.020   5.838  17.460  0.00  0.00    +0.000 A 
ATOM     16  C   UNL     1       3.931   4.439  17.508  0.00  0.00    +0.000 A 
ATOM     17  C   UNL     1       4.681   3.644  16.636  0.00  0.00    +0.000 A 
BRANCH  12  19
ATOM     18  C   UNL     1       6.032   3.898  13.422  0.00  0.00    +0.000 C 
ATOM     19  O   UNL     1       6.287   3.567  14.781  0.00  0.00    +0.000 OA
ENDBRANCH  12  19
ENDBRANCH   1  15
BRANCH   8  20
ATOM     20  N   UNL     1      -0.502  12.770  21.023  0.00  0.00    +0.000 NA
ATOM     21  C   UNL     1      -0.525  13.886  20.063  0.00  0.00    +0.000 C 
ATOM     22  C   UNL     1       0.030  15.183  20.651  0.00  0.00    +0.000 C 
ATOM     23  C   UNL     1      -0.722  15.562  21.915  0.00  0.00    +0.000 C 
ATOM     24  C   UNL     1      -0.635  14.416  22.909  0.00  0.00    +0.000 C 
ATOM     25  C   UNL     1      -1.142  13.109  22.296  0.00  0.00    +0.000 C 
ENDBRANCH   8  20
TORSDOF 3
ENDMDL
MODEL 6
REMARK VINA RESULT:      -7.0      2.421      3.229
REMARK  Name = 
REMARK  4 active torsions:
REMARK  status: ('A' for Active; 'I' for Inactive)
REMARK    1  A    between atoms: C_1  and  O_2
REMARK    2  A    between atoms: O_2  and  C_3
REMARK    3  A    between atoms: C_6  and  C_7
REMARK    4  A    between atoms: C_14  and  N_15
REMARK                            x       y       z     vdW  Elec       q    Type
REMARK                         _______ _______ _______ _____ _____    ______ ____
ROOT
ATOM      1  C   UNL     1       2.911   7.177  18.445  0.00  0.00    +0.000 A 
ATOM      2  N   UNL     1       2.583   6.914  19.691  0.00  0.00    +0.000 NA
ATOM      3  N   UNL     1       1.821   7.912  20.244  0.00  0.00    +0.000 NA
ATOM      4  C   UNL     1       1.543   8.898  19.409  0.00  0.00    +0.000 A 
ATOM      5  N   UNL     1       0.729   9.952  19.715  0.00  0.00    +0.000 N 
ATOM      6  C   UNL     1       0.414  10.156  21.127  0.00  0.00    +0.000 C 
ATOM      7  C   UNL     1      -0.989  10.724  21.259  0.00  0.00    +0.000 C 
ATOM      8  C   UNL     1      -1.234  11.996  20.425  0.00  0.00    +0.000 C 
ATOM      9  C   UNL     1      -0.762  11.756  18.979  0.00  0.00    +0.000 C 
ATOM     10  C   UNL     1       0.622  11.123  18.850  0.00  0.00    +0.000 C 
ATOM     11  S   UNL     1       2.294   8.665  17.869  0.00  0.00    +0.000 S 
ENDROOT
BRANCH   1  15
ATOM     12  C   UNL     1       5.173   4.504  15.988  0.00  0.00    +0.000 A 
ATOM     13  C   UNL     1       4.191   4.023  16.855  0.00  0.00    +0.000 A 
ATOM     14  C   UNL     1       3.449   4.906  17.641  0.00  0.00    +0.000 A 
ATOM     15  C   UNL     1       3.685   6.287  17.582  0.00  0.00    +0.000 A 
ATOM     16  C   UNL     1       4.685   6.759  16.718  0.00  0.00    +0.000 A 
ATOM     17  C   UNL     1       5.424   5.874  15.928  0.00  0.00    +0.000 A 
BRANCH  12  19
ATOM     18  C   UNL     1       6.253   3.903  13.976  0.00  0.00    +0.000 C 
ATOM     19  O   UNL     1       5.851   3.542  15.291  0.00  0.00    +0.000 OA
ENDBRANCH  12  19
ENDBRANCH   1  15
BRANCH   8  20
ATOM     20  N   UNL     1      -0.820  13.302  21.002  0.00  0.00    +0.000 NA
ATOM     21  C   UNL     1      -1.458  14.429  20.301  0.00  0.00    +0.000 C 
ATOM     22  C   UNL     1      -0.943  15.788  20.776  0.00  0.00    +0.000 C 
ATOM     23  C   UNL     1      -1.123  15.932  22.278  0.00  0.00    +0.000 C 
ATOM     24  C   UNL     1      -0.408  14.788  22.977  0.00  0.00    +0.000 C 
ATOM     25  C   UNL     1      -0.890  13.432  22.459  0.00  0.00    +0.000 C 
ENDBRANCH   8  20
TORSDOF 3
ENDMDL
MODEL 7
REMARK VINA RESULT:      -6.9      2.513      3.590
REMARK  Name = 
REMARK  4 active torsions:
REMARK  status: ('A' for Active; 'I' for Inactive)
REMARK    1  A    between atoms: C_1  and  O_2
REMARK    2  A    between atoms: O_2  and  C_3
REMARK    3  A    between atoms: C_6  and  C_7
REMARK    4  A    between atoms: C_14  and  N_15
REMARK                            x       y       z     vdW  Elec       q    Type
REMARK                         _______ _______ _______ _____ _____    ______ ____
ROOT
ATOM      1  C   UNL     1       2.948   7.013  18.482  0.00  0.00    +0.000 A 
ATOM      2  N   UNL     1       2.593   6.813  19.733  0.00  0.00    +0.000 NA
ATOM      3  N   UNL     1       1.839   7.848  20.226  0.00  0.00    +0.000 NA
ATOM      4  C   UNL     1       1.594   8.800  19.342  0.00  0.00    +0.000 A 
ATOM      5  N   UNL     1       0.794   9.881  19.585  0.00  0.00    +0.000 N 
ATOM      6  C   UNL     1       0.457  10.154  20.980  0.00  0.00    +0.000 C 
ATOM      7  C   UNL     1      -0.938  10.751  21.059  0.00  0.00    +0.000 C 
ATOM      8  C   UNL     1      -1.145  11.988  20.164  0.00  0.00    +0.000 C 
ATOM      9  C   UNL     1      -0.652  11.674  18.740  0.00  0.00    +0.000 C 
ATOM     10  C   UNL     1       0.723  11.012  18.666  0.00  0.00    +0.000 C 
ATOM     11  S   UNL     1       2.368   8.483  17.829  0.00  0.00    +0.000 S 
ENDROOT
BRANCH   1  15
ATOM     12  C   UNL     1       5.222   4.326  16.053  0.00  0.00    +0.000 A 
ATOM     13  C   UNL     1       5.479   5.697  16.039  0.00  0.00    +0.000 A 
ATOM     14  C   UNL     1       4.740   6.563  16.847  0.00  0.00    +0.000 A 
ATOM     15  C   UNL     1       3.721   6.072  17.676  0.00  0.00    +0.000 A 
ATOM     16  C   UNL     1       3.461   4.693  17.671  0.00  0.00    +0.000 A 
ATOM     17  C   UNL     1       4.204   3.827  16.865  0.00  0.00    +0.000 A 
BRANCH  12  19
ATOM     18  C   UNL     1       5.945   3.973  13.833  0.00  0.00    +0.000 C 
ATOM     19  O   UNL     1       5.991   3.584  15.200  0.00  0.00    +0.000 OA
ENDBRANCH  12  19
ENDBRANCH   1  15
BRANCH   8  20
ATOM     20  N   UNL     1      -0.718  13.311  20.689  0.00  0.00    +0.000 NA
ATOM     21  C   UNL     1      -0.682  13.322  22.161  0.00  0.00    +0.000 C 
ATOM     22  C   UNL     1      -0.385  14.708  22.734  0.00  0.00    +0.000 C 
ATOM     23  C   UNL     1       0.917  15.251  22.172  0.00  0.00    +0.000 C 
ATOM     24  C   UNL     1       0.830  15.282  20.655  0.00  0.00    +0.000 C 
ATOM     25  C   UNL     1       0.481  13.904  20.091  0.00  0.00    +0.000 C 
ENDBRANCH   8  20
TORSDOF 3
ENDMDL
MODEL 8
REMARK VINA RESULT:      -6.9      2.433      3.534
REMARK  Name = 
REMARK  4 active torsions:
REMARK  status: ('A' for Active; 'I' for Inactive)
REMARK    1  A    between atoms: C_1  and  O_2
REMARK    2  A    between atoms: O_2  and  C_3
REMARK    3  A    between atoms: C_6  and  C_7
REMARK    4  A    between atoms: C_14  and  N_15
REMARK                            x       y       z     vdW  Elec       q    Type
REMARK                         _______ _______ _______ _____ _____    ______ ____
ROOT
ATOM      1  C   UNL     1       2.693   7.270  18.627  0.00  0.00    +0.000 A 
ATOM      2  N   UNL     1       2.287   7.128  19.869  0.00  0.00    +0.000 NA
ATOM      3  N   UNL     1       1.564   8.211  20.301  0.00  0.00    +0.000 NA
ATOM      4  C   UNL     1       1.393   9.142  19.379  0.00  0.00    +0.000 A 
ATOM      5  N   UNL     1       0.633  10.264  19.558  0.00  0.00    +0.000 N 
ATOM      6  C   UNL     1       0.262  10.599  20.930  0.00  0.00    +0.000 C 
ATOM      7  C   UNL     1      -1.107  11.259  20.941  0.00  0.00    +0.000 C 
ATOM      8  C   UNL     1      -1.228  12.473  19.998  0.00  0.00    +0.000 C 
ATOM      9  C   UNL     1      -0.700  12.089  18.604  0.00  0.00    +0.000 C 
ATOM     10  C   UNL     1       0.645  11.366  18.600  0.00  0.00    +0.000 C 
ATOM     11  S   UNL     1       2.203   8.741  17.905  0.00  0.00    +0.000 S 
ENDROOT
BRANCH   1  15
ATOM     12  C   UNL     1       4.929   4.405  16.370  0.00  0.00    +0.000 A 
ATOM     13  C   UNL     1       5.270   5.757  16.349  0.00  0.00    +0.000 A 
ATOM     14  C   UNL     1       4.542   6.681  17.101  0.00  0.00    +0.000 A 
ATOM     15  C   UNL     1       3.451   6.268  17.879  0.00  0.00    +0.000 A 
ATOM     16  C   UNL     1       3.107   4.908  17.881  0.00  0.00    +0.000 A 
ATOM     17  C   UNL     1       3.839   3.984  17.132  0.00  0.00    +0.000 A 
BRANCH  12  19
ATOM     18  C   UNL     1       6.045   4.145  14.306  0.00  0.00    +0.000 C 
ATOM     19  O   UNL     1       5.697   3.602  15.573  0.00  0.00    +0.000 OA
ENDBRANCH  12  19
ENDBRANCH   1  15
BRANCH   8  20
ATOM     20  N   UNL     1      -0.760  13.793  20.495  0.00  0.00    +0.000 NA
ATOM     21  C   UNL     1      -0.425  14.700  19.384  0.00  0.00    +0.000 C 
ATOM     22  C   UNL     1       0.194  16.015  19.861  0.00  0.00    +0.000 C 
ATOM     23  C   UNL     1      -0.725  16.711  20.849  0.00  0.00    +0.000 C 
ATOM     24  C   UNL     1      -1.009  15.773  22.011  0.00  0.00    +0.000 C 
ATOM     25  C   UNL     1      -1.578  14.440  21.523  0.00  0.00    +0.000 C 
ENDBRANCH   8  20
TORSDOF 3
ENDMDL
MODEL 9
REMARK VINA RESULT:      -6.8      1.094      1.150
REMARK  Name = 
REMARK  4 active torsions:
REMARK  status: ('A' for Active; 'I' for Inactive)
REMARK    1  A    between atoms: C_1  and  O_2
REMARK    2  A    between atoms: O_2  and  C_3
REMARK    3  A    between atoms: C_6  and  C_7
REMARK    4  A    between atoms: C_14  and  N_15
REMARK                            x       y       z     vdW  Elec       q    Type
REMARK                         _______ _______ _______ _____ _____    ______ ____
ROOT
ATOM      1  C   UNL     1       1.516   8.651  19.142  0.00  0.00    +0.000 A 
ATOM      2  N   UNL     1       1.160   9.503  18.205  0.00  0.00    +0.000 NA
ATOM      3  N   UNL     1       0.342  10.491  18.692  0.00  0.00    +0.000 NA
ATOM      4  C   UNL     1       0.119  10.408  19.992  0.00  0.00    +0.000 A 
ATOM      5  N   UNL     1      -0.593  11.332  20.705  0.00  0.00    +0.000 N 
ATOM      6  C   UNL     1      -1.404  12.276  19.940  0.00  0.00    +0.000 C 
ATOM      7  C   UNL     1      -1.449  13.612  20.664  0.00  0.00    +0.000 C 
ATOM      8  C   UNL     1      -1.905  13.518  22.133  0.00  0.00    +0.000 C 
ATOM      9  C   UNL     1      -1.100  12.417  22.846  0.00  0.00    +0.000 C 
ATOM     10  C   UNL     1      -1.000  11.096  22.087  0.00  0.00    +0.000 C 
ATOM     11  S   UNL     1       0.877   9.018  20.686  0.00  0.00    +0.000 S 
ENDROOT
BRANCH   1  15
ATOM     12  C   UNL     1       4.145   5.314  18.640  0.00  0.00    +0.000 A 
ATOM     13  C   UNL     1       3.261   5.375  19.718  0.00  0.00    +0.000 A 
ATOM     14  C   UNL     1       2.397   6.462  19.864  0.00  0.00    +0.000 A 
ATOM     15  C   UNL     1       2.412   7.515  18.938  0.00  0.00    +0.000 A 
ATOM     16  C   UNL     1       3.314   7.452  17.866  0.00  0.00    +0.000 A 
ATOM     17  C   UNL     1       4.175   6.361  17.719  0.00  0.00    +0.000 A 
BRANCH  12  19
ATOM     18  C   UNL     1       4.531   3.118  19.417  0.00  0.00    +0.000 C 
ATOM     19  O   UNL     1       4.958   4.215  18.620  0.00  0.00    +0.000 OA
ENDBRANCH  12  19
ENDBRANCH   1  15
BRANCH   8  20
ATOM     20  N   UNL     1      -3.365  13.495  22.411  0.00  0.00    +0.000 NA
ATOM     21  C   UNL     1      -3.644  13.100  23.802  0.00  0.00    +0.000 C 
ATOM     22  C   UNL     1      -5.138  12.928  24.079  0.00  0.00    +0.000 C 
ATOM     23  C   UNL     1      -5.895  14.198  23.732  0.00  0.00    +0.000 C 
ATOM     24  C   UNL     1      -5.634  14.551  22.277  0.00  0.00    +0.000 C 
ATOM     25  C   UNL     1      -4.136  14.669  21.994  0.00  0.00    +0.000 C 
ENDBRANCH   8  20
TORSDOF 3
ENDMDL
