MODEL 1
REMARK VINA RESULT:      -6.9      0.000      0.000
REMARK  Name = 
REMARK  8 active torsions:
REMARK  status: ('A' for Active; 'I' for Inactive)
REMARK    1  A    between atoms: C_1  and  C_2
REMARK    2  A    between atoms: C_2  and  C_3
REMARK    3  A    between atoms: C_3  and  S_4
REMARK    4  A    between atoms: S_4  and  C_7
REMARK    5  A    between atoms: C_7  and  C_8
REMARK    6  A    between atoms: C_7  and  C_9
REMARK    7  A    between atoms: N_11  and  C_12
REMARK    8  A    between atoms: C_17  and  C_18
REMARK                            x       y       z     vdW  Elec       q    Type
REMARK                         _______ _______ _______ _____ _____    ______ ____
ROOT
ATOM      1  C   UNL     1       2.529   4.719  18.128  0.00  0.00    +0.000 C 
ATOM      2  O   UNL     1       1.314   4.557  18.008  0.00  0.00    +0.000 OA
ATOM      3  N   UNL     1       3.146   5.923  18.433  0.00  0.00    +0.000 N 
ATOM      4  H   UNL     1       4.148   5.999  18.237  0.00  0.00    +0.000 HD
ENDROOT
BRANCH   3   5
ATOM      5  C   UNL     1       2.473   7.140  18.705  0.00  0.00    +0.000 A 
ATOM      6  C   UNL     1       2.210   8.085  17.699  0.00  0.00    +0.000 A 
ATOM      7  C   UNL     1       1.589   9.311  17.968  0.00  0.00    +0.000 A 
ATOM      8  C   UNL     1       1.248   9.526  19.292  0.00  0.00    +0.000 A 
ATOM      9  O   UNL     1       0.653  10.631  19.806  0.00  0.00    +0.000 OA
ATOM     10  C   UNL     1       0.535  10.356  21.144  0.00  0.00    +0.000 A 
ATOM     11  N   UNL     1       1.006   9.174  21.502  0.00  0.00    +0.000 NA
ATOM     12  C   UNL     1       1.460   8.627  20.321  0.00  0.00    +0.000 A 
ATOM     13  C   UNL     1       2.066   7.392  20.031  0.00  0.00    +0.000 A 
BRANCH  10  14
ATOM     14  C   UNL     1      -0.112  11.329  22.121  0.00  0.00    +0.000 C 
ATOM     15  C   UNL     1      -1.567  11.709  21.919  0.00  0.00    +0.000 C 
ATOM     16  C   UNL     1      -1.200  10.783  23.028  0.00  0.00    +0.000 C 
ENDBRANCH  10  14
ENDBRANCH   3   5
BRANCH   1  17
ATOM     17  C   UNL     1       3.430   3.530  17.904  0.00  0.00    +0.000 C 
ATOM     18  C   UNL     1       2.666   2.302  17.435  0.00  0.00    +0.000 C 
BRANCH  17  19
ATOM     19  S   UNL     1       4.376   3.212  19.371  0.00  0.00    +0.000 S 
ATOM     20  O   UNL     1       5.575   4.025  19.295  0.00  0.00    +0.000 OA
ATOM     21  O   UNL     1       4.472   1.768  19.510  0.00  0.00    +0.000 OA
BRANCH  19  22
ATOM     22  C   UNL     1       3.376   3.836  20.724  0.00  0.00    +0.000 C 
BRANCH  22  24
ATOM     23  C   UNL     1       1.061   2.932  21.180  0.00  0.00    +0.000 C 
ATOM     24  C   UNL     1       2.553   2.708  21.338  0.00  0.00    +0.000 C 
ENDBRANCH  22  24
ENDBRANCH  19  22
ENDBRANCH  17  19
ENDBRANCH   1  17
TORSDOF 6
ENDMDL
MODEL 2
REMARK VINA RESULT:      -6.9      1.902      2.623
REMARK  Name = 
REMARK  8 active torsions:
REMARK  status: ('A' for Active; 'I' for Inactive)
REMARK    1  A    between atoms: C_1  and  C_2
REMARK    2  A    between atoms: C_2  and  C_3
REMARK    3  A    between atoms: C_3  and  S_4
REMARK    4  A    between atoms: S_4  and  C_7
REMARK    5  A    between atoms: C_7  and  C_8
REMARK    6  A    between atoms: C_7  and  C_9
REMARK    7  A    between atoms: N_11  and  C_12
REMARK    8  A    between atoms: C_17  and  C_18
REMARK                            x       y       z     vdW  Elec       q    Type
REMARK                         _______ _______ _______ _____ _____    ______ ____
ROOT
ATOM      1  C   UNL     1       4.159   4.995  18.574  0.00  0.00    +0.000 C 
ATOM      2  O   UNL     1       4.944   5.417  19.424  0.00  0.00    +0.000 OA
ATOM      3  N   UNL     1       2.937   5.572  18.262  0.00  0.00    +0.000 N 
ATOM      4  H   UNL     1       2.263   4.994  17.753  0.00  0.00    +0.000 HD
ENDROOT
BRANCH   3   5
ATOM      5  C   UNL     1       2.425   6.763  18.834  0.00  0.00    +0.000 A 
ATOM      6  C   UNL     1       1.993   6.820  20.170  0.00  0.00    +0.000 A 
ATOM      7  C   UNL     1       1.442   7.979  20.729  0.00  0.00    +0.000 A 
ATOM      8  C   UNL     1       1.358   9.067  19.877  0.00  0.00    +0.000 A 
ATOM      9  O   UNL     1       0.854  10.292  20.174  0.00  0.00    +0.000 OA
ATOM     10  C   UNL     1       0.993  11.001  19.010  0.00  0.00    +0.000 A 
ATOM     11  N   UNL     1       1.540  10.321  18.017  0.00  0.00    +0.000 NA
ATOM     12  C   UNL     1       1.786   9.080  18.563  0.00  0.00    +0.000 A 
ATOM     13  C   UNL     1       2.356   7.914  18.022  0.00  0.00    +0.000 A 
BRANCH  10  14
ATOM     14  C   UNL     1       0.573  12.461  18.891  0.00  0.00    +0.000 C 
ATOM     15  C   UNL     1       0.508  13.307  20.148  0.00  0.00    +0.000 C 
ATOM     16  C   UNL     1       1.625  13.513  19.185  0.00  0.00    +0.000 C 
ENDBRANCH  10  14
ENDBRANCH   3   5
BRANCH   1  17
ATOM     17  C   UNL     1       4.531   3.741  17.823  0.00  0.00    +0.000 C 
ATOM     18  C   UNL     1       4.735   3.992  16.337  0.00  0.00    +0.000 C 
BRANCH  17  19
ATOM     19  S   UNL     1       3.323   2.479  18.130  0.00  0.00    +0.000 S 
ATOM     20  O   UNL     1       3.937   1.205  17.802  0.00  0.00    +0.000 OA
ATOM     21  O   UNL     1       2.095   2.896  17.472  0.00  0.00    +0.000 OA
BRANCH  19  22
ATOM     22  C   UNL     1       3.044   2.512  19.902  0.00  0.00    +0.000 C 
BRANCH  22  24
ATOM     23  C   UNL     1       1.290   2.851  21.690  0.00  0.00    +0.000 C 
ATOM     24  C   UNL     1       1.572   2.780  20.200  0.00  0.00    +0.000 C 
ENDBRANCH  22  24
ENDBRANCH  19  22
ENDBRANCH  17  19
ENDBRANCH   1  17
TORSDOF 6
ENDMDL
MODEL 3
REMARK VINA RESULT:      -6.8      1.188      1.707
REMARK  Name = 
REMARK  8 active torsions:
REMARK  status: ('A' for Active; 'I' for Inactive)
REMARK    1  A    between atoms: C_1  and  C_2
REMARK    2  A    between atoms: C_2  and  C_3
REMARK    3  A    between atoms: C_3  and  S_4
REMARK    4  A    between atoms: S_4  and  C_7
REMARK    5  A    between atoms: C_7  and  C_8
REMARK    6  A    between atoms: C_7  and  C_9
REMARK    7  A    between atoms: N_11  and  C_12
REMARK    8  A    between atoms: C_17  and  C_18
REMARK                            x       y       z     vdW  Elec       q    Type
REMARK                         _______ _______ _______ _____ _____    ______ ____
ROOT
ATOM      1  C   UNL     1       4.164   5.166  18.492  0.00  0.00    +0.000 C 
ATOM      2  O   UNL     1       4.848   5.623  19.409  0.00  0.00    +0.000 OA
ATOM      3  N   UNL     1       3.003   5.744  18.000  0.00  0.00    +0.000 N 
ATOM      4  H   UNL     1       2.384   5.150  17.443  0.00  0.00    +0.000 HD
ENDROOT
BRANCH   3   5
ATOM      5  C   UNL     1       2.453   6.975  18.439  0.00  0.00    +0.000 A 
ATOM      6  C   UNL     1       2.376   8.096  17.596  0.00  0.00    +0.000 A 
ATOM      7  C   UNL     1       1.879   9.329  18.036  0.00  0.00    +0.000 A 
ATOM      8  C   UNL     1       1.463   9.365  19.356  0.00  0.00    +0.000 A 
ATOM      9  O   UNL     1       0.959  10.437  20.017  0.00  0.00    +0.000 OA
ATOM     10  C   UNL     1       0.708   9.964  21.279  0.00  0.00    +0.000 A 
ATOM     11  N   UNL     1       1.014   8.690  21.455  0.00  0.00    +0.000 NA
ATOM     12  C   UNL     1       1.493   8.291  20.226  0.00  0.00    +0.000 A 
ATOM     13  C   UNL     1       1.976   7.055  19.763  0.00  0.00    +0.000 A 
BRANCH  10  14
ATOM     14  C   UNL     1       0.102  10.836  22.370  0.00  0.00    +0.000 C 
ATOM     15  C   UNL     1      -0.394  12.223  22.006  0.00  0.00    +0.000 C 
ATOM     16  C   UNL     1      -1.381  11.140  22.274  0.00  0.00    +0.000 C 
ENDBRANCH  10  14
ENDBRANCH   3   5
BRANCH   1  17
ATOM     17  C   UNL     1       4.596   3.866  17.862  0.00  0.00    +0.000 C 
ATOM     18  C   UNL     1       4.971   4.025  16.398  0.00  0.00    +0.000 C 
BRANCH  17  19
ATOM     19  S   UNL     1       3.339   2.637  18.103  0.00  0.00    +0.000 S 
ATOM     20  O   UNL     1       3.943   1.345  17.838  0.00  0.00    +0.000 OA
ATOM     21  O   UNL     1       2.171   3.073  17.355  0.00  0.00    +0.000 OA
BRANCH  19  22
ATOM     22  C   UNL     1       2.939   2.706  19.851  0.00  0.00    +0.000 C 
BRANCH  22  24
ATOM     23  C   UNL     1       0.781   3.899  20.404  0.00  0.00    +0.000 C 
ATOM     24  C   UNL     1       1.433   2.574  20.054  0.00  0.00    +0.000 C 
ENDBRANCH  22  24
ENDBRANCH  19  22
ENDBRANCH  17  19
ENDBRANCH   1  17
TORSDOF 6
ENDMDL
MODEL 4
REMARK VINA RESULT:      -6.8      1.821      3.093
REMARK  Name = 
REMARK  8 active torsions:
REMARK  status: ('A' for Active; 'I' for Inactive)
REMARK    1  A    between atoms: C_1  and  C_2
REMARK    2  A    between atoms: C_2  and  C_3
REMARK    3  A    between atoms: C_3  and  S_4
REMARK    4  A    between atoms: S_4  and  C_7
REMARK    5  A    between atoms: C_7  and  C_8
REMARK    6  A    between atoms: C_7  and  C_9
REMARK    7  A    between atoms: N_11  and  C_12
REMARK    8  A    between atoms: C_17  and  C_18
REMARK                            x       y       z     vdW  Elec       q    Type
REMARK                         _______ _______ _______ _____ _____    ______ ____
ROOT
ATOM      1  C   UNL     1       2.856   5.350  18.288  0.00  0.00    +0.000 C 
ATOM      2  O   UNL     1       1.870   5.188  17.567  0.00  0.00    +0.000 OA
ATOM      3  N   UNL     1       3.133   6.501  19.011  0.00  0.00    +0.000 N 
ATOM      4  H   UNL     1       4.092   6.625  19.344  0.00  0.00    +0.000 HD
ENDROOT
BRANCH   3   5
ATOM      5  C   UNL     1       2.300   7.646  19.076  0.00  0.00    +0.000 A 
ATOM      6  C   UNL     1       2.180   8.538  17.997  0.00  0.00    +0.000 A 
ATOM      7  C   UNL     1       1.398   9.698  18.070  0.00  0.00    +0.000 A 
ATOM      8  C   UNL     1       0.747   9.901  19.275  0.00  0.00    +0.000 A 
ATOM      9  O   UNL     1      -0.054  10.947  19.596  0.00  0.00    +0.000 OA
ATOM     10  C   UNL     1      -0.444  10.687  20.884  0.00  0.00    +0.000 A 
ATOM     11  N   UNL     1       0.047   9.567  21.387  0.00  0.00    +0.000 NA
ATOM     12  C   UNL     1       0.808   9.049  20.361  0.00  0.00    +0.000 A 
ATOM     13  C   UNL     1       1.581   7.879  20.266  0.00  0.00    +0.000 A 
BRANCH  10  14
ATOM     14  C   UNL     1      -1.386  11.605  21.651  0.00  0.00    +0.000 C 
ATOM     15  C   UNL     1      -1.516  11.430  23.153  0.00  0.00    +0.000 C 
ATOM     16  C   UNL     1      -0.760  12.596  22.615  0.00  0.00    +0.000 C 
ENDBRANCH  10  14
ENDBRANCH   3   5
BRANCH   1  17
ATOM     17  C   UNL     1       3.860   4.229  18.382  0.00  0.00    +0.000 C 
ATOM     18  C   UNL     1       4.063   3.748  19.810  0.00  0.00    +0.000 C 
BRANCH  17  19
ATOM     19  S   UNL     1       5.383   4.725  17.618  0.00  0.00    +0.000 S 
ATOM     20  O   UNL     1       6.458   4.366  18.525  0.00  0.00    +0.000 OA
ATOM     21  O   UNL     1       5.213   6.103  17.187  0.00  0.00    +0.000 OA
BRANCH  19  22
ATOM     22  C   UNL     1       5.536   3.698  16.154  0.00  0.00    +0.000 C 
BRANCH  22  24
ATOM     23  C   UNL     1       6.244   3.929  13.740  0.00  0.00    +0.000 C 
ATOM     24  C   UNL     1       5.491   4.560  14.897  0.00  0.00    +0.000 C 
ENDBRANCH  22  24
ENDBRANCH  19  22
ENDBRANCH  17  19
ENDBRANCH   1  17
TORSDOF 6
ENDMDL
MODEL 5
REMARK VINA RESULT:      -6.7      2.169      2.944
REMARK  Name = 
REMARK  8 active torsions:
REMARK  status: ('A' for Active; 'I' for Inactive)
REMARK    1  A    between atoms: C_1  and  C_2
REMARK    2  A    between atoms: C_2  and  C_3
REMARK    3  A    between atoms: C_3  and  S_4
REMARK    4  A    between atoms: S_4  and  C_7
REMARK    5  A    between atoms: C_7  and  C_8
REMARK    6  A    between atoms: C_7  and  C_9
REMARK    7  A    between atoms: N_11  and  C_12
REMARK    8  A    between atoms: C_17  and  C_18
REMARK                            x       y       z     vdW  Elec       q    Type
REMARK                         _______ _______ _______ _____ _____    ______ ____
ROOT
ATOM      1  C   UNL     1       3.764   6.357  17.670  0.00  0.00    +0.000 C 
ATOM      2  O   UNL     1       4.226   7.275  16.991  0.00  0.00    +0.000 OA
ATOM      3  N   UNL     1       2.759   6.494  18.616  0.00  0.00    +0.000 N 
ATOM      4  H   UNL     1       2.652   5.740  19.299  0.00  0.00    +0.000 HD
ENDROOT
BRANCH   3   5
ATOM      5  C   UNL     1       2.072   7.698  18.909  0.00  0.00    +0.000 A 
ATOM      6  C   UNL     1       1.739   8.627  17.908  0.00  0.00    +0.000 A 
ATOM      7  C   UNL     1       1.104   9.841  18.196  0.00  0.00    +0.000 A 
ATOM      8  C   UNL     1       0.820  10.061  19.533  0.00  0.00    +0.000 A 
ATOM      9  O   UNL     1       0.224  11.157  20.065  0.00  0.00    +0.000 OA
ATOM     10  C   UNL     1       0.175  10.892  21.409  0.00  0.00    +0.000 A 
ATOM     11  N   UNL     1       0.690   9.725  21.755  0.00  0.00    +0.000 NA
ATOM     12  C   UNL     1       1.101   9.177  20.558  0.00  0.00    +0.000 A 
ATOM     13  C   UNL     1       1.721   7.954  20.251  0.00  0.00    +0.000 A 
BRANCH  10  14
ATOM     14  C   UNL     1      -0.447  11.860  22.407  0.00  0.00    +0.000 C 
ATOM     15  C   UNL     1      -1.571  12.768  21.942  0.00  0.00    +0.000 C 
ATOM     16  C   UNL     1      -1.886  11.604  22.818  0.00  0.00    +0.000 C 
ENDBRANCH  10  14
ENDBRANCH   3   5
BRANCH   1  17
ATOM     17  C   UNL     1       4.344   4.976  17.489  0.00  0.00    +0.000 C 
ATOM     18  C   UNL     1       3.270   3.905  17.380  0.00  0.00    +0.000 C 
BRANCH  17  19
ATOM     19  S   UNL     1       5.501   4.637  18.789  0.00  0.00    +0.000 S 
ATOM     20  O   UNL     1       5.379   3.229  19.120  0.00  0.00    +0.000 OA
ATOM     21  O   UNL     1       5.303   5.654  19.810  0.00  0.00    +0.000 OA
BRANCH  19  22
ATOM     22  C   UNL     1       7.121   4.890  18.060  0.00  0.00    +0.000 C 
BRANCH  22  24
ATOM     23  C   UNL     1       7.634   7.327  17.629  0.00  0.00    +0.000 C 
ATOM     24  C   UNL     1       7.751   6.168  18.603  0.00  0.00    +0.000 C 
ENDBRANCH  22  24
ENDBRANCH  19  22
ENDBRANCH  17  19
ENDBRANCH   1  17
TORSDOF 6
ENDMDL
MODEL 6
REMARK VINA RESULT:      -6.7      1.253      1.490
REMARK  Name = 
REMARK  8 active torsions:
REMARK  status: ('A' for Active; 'I' for Inactive)
REMARK    1  A    between atoms: C_1  and  C_2
REMARK    2  A    between atoms: C_2  and  C_3
REMARK    3  A    between atoms: C_3  and  S_4
REMARK    4  A    between atoms: S_4  and  C_7
REMARK    5  A    between atoms: C_7  and  C_8
REMARK    6  A    between atoms: C_7  and  C_9
REMARK    7  A    between atoms: N_11  and  C_12
REMARK    8  A    between atoms: C_17  and  C_18
REMARK                            x       y       z     vdW  Elec       q    Type
REMARK                         _______ _______ _______ _____ _____    ______ ____
ROOT
ATOM      1  C   UNL     1       2.651   5.690  18.181  0.00  0.00    +0.000 C 
ATOM      2  O   UNL     1       1.512   5.435  17.788  0.00  0.00    +0.000 OA
ATOM      3  N   UNL     1       3.026   6.854  18.835  0.00  0.00    +0.000 N 
ATOM      4  H   UNL     1       4.025   7.073  18.865  0.00  0.00    +0.000 HD
ENDROOT
BRANCH   3   5
ATOM      5  C   UNL     1       2.149   7.906  19.200  0.00  0.00    +0.000 A 
ATOM      6  C   UNL     1       1.745   8.888  18.280  0.00  0.00    +0.000 A 
ATOM      7  C   UNL     1       0.917   9.958  18.644  0.00  0.00    +0.000 A 
ATOM      8  C   UNL     1       0.520   9.977  19.970  0.00  0.00    +0.000 A 
ATOM      9  O   UNL     1      -0.265  10.909  20.567  0.00  0.00    +0.000 OA
ATOM     10  C   UNL     1      -0.358  10.485  21.866  0.00  0.00    +0.000 A 
ATOM     11  N   UNL     1       0.303   9.369  22.126  0.00  0.00    +0.000 NA
ATOM     12  C   UNL     1       0.866   9.029  20.914  0.00  0.00    +0.000 A 
ATOM     13  C   UNL     1       1.680   7.950  20.529  0.00  0.00    +0.000 A 
BRANCH  10  14
ATOM     14  C   UNL     1      -1.180  11.230  22.910  0.00  0.00    +0.000 C 
ATOM     15  C   UNL     1      -1.136  12.747  22.927  0.00  0.00    +0.000 C 
ATOM     16  C   UNL     1      -2.351  12.056  22.411  0.00  0.00    +0.000 C 
ENDBRANCH  10  14
ENDBRANCH   3   5
BRANCH   1  17
ATOM     17  C   UNL     1       3.737   4.678  17.916  0.00  0.00    +0.000 C 
ATOM     18  C   UNL     1       3.434   3.802  16.711  0.00  0.00    +0.000 C 
BRANCH  17  19
ATOM     19  S   UNL     1       4.037   3.724  19.381  0.00  0.00    +0.000 S 
ATOM     20  O   UNL     1       3.349   4.385  20.474  0.00  0.00    +0.000 OA
ATOM     21  O   UNL     1       5.470   3.487  19.448  0.00  0.00    +0.000 OA
BRANCH  19  22
ATOM     22  C   UNL     1       3.226   2.149  19.095  0.00  0.00    +0.000 C 
BRANCH  22  24
ATOM     23  C   UNL     1       0.726   2.286  18.752  0.00  0.00    +0.000 C 
ATOM     24  C   UNL     1       1.853   2.134  19.758  0.00  0.00    +0.000 C 
ENDBRANCH  22  24
ENDBRANCH  19  22
ENDBRANCH  17  19
ENDBRANCH   1  17
TORSDOF 6
ENDMDL
MODEL 7
REMARK VINA RESULT:      -6.7      1.493      2.714
REMARK  Name = 
REMARK  8 active torsions:
REMARK  status: ('A' for Active; 'I' for Inactive)
REMARK    1  A    between atoms: C_1  and  C_2
REMARK    2  A    between atoms: C_2  and  C_3
REMARK    3  A    between atoms: C_3  and  S_4
REMARK    4  A    between atoms: S_4  and  C_7
REMARK    5  A    between atoms: C_7  and  C_8
REMARK    6  A    between atoms: C_7  and  C_9
REMARK    7  A    between atoms: N_11  and  C_12
REMARK    8  A    between atoms: C_17  and  C_18
REMARK                            x       y       z     vdW  Elec       q    Type
REMARK                         _______ _______ _______ _____ _____    ______ ____
ROOT
ATOM      1  C   UNL     1       2.142   4.815  19.311  0.00  0.00    +0.000 C 
ATOM      2  O   UNL     1       1.363   4.742  18.360  0.00  0.00    +0.000 OA
ATOM      3  N   UNL     1       2.568   5.995  19.904  0.00  0.00    +0.000 N 
ATOM      4  H   UNL     1       3.407   5.950  20.488  0.00  0.00    +0.000 HD
ENDROOT
BRANCH   3   5
ATOM      5  C   UNL     1       2.133   7.295  19.542  0.00  0.00    +0.000 A 
ATOM      6  C   UNL     1       2.389   7.836  18.271  0.00  0.00    +0.000 A 
ATOM      7  C   UNL     1       2.006   9.137  17.922  0.00  0.00    +0.000 A 
ATOM      8  C   UNL     1       1.353   9.850  18.912  0.00  0.00    +0.000 A 
ATOM      9  O   UNL     1       0.896  11.124  18.825  0.00  0.00    +0.000 OA
ATOM     10  C   UNL     1       0.338  11.364  20.054  0.00  0.00    +0.000 A 
ATOM     11  N   UNL     1       0.409  10.346  20.894  0.00  0.00    +0.000 NA
ATOM     12  C   UNL     1       1.052   9.365  20.171  0.00  0.00    +0.000 A 
ATOM     13  C   UNL     1       1.426   8.050  20.499  0.00  0.00    +0.000 A 
BRANCH  10  14
ATOM     14  C   UNL     1      -0.331  12.688  20.400  0.00  0.00    +0.000 C 
ATOM     15  C   UNL     1      -0.703  13.635  19.275  0.00  0.00    +0.000 C 
ATOM     16  C   UNL     1      -1.775  12.870  19.971  0.00  0.00    +0.000 C 
ENDBRANCH  10  14
ENDBRANCH   3   5
BRANCH   1  17
ATOM     17  C   UNL     1       2.703   3.532  19.871  0.00  0.00    +0.000 C 
ATOM     18  C   UNL     1       2.570   3.449  21.383  0.00  0.00    +0.000 C 
BRANCH  17  19
ATOM     19  S   UNL     1       4.381   3.328  19.332  0.00  0.00    +0.000 S 
ATOM     20  O   UNL     1       4.917   2.167  20.018  0.00  0.00    +0.000 OA
ATOM     21  O   UNL     1       5.029   4.624  19.462  0.00  0.00    +0.000 OA
BRANCH  19  22
ATOM     22  C   UNL     1       4.274   2.932  17.585  0.00  0.00    +0.000 C 
BRANCH  22  24
ATOM     23  C   UNL     1       5.814   3.834  15.797  0.00  0.00    +0.000 C 
ATOM     24  C   UNL     1       4.669   4.141  16.744  0.00  0.00    +0.000 C 
ENDBRANCH  22  24
ENDBRANCH  19  22
ENDBRANCH  17  19
ENDBRANCH   1  17
TORSDOF 6
ENDMDL
MODEL 8
REMARK VINA RESULT:      -6.7      2.357      3.630
REMARK  Name = 
REMARK  8 active torsions:
REMARK  status: ('A' for Active; 'I' for Inactive)
REMARK    1  A    between atoms: C_1  and  C_2
REMARK    2  A    between atoms: C_2  and  C_3
REMARK    3  A    between atoms: C_3  and  S_4
REMARK    4  A    between atoms: S_4  and  C_7
REMARK    5  A    between atoms: C_7  and  C_8
REMARK    6  A    between atoms: C_7  and  C_9
REMARK    7  A    between atoms: N_11  and  C_12
REMARK    8  A    between atoms: C_17  and  C_18
REMARK                            x       y       z     vdW  Elec       q    Type
REMARK                         _______ _______ _______ _____ _____    ______ ____
ROOT
ATOM      1  C   UNL     1       2.825   4.879  17.940  0.00  0.00    +0.000 C 
ATOM      2  O   UNL     1       1.671   4.795  17.518  0.00  0.00    +0.000 OA
ATOM      3  N   UNL     1       3.296   5.876  18.781  0.00  0.00    +0.000 N 
ATOM      4  H   UNL     1       4.310   6.000  18.840  0.00  0.00    +0.000 HD
ENDROOT
BRANCH   3   5
ATOM      5  C   UNL     1       2.510   6.921  19.329  0.00  0.00    +0.000 A 
ATOM      6  C   UNL     1       2.010   6.865  20.641  0.00  0.00    +0.000 A 
ATOM      7  C   UNL     1       1.194   7.870  21.173  0.00  0.00    +0.000 A 
ATOM      8  C   UNL     1       0.918   8.925  20.321  0.00  0.00    +0.000 A 
ATOM      9  O   UNL     1       0.147  10.007  20.594  0.00  0.00    +0.000 OA
ATOM     10  C   UNL     1       0.186  10.746  19.440  0.00  0.00    +0.000 A 
ATOM     11  N   UNL     1       0.916  10.214  18.475  0.00  0.00    +0.000 NA
ATOM     12  C   UNL     1       1.398   9.048  19.030  0.00  0.00    +0.000 A 
ATOM     13  C   UNL     1       2.234   8.040  18.517  0.00  0.00    +0.000 A 
BRANCH  10  14
ATOM     14  C   UNL     1      -0.534  12.081  19.303  0.00  0.00    +0.000 C 
ATOM     15  C   UNL     1      -1.331  12.355  18.041  0.00  0.00    +0.000 C 
ATOM     16  C   UNL     1      -2.052  12.056  19.310  0.00  0.00    +0.000 C 
ENDBRANCH  10  14
ENDBRANCH   3   5
BRANCH   1  17
ATOM     17  C   UNL     1       3.822   3.838  17.494  0.00  0.00    +0.000 C 
ATOM     18  C   UNL     1       3.930   2.680  18.474  0.00  0.00    +0.000 C 
BRANCH  17  19
ATOM     19  S   UNL     1       5.392   4.606  17.187  0.00  0.00    +0.000 S 
ATOM     20  O   UNL     1       6.241   4.325  18.330  0.00  0.00    +0.000 OA
ATOM     21  O   UNL     1       5.123   5.978  16.788  0.00  0.00    +0.000 OA
BRANCH  19  22
ATOM     22  C   UNL     1       6.074   3.739  15.772  0.00  0.00    +0.000 C 
BRANCH  22  24
ATOM     23  C   UNL     1       6.144   3.682  13.247  0.00  0.00    +0.000 C 
ATOM     24  C   UNL     1       5.564   4.358  14.476  0.00  0.00    +0.000 C 
ENDBRANCH  22  24
ENDBRANCH  19  22
ENDBRANCH  17  19
ENDBRANCH   1  17
TORSDOF 6
ENDMDL
MODEL 9
REMARK VINA RESULT:      -6.7      3.290      4.591
REMARK  Name = 
REMARK  8 active torsions:
REMARK  status: ('A' for Active; 'I' for Inactive)
REMARK    1  A    between atoms: C_1  and  C_2
REMARK    2  A    between atoms: C_2  and  C_3
REMARK    3  A    between atoms: C_3  and  S_4
REMARK    4  A    between atoms: S_4  and  C_7
REMARK    5  A    between atoms: C_7  and  C_8
REMARK    6  A    between atoms: C_7  and  C_9
REMARK    7  A    between atoms: N_11  and  C_12
REMARK    8  A    between atoms: C_17  and  C_18
REMARK                            x       y       z     vdW  Elec       q    Type
REMARK                         _______ _______ _______ _____ _____    ______ ____
ROOT
ATOM      1  C   UNL     1       5.406   5.773  17.826  0.00  0.00    +0.000 C 
ATOM      2  O   UNL     1       6.072   6.415  18.639  0.00  0.00    +0.000 OA
ATOM      3  N   UNL     1       4.024   5.818  17.716  0.00  0.00    +0.000 N 
ATOM      4  H   UNL     1       3.569   5.055  17.208  0.00  0.00    +0.000 HD
ENDROOT
BRANCH   3   5
ATOM      5  C   UNL     1       3.169   6.648  18.485  0.00  0.00    +0.000 A 
ATOM      6  C   UNL     1       2.699   6.259  19.751  0.00  0.00    +0.000 A 
ATOM      7  C   UNL     1       1.816   7.051  20.495  0.00  0.00    +0.000 A 
ATOM      8  C   UNL     1       1.444   8.245  19.902  0.00  0.00    +0.000 A 
ATOM      9  O   UNL     1       0.596   9.174  20.412  0.00  0.00    +0.000 OA
ATOM     10  C   UNL     1       0.558  10.153  19.454  0.00  0.00    +0.000 A 
ATOM     11  N   UNL     1       1.310   9.910  18.394  0.00  0.00    +0.000 NA
ATOM     12  C   UNL     1       1.891   8.692  18.673  0.00  0.00    +0.000 A 
ATOM     13  C   UNL     1       2.792   7.895  17.946  0.00  0.00    +0.000 A 
BRANCH  10  14
ATOM     14  C   UNL     1      -0.266  11.423  19.620  0.00  0.00    +0.000 C 
ATOM     15  C   UNL     1      -0.652  12.211  18.383  0.00  0.00    +0.000 C 
ATOM     16  C   UNL     1      -1.687  11.404  19.088  0.00  0.00    +0.000 C 
ENDBRANCH  10  14
ENDBRANCH   3   5
BRANCH   1  17
ATOM     17  C   UNL     1       6.133   4.843  16.887  0.00  0.00    +0.000 C 
ATOM     18  C   UNL     1       7.522   4.481  17.387  0.00  0.00    +0.000 C 
BRANCH  17  19
ATOM     19  S   UNL     1       6.168   5.545  15.258  0.00  0.00    +0.000 S 
ATOM     20  O   UNL     1       7.552   5.557  14.823  0.00  0.00    +0.000 OA
ATOM     21  O   UNL     1       5.401   6.780  15.311  0.00  0.00    +0.000 OA
BRANCH  19  22
ATOM     22  C   UNL     1       5.277   4.382  14.222  0.00  0.00    +0.000 C 
BRANCH  22  24
ATOM     23  C   UNL     1       6.448   3.616  12.117  0.00  0.00    +0.000 C 
ATOM     24  C   UNL     1       6.244   3.378  13.602  0.00  0.00    +0.000 C 
ENDBRANCH  22  24
ENDBRANCH  19  22
ENDBRANCH  17  19
ENDBRANCH   1  17
TORSDOF 6
ENDMDL
