MODEL 1
REMARK VINA RESULT:      -9.3      0.000      0.000
REMARK  Name = 
REMARK  5 active torsions:
REMARK  status: ('A' for Active; 'I' for Inactive)
REMARK    1  A    between atoms: N_1  and  C_2
REMARK    2  A    between atoms: C_5  and  N_6
REMARK    3  A    between atoms: N_6  and  C_7
REMARK    4  A    between atoms: N_10  and  C_11
REMARK    5  A    between atoms: C_23  and  C_24
REMARK                            x       y       z     vdW  Elec       q    Type
REMARK                         _______ _______ _______ _____ _____    ______ ____
ROOT
ATOM      1  C   UNL     1       3.108   4.640  18.714  0.00  0.00    +0.000 A 
ATOM      2  N   UNL     1       2.898   5.951  18.473  0.00  0.00    +0.000 NA
ATOM      3  C   UNL     1       2.268   6.678  19.409  0.00  0.00    +0.000 A 
ATOM      4  N   UNL     1       2.117   8.045  19.199  0.00  0.00    +0.000 N 
ATOM      5  N   UNL     1       1.815   6.155  20.556  0.00  0.00    +0.000 NA
ATOM      6  C   UNL     1       2.087   4.870  20.798  0.00  0.00    +0.000 A 
ATOM      7  C   UNL     1       2.778   4.064  19.925  0.00  0.00    +0.000 A 
ATOM      8  H   UNL     1       2.731   8.412  18.490  0.00  0.00    +0.000 HD
ENDROOT
BRANCH   4   9
ATOM      9  C   UNL     1       1.182   8.902  19.798  0.00  0.00    +0.000 A 
ATOM     10  C   UNL     1       0.595   9.954  19.058  0.00  0.00    +0.000 A 
ATOM     11  C   UNL     1      -0.248  10.890  19.674  0.00  0.00    +0.000 A 
ATOM     12  C   UNL     1      -0.483  10.746  21.029  0.00  0.00    +0.000 A 
ATOM     13  C   UNL     1       0.079   9.719  21.777  0.00  0.00    +0.000 A 
ATOM     14  C   UNL     1       0.910   8.798  21.175  0.00  0.00    +0.000 A 
ATOM     15  C   UNL     1      -0.320   9.831  23.206  0.00  0.00    +0.000 C 
ATOM     16  N   UNL     1      -1.166  10.999  23.195  0.00  0.00    +0.000 N 
ATOM     17  C   UNL     1      -1.279  11.570  21.945  0.00  0.00    +0.000 C 
ATOM     18  O   UNL     1      -1.906  12.567  21.649  0.00  0.00    +0.000 OA
ATOM     19  H   UNL     1      -1.607  11.412  24.004  0.00  0.00    +0.000 HD
ENDBRANCH   4   9
BRANCH   7  20
ATOM     20  C   UNL     1       3.061   2.672  20.356  0.00  0.00    +0.000 C 
ATOM     21  F   UNL     1       4.356   2.269  20.279  0.00  0.00    +0.000 F 
ATOM     22  F   UNL     1       2.708   2.481  21.663  0.00  0.00    +0.000 F 
ATOM     23  F   UNL     1       2.335   1.753  19.657  0.00  0.00    +0.000 F 
ENDBRANCH   7  20
BRANCH   1  24
ATOM     24  N   UNL     1       3.677   3.856  17.708  0.00  0.00    +0.000 N 
ATOM     25  H   UNL     1       3.392   2.885  17.827  0.00  0.00    +0.000 HD
BRANCH  24  29
ATOM     26  C   UNL     1       7.290   6.016  16.874  0.00  0.00    +0.000 C 
ATOM     27  C   UNL     1       7.242   5.189  18.161  0.00  0.00    +0.000 C 
ATOM     28  C   UNL     1       5.829   4.743  18.534  0.00  0.00    +0.000 C 
ATOM     29  C   UNL     1       5.108   3.992  17.395  0.00  0.00    +0.000 C 
ATOM     30  C   UNL     1       5.210   4.773  16.067  0.00  0.00    +0.000 C 
ATOM     31  C   UNL     1       6.630   5.233  15.735  0.00  0.00    +0.000 C 
BRANCH  26  32
ATOM     32  N   UNL     1       6.653   7.321  17.046  0.00  0.00    +0.000 NA
ATOM     33  H   UNL     1       5.654   7.248  16.852  0.00  0.00    +0.000 HD
ATOM     34  H   UNL     1       7.016   7.999  16.379  0.00  0.00    +0.000 HD
ENDBRANCH  26  32
ENDBRANCH  24  29
ENDBRANCH   1  24
TORSDOF 5
ENDMDL
MODEL 2
REMARK VINA RESULT:      -9.0      1.357      1.919
REMARK  Name = 
REMARK  5 active torsions:
REMARK  status: ('A' for Active; 'I' for Inactive)
REMARK    1  A    between atoms: N_1  and  C_2
REMARK    2  A    between atoms: C_5  and  N_6
REMARK    3  A    between atoms: N_6  and  C_7
REMARK    4  A    between atoms: N_10  and  C_11
REMARK    5  A    between atoms: C_23  and  C_24
REMARK                            x       y       z     vdW  Elec       q    Type
REMARK                         _______ _______ _______ _____ _____    ______ ____
ROOT
ATOM      1  C   UNL     1       3.015   4.991  18.988  0.00  0.00    +0.000 A 
ATOM      2  N   UNL     1       2.924   6.261  18.541  0.00  0.00    +0.000 NA
ATOM      3  C   UNL     1       2.176   7.130  19.239  0.00  0.00    +0.000 A 
ATOM      4  N   UNL     1       2.141   8.459  18.825  0.00  0.00    +0.000 N 
ATOM      5  N   UNL     1       1.495   6.787  20.340  0.00  0.00    +0.000 NA
ATOM      6  C   UNL     1       1.649   5.542  20.797  0.00  0.00    +0.000 A 
ATOM      7  C   UNL     1       2.440   4.601  20.183  0.00  0.00    +0.000 A 
ATOM      8  H   UNL     1       2.891   8.704  18.200  0.00  0.00    +0.000 HD
ENDROOT
BRANCH   4   9
ATOM      9  C   UNL     1       1.161   9.418  19.121  0.00  0.00    +0.000 A 
ATOM     10  C   UNL     1       0.991   9.885  20.445  0.00  0.00    +0.000 A 
ATOM     11  C   UNL     1      -0.060  10.751  20.778  0.00  0.00    +0.000 A 
ATOM     12  C   UNL     1      -0.921  11.131  19.766  0.00  0.00    +0.000 A 
ATOM     13  C   UNL     1      -0.773  10.689  18.457  0.00  0.00    +0.000 A 
ATOM     14  C   UNL     1       0.258   9.836  18.127  0.00  0.00    +0.000 A 
ATOM     15  C   UNL     1      -1.858  11.230  17.594  0.00  0.00    +0.000 C 
ATOM     16  N   UNL     1      -2.619  12.026  18.525  0.00  0.00    +0.000 N 
ATOM     17  C   UNL     1      -2.113  11.986  19.806  0.00  0.00    +0.000 C 
ATOM     18  O   UNL     1      -2.562  12.541  20.789  0.00  0.00    +0.000 OA
ATOM     19  H   UNL     1      -3.465  12.532  18.309  0.00  0.00    +0.000 HD
ENDBRANCH   4   9
BRANCH   7  20
ATOM     20  C   UNL     1       2.564   3.276  20.839  0.00  0.00    +0.000 C 
ATOM     21  F   UNL     1       3.804   2.719  20.844  0.00  0.00    +0.000 F 
ATOM     22  F   UNL     1       2.201   3.343  22.155  0.00  0.00    +0.000 F 
ATOM     23  F   UNL     1       1.733   2.343  20.291  0.00  0.00    +0.000 F 
ENDBRANCH   7  20
BRANCH   1  24
ATOM     24  N   UNL     1       3.711   4.057  18.219  0.00  0.00    +0.000 N 
ATOM     25  H   UNL     1       3.402   3.116  18.458  0.00  0.00    +0.000 HD
BRANCH  24  29
ATOM     26  C   UNL     1       7.420   6.062  17.415  0.00  0.00    +0.000 C 
ATOM     27  C   UNL     1       7.177   5.570  18.844  0.00  0.00    +0.000 C 
ATOM     28  C   UNL     1       5.722   5.183  19.106  0.00  0.00    +0.000 C 
ATOM     29  C   UNL     1       5.174   4.158  18.093  0.00  0.00    +0.000 C 
ATOM     30  C   UNL     1       5.475   4.597  16.643  0.00  0.00    +0.000 C 
ATOM     31  C   UNL     1       6.931   5.007  16.418  0.00  0.00    +0.000 C 
BRANCH  26  32
ATOM     32  N   UNL     1       6.771   7.350  17.170  0.00  0.00    +0.000 NA
ATOM     33  H   UNL     1       7.206   8.072  17.745  0.00  0.00    +0.000 HD
ATOM     34  H   UNL     1       5.792   7.327  17.448  0.00  0.00    +0.000 HD
ENDBRANCH  26  32
ENDBRANCH  24  29
ENDBRANCH   1  24
TORSDOF 5
ENDMDL
MODEL 3
REMARK VINA RESULT:      -9.0      0.829      1.403
REMARK  Name = 
REMARK  5 active torsions:
REMARK  status: ('A' for Active; 'I' for Inactive)
REMARK    1  A    between atoms: N_1  and  C_2
REMARK    2  A    between atoms: C_5  and  N_6
REMARK    3  A    between atoms: N_6  and  C_7
REMARK    4  A    between atoms: N_10  and  C_11
REMARK    5  A    between atoms: C_23  and  C_24
REMARK                            x       y       z     vdW  Elec       q    Type
REMARK                         _______ _______ _______ _____ _____    ______ ____
ROOT
ATOM      1  C   UNL     1       2.734   4.632  18.664  0.00  0.00    +0.000 A 
ATOM      2  N   UNL     1       2.657   5.976  18.570  0.00  0.00    +0.000 NA
ATOM      3  C   UNL     1       2.151   6.659  19.609  0.00  0.00    +0.000 A 
ATOM      4  N   UNL     1       2.140   8.050  19.548  0.00  0.00    +0.000 N 
ATOM      5  N   UNL     1       1.696   6.066  20.720  0.00  0.00    +0.000 NA
ATOM      6  C   UNL     1       1.838   4.742  20.814  0.00  0.00    +0.000 A 
ATOM      7  C   UNL     1       2.398   3.967  19.827  0.00  0.00    +0.000 A 
ATOM      8  H   UNL     1       2.758   8.425  18.847  0.00  0.00    +0.000 HD
ENDROOT
BRANCH   4   9
ATOM      9  C   UNL     1       1.331   8.929  20.283  0.00  0.00    +0.000 A 
ATOM     10  C   UNL     1       1.224   8.802  21.687  0.00  0.00    +0.000 A 
ATOM     11  C   UNL     1       0.327   9.593  22.419  0.00  0.00    +0.000 A 
ATOM     12  C   UNL     1      -0.445  10.501  21.719  0.00  0.00    +0.000 A 
ATOM     13  C   UNL     1      -0.356  10.647  20.340  0.00  0.00    +0.000 A 
ATOM     14  C   UNL     1       0.523   9.868  19.617  0.00  0.00    +0.000 A 
ATOM     15  C   UNL     1      -1.324  11.668  19.856  0.00  0.00    +0.000 C 
ATOM     16  N   UNL     1      -1.954  12.094  21.081  0.00  0.00    +0.000 N 
ATOM     17  C   UNL     1      -1.477  11.429  22.191  0.00  0.00    +0.000 C 
ATOM     18  O   UNL     1      -1.841  11.571  23.342  0.00  0.00    +0.000 OA
ATOM     19  H   UNL     1      -2.701  12.770  21.153  0.00  0.00    +0.000 HD
ENDBRANCH   4   9
BRANCH   7  20
ATOM     20  C   UNL     1       2.547   2.515  20.097  0.00  0.00    +0.000 C 
ATOM     21  F   UNL     1       3.796   1.999  19.946  0.00  0.00    +0.000 F 
ATOM     22  F   UNL     1       2.195   2.216  21.383  0.00  0.00    +0.000 F 
ATOM     23  F   UNL     1       1.725   1.753  19.319  0.00  0.00    +0.000 F 
ENDBRANCH   7  20
BRANCH   1  24
ATOM     24  N   UNL     1       3.170   3.906  17.553  0.00  0.00    +0.000 N 
ATOM     25  H   UNL     1       2.689   3.008  17.521  0.00  0.00    +0.000 HD
BRANCH  24  29
ATOM     26  C   UNL     1       7.087   5.391  16.621  0.00  0.00    +0.000 C 
ATOM     27  C   UNL     1       6.891   4.719  17.983  0.00  0.00    +0.000 C 
ATOM     28  C   UNL     1       5.420   4.535  18.353  0.00  0.00    +0.000 C 
ATOM     29  C   UNL     1       4.609   3.789  17.274  0.00  0.00    +0.000 C 
ATOM     30  C   UNL     1       4.852   4.404  15.878  0.00  0.00    +0.000 C 
ATOM     31  C   UNL     1       6.331   4.604  15.546  0.00  0.00    +0.000 C 
BRANCH  26  32
ATOM     32  N   UNL     1       6.657   6.789  16.643  0.00  0.00    +0.000 NA
ATOM     33  H   UNL     1       6.307   7.059  15.723  0.00  0.00    +0.000 HD
ATOM     34  H   UNL     1       7.440   7.411  16.834  0.00  0.00    +0.000 HD
ENDBRANCH  26  32
ENDBRANCH  24  29
ENDBRANCH   1  24
TORSDOF 5
ENDMDL
MODEL 4
REMARK VINA RESULT:      -8.9      1.625      2.239
REMARK  Name = 
REMARK  5 active torsions:
REMARK  status: ('A' for Active; 'I' for Inactive)
REMARK    1  A    between atoms: N_1  and  C_2
REMARK    2  A    between atoms: C_5  and  N_6
REMARK    3  A    between atoms: N_6  and  C_7
REMARK    4  A    between atoms: N_10  and  C_11
REMARK    5  A    between atoms: C_23  and  C_24
REMARK                            x       y       z     vdW  Elec       q    Type
REMARK                         _______ _______ _______ _____ _____    ______ ____
ROOT
ATOM      1  C   UNL     1       2.765   5.532  18.898  0.00  0.00    +0.000 A 
ATOM      2  N   UNL     1       2.626   6.810  18.487  0.00  0.00    +0.000 NA
ATOM      3  C   UNL     1       1.922   7.653  19.257  0.00  0.00    +0.000 A 
ATOM      4  N   UNL     1       1.840   8.990  18.877  0.00  0.00    +0.000 N 
ATOM      5  N   UNL     1       1.328   7.277  20.397  0.00  0.00    +0.000 NA
ATOM      6  C   UNL     1       1.531   6.025  20.813  0.00  0.00    +0.000 A 
ATOM      7  C   UNL     1       2.285   5.109  20.122  0.00  0.00    +0.000 A 
ATOM      8  H   UNL     1       2.539   9.258  18.204  0.00  0.00    +0.000 HD
ENDROOT
BRANCH   4   9
ATOM      9  C   UNL     1       0.873   9.929  19.265  0.00  0.00    +0.000 A 
ATOM     10  C   UNL     1       0.891  10.481  20.567  0.00  0.00    +0.000 A 
ATOM     11  C   UNL     1      -0.136  11.327  21.009  0.00  0.00    +0.000 A 
ATOM     12  C   UNL     1      -1.163  11.602  20.126  0.00  0.00    +0.000 A 
ATOM     13  C   UNL     1      -1.202  11.075  18.841  0.00  0.00    +0.000 A 
ATOM     14  C   UNL     1      -0.195  10.241  18.404  0.00  0.00    +0.000 A 
ATOM     15  C   UNL     1      -2.434  11.512  18.131  0.00  0.00    +0.000 C 
ATOM     16  N   UNL     1      -3.078  12.341  19.120  0.00  0.00    +0.000 N 
ATOM     17  C   UNL     1      -2.374  12.410  20.304  0.00  0.00    +0.000 C 
ATOM     18  O   UNL     1      -2.689  13.015  21.309  0.00  0.00    +0.000 OA
ATOM     19  H   UNL     1      -3.971  12.798  19.012  0.00  0.00    +0.000 HD
ENDBRANCH   4   9
BRANCH   7  20
ATOM     20  C   UNL     1       2.473   3.771  20.737  0.00  0.00    +0.000 C 
ATOM     21  F   UNL     1       3.674   3.172  20.523  0.00  0.00    +0.000 F 
ATOM     22  F   UNL     1       2.348   3.834  22.097  0.00  0.00    +0.000 F 
ATOM     23  F   UNL     1       1.526   2.875  20.337  0.00  0.00    +0.000 F 
ENDBRANCH   7  20
BRANCH   1  24
ATOM     24  N   UNL     1       3.415   4.624  18.059  0.00  0.00    +0.000 N 
ATOM     25  H   UNL     1       3.722   3.817  18.599  0.00  0.00    +0.000 HD
BRANCH  24  29
ATOM     26  C   UNL     1       7.399   5.001  16.509  0.00  0.00    +0.000 C 
ATOM     27  C   UNL     1       6.367   4.282  15.638  0.00  0.00    +0.000 C 
ATOM     28  C   UNL     1       5.097   3.905  16.400  0.00  0.00    +0.000 C 
ATOM     29  C   UNL     1       4.441   5.101  17.119  0.00  0.00    +0.000 C 
ATOM     30  C   UNL     1       5.483   5.888  17.945  0.00  0.00    +0.000 C 
ATOM     31  C   UNL     1       6.754   6.225  17.166  0.00  0.00    +0.000 C 
BRANCH  26  32
ATOM     32  N   UNL     1       7.969   4.108  17.518  0.00  0.00    +0.000 NA
ATOM     33  H   UNL     1       7.689   4.414  18.450  0.00  0.00    +0.000 HD
ATOM     34  H   UNL     1       8.987   4.145  17.508  0.00  0.00    +0.000 HD
ENDBRANCH  26  32
ENDBRANCH  24  29
ENDBRANCH   1  24
TORSDOF 5
ENDMDL
MODEL 5
REMARK VINA RESULT:      -8.9      1.410      1.641
REMARK  Name = 
REMARK  5 active torsions:
REMARK  status: ('A' for Active; 'I' for Inactive)
REMARK    1  A    between atoms: N_1  and  C_2
REMARK    2  A    between atoms: C_5  and  N_6
REMARK    3  A    between atoms: N_6  and  C_7
REMARK    4  A    between atoms: N_10  and  C_11
REMARK    5  A    between atoms: C_23  and  C_24
REMARK                            x       y       z     vdW  Elec       q    Type
REMARK                         _______ _______ _______ _____ _____    ______ ____
ROOT
ATOM      1  C   UNL     1       3.958   4.130  19.168  0.00  0.00    +0.000 A 
ATOM      2  N   UNL     1       3.943   5.404  19.615  0.00  0.00    +0.000 NA
ATOM      3  C   UNL     1       2.757   6.020  19.741  0.00  0.00    +0.000 A 
ATOM      4  N   UNL     1       2.730   7.306  20.274  0.00  0.00    +0.000 N 
ATOM      5  N   UNL     1       1.595   5.439  19.417  0.00  0.00    +0.000 NA
ATOM      6  C   UNL     1       1.630   4.161  19.035  0.00  0.00    +0.000 A 
ATOM      7  C   UNL     1       2.790   3.431  18.934  0.00  0.00    +0.000 A 
ATOM      8  H   UNL     1       3.573   7.553  20.766  0.00  0.00    +0.000 HD
ENDROOT
BRANCH   4   9
ATOM      9  C   UNL     1       1.720   8.268  20.129  0.00  0.00    +0.000 A 
ATOM     10  C   UNL     1       1.435   8.824  18.861  0.00  0.00    +0.000 A 
ATOM     11  C   UNL     1       0.513   9.871  18.719  0.00  0.00    +0.000 A 
ATOM     12  C   UNL     1      -0.106  10.338  19.864  0.00  0.00    +0.000 A 
ATOM     13  C   UNL     1       0.154   9.805  21.121  0.00  0.00    +0.000 A 
ATOM     14  C   UNL     1       1.062   8.777  21.263  0.00  0.00    +0.000 A 
ATOM     15  C   UNL     1      -0.626  10.521  22.166  0.00  0.00    +0.000 C 
ATOM     16  N   UNL     1      -1.358  11.490  21.389  0.00  0.00    +0.000 N 
ATOM     17  C   UNL     1      -1.074  11.424  20.041  0.00  0.00    +0.000 C 
ATOM     18  O   UNL     1      -1.527  12.130  19.162  0.00  0.00    +0.000 OA
ATOM     19  H   UNL     1      -1.984  12.190  21.761  0.00  0.00    +0.000 HD
ENDBRANCH   4   9
BRANCH   7  20
ATOM     20  C   UNL     1       2.669   2.001  18.555  0.00  0.00    +0.000 C 
ATOM     21  F   UNL     1       3.738   1.211  18.837  0.00  0.00    +0.000 F 
ATOM     22  F   UNL     1       1.615   1.411  19.195  0.00  0.00    +0.000 F 
ATOM     23  F   UNL     1       2.414   1.833  17.225  0.00  0.00    +0.000 F 
ENDBRANCH   7  20
BRANCH   1  24
ATOM     24  N   UNL     1       5.190   3.513  18.943  0.00  0.00    +0.000 N 
ATOM     25  H   UNL     1       5.728   3.496  19.808  0.00  0.00    +0.000 HD
BRANCH  24  29
ATOM     26  C   UNL     1       6.171   5.873  15.496  0.00  0.00    +0.000 C 
ATOM     27  C   UNL     1       7.134   5.923  16.685  0.00  0.00    +0.000 C 
ATOM     28  C   UNL     1       6.539   5.334  17.963  0.00  0.00    +0.000 C 
ATOM     29  C   UNL     1       6.001   3.900  17.778  0.00  0.00    +0.000 C 
ATOM     30  C   UNL     1       5.086   3.809  16.537  0.00  0.00    +0.000 C 
ATOM     31  C   UNL     1       5.694   4.433  15.281  0.00  0.00    +0.000 C 
BRANCH  26  32
ATOM     32  N   UNL     1       5.036   6.776  15.683  0.00  0.00    +0.000 NA
ATOM     33  H   UNL     1       4.171   6.306  15.413  0.00  0.00    +0.000 HD
ATOM     34  H   UNL     1       5.110   7.590  15.076  0.00  0.00    +0.000 HD
ENDBRANCH  26  32
ENDBRANCH  24  29
ENDBRANCH   1  24
TORSDOF 5
ENDMDL
MODEL 6
REMARK VINA RESULT:      -8.9      1.620      1.996
REMARK  Name = 
REMARK  5 active torsions:
REMARK  status: ('A' for Active; 'I' for Inactive)
REMARK    1  A    between atoms: N_1  and  C_2
REMARK    2  A    between atoms: C_5  and  N_6
REMARK    3  A    between atoms: N_6  and  C_7
REMARK    4  A    between atoms: N_10  and  C_11
REMARK    5  A    between atoms: C_23  and  C_24
REMARK                            x       y       z     vdW  Elec       q    Type
REMARK                         _______ _______ _______ _____ _____    ______ ____
ROOT
ATOM      1  C   UNL     1       4.162   4.275  19.136  0.00  0.00    +0.000 A 
ATOM      2  N   UNL     1       3.988   5.503  19.669  0.00  0.00    +0.000 NA
ATOM      3  C   UNL     1       2.803   6.109  19.496  0.00  0.00    +0.000 A 
ATOM      4  N   UNL     1       2.592   7.341  20.108  0.00  0.00    +0.000 N 
ATOM      5  N   UNL     1       1.799   5.563  18.798  0.00  0.00    +0.000 NA
ATOM      6  C   UNL     1       1.974   4.324  18.333  0.00  0.00    +0.000 A 
ATOM      7  C   UNL     1       3.130   3.603  18.511  0.00  0.00    +0.000 A 
ATOM      8  H   UNL     1       3.249   7.541  20.844  0.00  0.00    +0.000 HD
ENDROOT
BRANCH   4   9
ATOM      9  C   UNL     1       1.645   8.315  19.759  0.00  0.00    +0.000 A 
ATOM     10  C   UNL     1       1.537   8.765  18.423  0.00  0.00    +0.000 A 
ATOM     11  C   UNL     1       0.681   9.822  18.081  0.00  0.00    +0.000 A 
ATOM     12  C   UNL     1      -0.053  10.405  19.097  0.00  0.00    +0.000 A 
ATOM     13  C   UNL     1       0.033   9.979  20.417  0.00  0.00    +0.000 A 
ATOM     14  C   UNL     1       0.875   8.942  20.756  0.00  0.00    +0.000 A 
ATOM     15  C   UNL     1      -0.839  10.807  21.293  0.00  0.00    +0.000 C 
ATOM     16  N   UNL     1      -1.433  11.724  20.353  0.00  0.00    +0.000 N 
ATOM     17  C   UNL     1      -0.992  11.531  19.061  0.00  0.00    +0.000 C 
ATOM     18  O   UNL     1      -1.307  12.169  18.076  0.00  0.00    +0.000 OA
ATOM     19  H   UNL     1      -2.071  12.472  20.585  0.00  0.00    +0.000 HD
ENDBRANCH   4   9
BRANCH   7  20
ATOM     20  C   UNL     1       3.158   2.214  17.991  0.00  0.00    +0.000 C 
ATOM     21  F   UNL     1       4.163   1.915  17.125  0.00  0.00    +0.000 F 
ATOM     22  F   UNL     1       3.289   1.311  19.009  0.00  0.00    +0.000 F 
ATOM     23  F   UNL     1       1.999   1.869  17.359  0.00  0.00    +0.000 F 
ENDBRANCH   7  20
BRANCH   1  24
ATOM     24  N   UNL     1       5.421   3.677  19.228  0.00  0.00    +0.000 N 
ATOM     25  H   UNL     1       5.609   3.418  20.195  0.00  0.00    +0.000 HD
BRANCH  24  29
ATOM     26  C   UNL     1       7.475   6.787  17.101  0.00  0.00    +0.000 C 
ATOM     27  C   UNL     1       7.942   6.477  18.525  0.00  0.00    +0.000 C 
ATOM     28  C   UNL     1       6.952   5.612  19.305  0.00  0.00    +0.000 C 
ATOM     29  C   UNL     1       6.579   4.306  18.575  0.00  0.00    +0.000 C 
ATOM     30  C   UNL     1       6.178   4.587  17.110  0.00  0.00    +0.000 C 
ATOM     31  C   UNL     1       7.170   5.479  16.364  0.00  0.00    +0.000 C 
BRANCH  26  32
ATOM     32  N   UNL     1       6.310   7.672  17.095  0.00  0.00    +0.000 NA
ATOM     33  H   UNL     1       5.970   7.791  16.140  0.00  0.00    +0.000 HD
ATOM     34  H   UNL     1       6.556   8.605  17.420  0.00  0.00    +0.000 HD
ENDBRANCH  26  32
ENDBRANCH  24  29
ENDBRANCH   1  24
TORSDOF 5
ENDMDL
MODEL 7
REMARK VINA RESULT:      -8.8      2.017      2.169
REMARK  Name = 
REMARK  5 active torsions:
REMARK  status: ('A' for Active; 'I' for Inactive)
REMARK    1  A    between atoms: N_1  and  C_2
REMARK    2  A    between atoms: C_5  and  N_6
REMARK    3  A    between atoms: N_6  and  C_7
REMARK    4  A    between atoms: N_10  and  C_11
REMARK    5  A    between atoms: C_23  and  C_24
REMARK                            x       y       z     vdW  Elec       q    Type
REMARK                         _______ _______ _______ _____ _____    ______ ____
ROOT
ATOM      1  C   UNL     1       2.809   5.249  18.461  0.00  0.00    +0.000 A 
ATOM      2  N   UNL     1       2.810   6.424  17.798  0.00  0.00    +0.000 NA
ATOM      3  C   UNL     1       2.331   7.510  18.426  0.00  0.00    +0.000 A 
ATOM      4  N   UNL     1       2.400   8.738  17.775  0.00  0.00    +0.000 N 
ATOM      5  N   UNL     1       1.829   7.472  19.667  0.00  0.00    +0.000 NA
ATOM      6  C   UNL     1       1.895   6.312  20.324  0.00  0.00    +0.000 A 
ATOM      7  C   UNL     1       2.421   5.164  19.784  0.00  0.00    +0.000 A 
ATOM      8  H   UNL     1       3.046   8.747  17.003  0.00  0.00    +0.000 HD
ENDROOT
BRANCH   4   9
ATOM      9  C   UNL     1       1.633   9.884  18.034  0.00  0.00    +0.000 A 
ATOM     10  C   UNL     1       2.259  11.104  18.378  0.00  0.00    +0.000 A 
ATOM     11  C   UNL     1       1.505  12.224  18.756  0.00  0.00    +0.000 A 
ATOM     12  C   UNL     1       0.129  12.090  18.780  0.00  0.00    +0.000 A 
ATOM     13  C   UNL     1      -0.510  10.903  18.443  0.00  0.00    +0.000 A 
ATOM     14  C   UNL     1       0.229   9.800  18.073  0.00  0.00    +0.000 A 
ATOM     15  C   UNL     1      -1.984  11.041  18.590  0.00  0.00    +0.000 C 
ATOM     16  N   UNL     1      -2.121  12.409  19.023  0.00  0.00    +0.000 N 
ATOM     17  C   UNL     1      -0.910  13.054  19.157  0.00  0.00    +0.000 C 
ATOM     18  O   UNL     1      -0.726  14.198  19.525  0.00  0.00    +0.000 OA
ATOM     19  H   UNL     1      -2.990  12.867  19.258  0.00  0.00    +0.000 HD
ENDBRANCH   4   9
BRANCH   7  20
ATOM     20  C   UNL     1       2.484   3.963  20.654  0.00  0.00    +0.000 C 
ATOM     21  F   UNL     1       3.632   3.236  20.597  0.00  0.00    +0.000 F 
ATOM     22  F   UNL     1       2.348   4.304  21.972  0.00  0.00    +0.000 F 
ATOM     23  F   UNL     1       1.468   3.087  20.409  0.00  0.00    +0.000 F 
ENDBRANCH   7  20
BRANCH   1  24
ATOM     24  N   UNL     1       3.216   4.097  17.784  0.00  0.00    +0.000 N 
ATOM     25  H   UNL     1       2.740   3.284  18.173  0.00  0.00    +0.000 HD
BRANCH  24  29
ATOM     26  C   UNL     1       7.203   5.171  16.618  0.00  0.00    +0.000 C 
ATOM     27  C   UNL     1       6.974   4.788  18.082  0.00  0.00    +0.000 C 
ATOM     28  C   UNL     1       5.496   4.754  18.468  0.00  0.00    +0.000 C 
ATOM     29  C   UNL     1       4.647   3.855  17.546  0.00  0.00    +0.000 C 
ATOM     30  C   UNL     1       4.920   4.173  16.060  0.00  0.00    +0.000 C 
ATOM     31  C   UNL     1       6.407   4.230  15.709  0.00  0.00    +0.000 C 
BRANCH  26  32
ATOM     32  N   UNL     1       6.847   6.567  16.364  0.00  0.00    +0.000 NA
ATOM     33  H   UNL     1       7.031   6.799  15.388  0.00  0.00    +0.000 HD
ATOM     34  H   UNL     1       7.425   7.200  16.913  0.00  0.00    +0.000 HD
ENDBRANCH  26  32
ENDBRANCH  24  29
ENDBRANCH   1  24
TORSDOF 5
ENDMDL
MODEL 8
REMARK VINA RESULT:      -8.8      0.917      1.369
REMARK  Name = 
REMARK  5 active torsions:
REMARK  status: ('A' for Active; 'I' for Inactive)
REMARK    1  A    between atoms: N_1  and  C_2
REMARK    2  A    between atoms: C_5  and  N_6
REMARK    3  A    between atoms: N_6  and  C_7
REMARK    4  A    between atoms: N_10  and  C_11
REMARK    5  A    between atoms: C_23  and  C_24
REMARK                            x       y       z     vdW  Elec       q    Type
REMARK                         _______ _______ _______ _____ _____    ______ ____
ROOT
ATOM      1  C   UNL     1       2.898   4.886  18.948  0.00  0.00    +0.000 A 
ATOM      2  N   UNL     1       2.768   6.214  18.746  0.00  0.00    +0.000 NA
ATOM      3  C   UNL     1       2.043   6.923  19.625  0.00  0.00    +0.000 A 
ATOM      4  N   UNL     1       1.970   8.304  19.465  0.00  0.00    +0.000 N 
ATOM      5  N   UNL     1       1.422   6.369  20.675  0.00  0.00    +0.000 NA
ATOM      6  C   UNL     1       1.615   5.065  20.887  0.00  0.00    +0.000 A 
ATOM      7  C   UNL     1       2.388   4.271  20.075  0.00  0.00    +0.000 A 
ATOM      8  H   UNL     1       2.686   8.676  18.862  0.00  0.00    +0.000 HD
ENDROOT
BRANCH   4   9
ATOM      9  C   UNL     1       0.993   9.171  19.977  0.00  0.00    +0.000 A 
ATOM     10  C   UNL     1       0.427  10.177  19.160  0.00  0.00    +0.000 A 
ATOM     11  C   UNL     1      -0.459  11.126  19.689  0.00  0.00    +0.000 A 
ATOM     12  C   UNL     1      -0.759  11.041  21.036  0.00  0.00    +0.000 A 
ATOM     13  C   UNL     1      -0.219  10.059  21.858  0.00  0.00    +0.000 A 
ATOM     14  C   UNL     1       0.655   9.127  21.342  0.00  0.00    +0.000 A 
ATOM     15  C   UNL     1      -0.690  10.231  23.259  0.00  0.00    +0.000 C 
ATOM     16  N   UNL     1      -1.552  11.382  23.152  0.00  0.00    +0.000 N 
ATOM     17  C   UNL     1      -1.611  11.892  21.872  0.00  0.00    +0.000 C 
ATOM     18  O   UNL     1      -2.238  12.864  21.499  0.00  0.00    +0.000 OA
ATOM     19  H   UNL     1      -2.039  11.825  23.917  0.00  0.00    +0.000 HD
ENDBRANCH   4   9
BRANCH   7  20
ATOM     20  C   UNL     1       2.561   2.851  20.470  0.00  0.00    +0.000 C 
ATOM     21  F   UNL     1       2.099   1.921  19.593  0.00  0.00    +0.000 F 
ATOM     22  F   UNL     1       3.883   2.547  20.642  0.00  0.00    +0.000 F 
ATOM     23  F   UNL     1       1.975   2.567  21.668  0.00  0.00    +0.000 F 
ENDBRANCH   7  20
BRANCH   1  24
ATOM     24  N   UNL     1       3.569   4.124  17.989  0.00  0.00    +0.000 N 
ATOM     25  H   UNL     1       3.996   3.312  18.433  0.00  0.00    +0.000 HD
BRANCH  24  29
ATOM     26  C   UNL     1       7.365   5.051  16.215  0.00  0.00    +0.000 C 
ATOM     27  C   UNL     1       6.348   4.298  15.355  0.00  0.00    +0.000 C 
ATOM     28  C   UNL     1       5.185   3.726  16.165  0.00  0.00    +0.000 C 
ATOM     29  C   UNL     1       4.467   4.783  17.028  0.00  0.00    +0.000 C 
ATOM     30  C   UNL     1       5.483   5.607  17.850  0.00  0.00    +0.000 C 
ATOM     31  C   UNL     1       6.651   6.141  17.020  0.00  0.00    +0.000 C 
BRANCH  26  32
ATOM     32  N   UNL     1       8.098   4.146  17.101  0.00  0.00    +0.000 NA
ATOM     33  H   UNL     1       8.850   4.652  17.569  0.00  0.00    +0.000 HD
ATOM     34  H   UNL     1       8.552   3.402  16.573  0.00  0.00    +0.000 HD
ENDBRANCH  26  32
ENDBRANCH  24  29
ENDBRANCH   1  24
TORSDOF 5
ENDMDL
MODEL 9
REMARK VINA RESULT:      -8.8      1.437      1.687
REMARK  Name = 
REMARK  5 active torsions:
REMARK  status: ('A' for Active; 'I' for Inactive)
REMARK    1  A    between atoms: N_1  and  C_2
REMARK    2  A    between atoms: C_5  and  N_6
REMARK    3  A    between atoms: N_6  and  C_7
REMARK    4  A    between atoms: N_10  and  C_11
REMARK    5  A    between atoms: C_23  and  C_24
REMARK                            x       y       z     vdW  Elec       q    Type
REMARK                         _______ _______ _______ _____ _____    ______ ____
ROOT
ATOM      1  C   UNL     1       3.495   4.432  18.686  0.00  0.00    +0.000 A 
ATOM      2  N   UNL     1       3.569   5.711  19.110  0.00  0.00    +0.000 NA
ATOM      3  C   UNL     1       2.500   6.240  19.725  0.00  0.00    +0.000 A 
ATOM      4  N   UNL     1       2.597   7.533  20.232  0.00  0.00    +0.000 N 
ATOM      5  N   UNL     1       1.358   5.566  19.912  0.00  0.00    +0.000 NA
ATOM      6  C   UNL     1       1.330   4.285  19.539  0.00  0.00    +0.000 A 
ATOM      7  C   UNL     1       2.395   3.642  18.956  0.00  0.00    +0.000 A 
ATOM      8  H   UNL     1       3.546   7.855  20.329  0.00  0.00    +0.000 HD
ENDROOT
BRANCH   4   9
ATOM      9  C   UNL     1       1.546   8.413  20.531  0.00  0.00    +0.000 A 
ATOM     10  C   UNL     1       1.005   9.251  19.529  0.00  0.00    +0.000 A 
ATOM     11  C   UNL     1       0.039  10.219  19.839  0.00  0.00    +0.000 A 
ATOM     12  C   UNL     1      -0.363  10.323  21.157  0.00  0.00    +0.000 A 
ATOM     13  C   UNL     1       0.151   9.509  22.159  0.00  0.00    +0.000 A 
ATOM     14  C   UNL     1       1.103   8.558  21.858  0.00  0.00    +0.000 A 
ATOM     15  C   UNL     1      -0.437   9.865  23.479  0.00  0.00    +0.000 C 
ATOM     16  N   UNL     1      -1.336  10.937  23.132  0.00  0.00    +0.000 N 
ATOM     17  C   UNL     1      -1.315  11.243  21.787  0.00  0.00    +0.000 C 
ATOM     18  O   UNL     1      -1.952  12.111  21.224  0.00  0.00    +0.000 OA
ATOM     19  H   UNL     1      -1.901  11.464  23.782  0.00  0.00    +0.000 HD
ENDBRANCH   4   9
BRANCH   7  20
ATOM     20  C   UNL     1       2.240   2.198  18.650  0.00  0.00    +0.000 C 
ATOM     21  F   UNL     1       3.172   1.365  19.183  0.00  0.00    +0.000 F 
ATOM     22  F   UNL     1       1.041   1.725  19.107  0.00  0.00    +0.000 F 
ATOM     23  F   UNL     1       2.230   1.946  17.309  0.00  0.00    +0.000 F 
ENDBRANCH   7  20
BRANCH   1  24
ATOM     24  N   UNL     1       4.566   3.903  17.961  0.00  0.00    +0.000 N 
ATOM     25  H   UNL     1       5.439   4.091  18.452  0.00  0.00    +0.000 HD
BRANCH  24  29
ATOM     26  C   UNL     1       6.513   5.168  14.353  0.00  0.00    +0.000 C 
ATOM     27  C   UNL     1       6.149   3.687  14.477  0.00  0.00    +0.000 C 
ATOM     28  C   UNL     1       5.778   3.279  15.903  0.00  0.00    +0.000 C 
ATOM     29  C   UNL     1       4.663   4.151  16.515  0.00  0.00    +0.000 C 
ATOM     30  C   UNL     1       4.974   5.653  16.332  0.00  0.00    +0.000 C 
ATOM     31  C   UNL     1       5.371   6.027  14.904  0.00  0.00    +0.000 C 
BRANCH  26  32
ATOM     32  N   UNL     1       7.771   5.474  15.035  0.00  0.00    +0.000 NA
ATOM     33  H   UNL     1       8.235   6.255  14.572  0.00  0.00    +0.000 HD
ATOM     34  H   UNL     1       8.420   4.691  14.977  0.00  0.00    +0.000 HD
ENDBRANCH  26  32
ENDBRANCH  24  29
ENDBRANCH   1  24
TORSDOF 5
ENDMDL
