MODEL 1
REMARK VINA RESULT:      -8.4      0.000      0.000
REMARK  Name = 
REMARK  6 active torsions:
REMARK  status: ('A' for Active; 'I' for Inactive)
REMARK    1  A    between atoms: C_1  and  C_2
REMARK    2  A    between atoms: C_4  and  N_5
REMARK    3  A    between atoms: N_8  and  C_9
REMARK    4  A    between atoms: C_18  and  N_19
REMARK    5  A    between atoms: C_20  and  C_22
REMARK    6  A    between atoms: C_26  and  C_27
REMARK                            x       y       z     vdW  Elec       q    Type
REMARK                         _______ _______ _______ _____ _____    ______ ____
ROOT
ATOM      1  C   UNL     1      10.175  12.453  21.076  0.00  0.00    +0.000 C 
ATOM      2  C   UNL     1       9.582  11.812  19.850  0.00  0.00    +0.000 A 
ATOM      3  C   UNL     1       9.386  10.418  19.899  0.00  0.00    +0.000 A 
ATOM      4  C   UNL     1       8.855   9.695  18.829  0.00  0.00    +0.000 A 
ATOM      5  C   UNL     1       8.481  10.396  17.689  0.00  0.00    +0.000 A 
ATOM      6  C   UNL     1       8.671  11.785  17.621  0.00  0.00    +0.000 A 
ATOM      7  C   UNL     1       9.211  12.515  18.693  0.00  0.00    +0.000 A 
ENDROOT
BRANCH   4   8
ATOM      8  N   UNL     1       8.700   8.290  18.846  0.00  0.00    +0.000 N 
ATOM      9  C   UNL     1       7.783   7.576  18.095  0.00  0.00    +0.000 C 
ATOM     10  O   UNL     1       6.993   8.063  17.291  0.00  0.00    +0.000 OA
ATOM     11  N   UNL     1       7.807   6.221  18.384  0.00  0.00    +0.000 N 
ATOM     12  H   UNL     1       9.277   7.768  19.490  0.00  0.00    +0.000 HD
ATOM     13  H   UNL     1       7.964   5.997  19.358  0.00  0.00    +0.000 HD
BRANCH  11  14
ATOM     14  C   UNL     1       6.929   5.338  17.706  0.00  0.00    +0.000 A 
ATOM     15  C   UNL     1       7.234   4.808  16.448  0.00  0.00    +0.000 A 
ATOM     16  C   UNL     1       6.318   3.986  15.788  0.00  0.00    +0.000 A 
ATOM     17  C   UNL     1       5.087   3.698  16.380  0.00  0.00    +0.000 A 
ATOM     18  C   UNL     1       4.778   4.219  17.636  0.00  0.00    +0.000 A 
ATOM     19  C   UNL     1       5.707   5.018  18.298  0.00  0.00    +0.000 A 
ATOM     20  F   UNL     1       5.391   5.542  19.493  0.00  0.00    +0.000 F 
ENDBRANCH  11  14
ENDBRANCH   4   8
BRANCH   7  21
ATOM     21  N   UNL     1       9.407  13.920  18.626  0.00  0.00    +0.000 N 
ATOM     22  C   UNL     1       8.448  14.860  18.276  0.00  0.00    +0.000 C 
ATOM     23  O   UNL     1       7.259  14.603  18.099  0.00  0.00    +0.000 OA
ATOM     24  H   UNL     1      10.294  14.264  18.960  0.00  0.00    +0.000 HD
BRANCH  22  25
ATOM     25  C   UNL     1       8.880  16.241  18.159  0.00  0.00    +0.000 A 
ATOM     26  C   UNL     1       8.141  17.354  18.656  0.00  0.00    +0.000 A 
ATOM     27  N   UNL     1       8.737  18.517  18.411  0.00  0.00    +0.000 NA
ATOM     28  O   UNL     1       9.890  18.193  17.723  0.00  0.00    +0.000 OA
ATOM     29  C   UNL     1       9.973  16.843  17.563  0.00  0.00    +0.000 A 
ATOM     30  C   UNL     1      11.151  16.391  16.799  0.00  0.00    +0.000 C 
ENDBRANCH  22  25
ENDBRANCH   7  21
TORSDOF 4
ENDMDL
MODEL 2
REMARK VINA RESULT:      -8.3      8.422     12.326
REMARK  Name = 
REMARK  6 active torsions:
REMARK  status: ('A' for Active; 'I' for Inactive)
REMARK    1  A    between atoms: C_1  and  C_2
REMARK    2  A    between atoms: C_4  and  N_5
REMARK    3  A    between atoms: N_8  and  C_9
REMARK    4  A    between atoms: C_18  and  N_19
REMARK    5  A    between atoms: C_20  and  C_22
REMARK    6  A    between atoms: C_26  and  C_27
REMARK                            x       y       z     vdW  Elec       q    Type
REMARK                         _______ _______ _______ _____ _____    ______ ____
ROOT
ATOM      1  C   UNL     1       2.507   8.441  17.768  0.00  0.00    +0.000 C 
ATOM      2  C   UNL     1       1.795   8.504  19.092  0.00  0.00    +0.000 A 
ATOM      3  C   UNL     1       0.910   9.584  19.282  0.00  0.00    +0.000 A 
ATOM      4  C   UNL     1       0.194   9.771  20.466  0.00  0.00    +0.000 A 
ATOM      5  C   UNL     1       0.346   8.829  21.476  0.00  0.00    +0.000 A 
ATOM      6  C   UNL     1       1.224   7.748  21.307  0.00  0.00    +0.000 A 
ATOM      7  C   UNL     1       1.951   7.560  20.120  0.00  0.00    +0.000 A 
ENDROOT
BRANCH   4   8
ATOM      8  N   UNL     1      -0.658  10.877  20.689  0.00  0.00    +0.000 N 
ATOM      9  C   UNL     1      -0.884  11.481  21.914  0.00  0.00    +0.000 C 
ATOM     10  O   UNL     1      -0.357  11.153  22.973  0.00  0.00    +0.000 OA
ATOM     11  N   UNL     1      -1.831  12.489  21.836  0.00  0.00    +0.000 N 
ATOM     12  H   UNL     1      -1.175  11.230  19.896  0.00  0.00    +0.000 HD
ATOM     13  H   UNL     1      -2.597  12.305  21.201  0.00  0.00    +0.000 HD
BRANCH  11  14
ATOM     14  C   UNL     1      -2.188  13.214  23.001  0.00  0.00    +0.000 A 
ATOM     15  C   UNL     1      -3.387  12.981  23.683  0.00  0.00    +0.000 A 
ATOM     16  C   UNL     1      -3.727  13.755  24.794  0.00  0.00    +0.000 A 
ATOM     17  C   UNL     1      -2.874  14.773  25.224  0.00  0.00    +0.000 A 
ATOM     18  C   UNL     1      -1.674  15.007  24.552  0.00  0.00    +0.000 A 
ATOM     19  C   UNL     1      -1.331  14.215  23.459  0.00  0.00    +0.000 A 
ATOM     20  F   UNL     1      -0.190  14.466  22.798  0.00  0.00    +0.000 F 
ENDBRANCH  11  14
ENDBRANCH   4   8
BRANCH   7  21
ATOM     21  N   UNL     1       2.843   6.468  19.946  0.00  0.00    +0.000 N 
ATOM     22  C   UNL     1       2.479   5.147  19.721  0.00  0.00    +0.000 C 
ATOM     23  O   UNL     1       1.327   4.772  19.519  0.00  0.00    +0.000 OA
ATOM     24  H   UNL     1       3.823   6.698  19.880  0.00  0.00    +0.000 HD
BRANCH  22  25
ATOM     25  C   UNL     1       3.544   4.161  19.682  0.00  0.00    +0.000 A 
ATOM     26  C   UNL     1       3.459   2.871  20.283  0.00  0.00    +0.000 A 
ATOM     27  N   UNL     1       4.569   2.157  20.125  0.00  0.00    +0.000 NA
ATOM     28  O   UNL     1       5.428   2.978  19.421  0.00  0.00    +0.000 OA
ATOM     29  C   UNL     1       4.825   4.173  19.165  0.00  0.00    +0.000 A 
ATOM     30  C   UNL     1       5.677   5.144  18.452  0.00  0.00    +0.000 C 
ENDBRANCH  22  25
ENDBRANCH   7  21
TORSDOF 4
ENDMDL
MODEL 3
REMARK VINA RESULT:      -8.2      8.396     12.333
REMARK  Name = 
REMARK  6 active torsions:
REMARK  status: ('A' for Active; 'I' for Inactive)
REMARK    1  A    between atoms: C_1  and  C_2
REMARK    2  A    between atoms: C_4  and  N_5
REMARK    3  A    between atoms: N_8  and  C_9
REMARK    4  A    between atoms: C_18  and  N_19
REMARK    5  A    between atoms: C_20  and  C_22
REMARK    6  A    between atoms: C_26  and  C_27
REMARK                            x       y       z     vdW  Elec       q    Type
REMARK                         _______ _______ _______ _____ _____    ______ ____
ROOT
ATOM      1  C   UNL     1       2.552   8.497  17.791  0.00  0.00    +0.000 C 
ATOM      2  C   UNL     1       1.785   8.539  19.085  0.00  0.00    +0.000 A 
ATOM      3  C   UNL     1       0.892   9.616  19.255  0.00  0.00    +0.000 A 
ATOM      4  C   UNL     1       0.126   9.783  20.411  0.00  0.00    +0.000 A 
ATOM      5  C   UNL     1       0.237   8.825  21.411  0.00  0.00    +0.000 A 
ATOM      6  C   UNL     1       1.122   7.747  21.262  0.00  0.00    +0.000 A 
ATOM      7  C   UNL     1       1.899   7.578  20.103  0.00  0.00    +0.000 A 
ENDROOT
BRANCH   4   8
ATOM      8  N   UNL     1      -0.735  10.886  20.615  0.00  0.00    +0.000 N 
ATOM      9  C   UNL     1      -0.845  11.609  21.789  0.00  0.00    +0.000 C 
ATOM     10  O   UNL     1      -0.193  11.408  22.809  0.00  0.00    +0.000 OA
ATOM     11  N   UNL     1      -1.831  12.580  21.718  0.00  0.00    +0.000 N 
ATOM     12  H   UNL     1      -1.349  11.140  19.855  0.00  0.00    +0.000 HD
ATOM     13  H   UNL     1      -2.656  12.311  21.196  0.00  0.00    +0.000 HD
BRANCH  11  14
ATOM     14  C   UNL     1      -2.082  13.415  22.836  0.00  0.00    +0.000 A 
ATOM     15  C   UNL     1      -1.194  14.424  23.224  0.00  0.00    +0.000 A 
ATOM     16  C   UNL     1      -1.450  15.188  24.364  0.00  0.00    +0.000 A 
ATOM     17  C   UNL     1      -2.592  14.941  25.128  0.00  0.00    +0.000 A 
ATOM     18  C   UNL     1      -3.485  13.941  24.744  0.00  0.00    +0.000 A 
ATOM     19  C   UNL     1      -3.235  13.199  23.592  0.00  0.00    +0.000 A 
ATOM     20  F   UNL     1      -4.082  12.217  23.245  0.00  0.00    +0.000 F 
ENDBRANCH  11  14
ENDBRANCH   4   8
BRANCH   7  21
ATOM     21  N   UNL     1       2.798   6.490  19.950  0.00  0.00    +0.000 N 
ATOM     22  C   UNL     1       2.444   5.167  19.719  0.00  0.00    +0.000 C 
ATOM     23  O   UNL     1       1.298   4.788  19.493  0.00  0.00    +0.000 OA
ATOM     24  H   UNL     1       3.778   6.723  19.905  0.00  0.00    +0.000 HD
BRANCH  22  25
ATOM     25  C   UNL     1       3.513   4.185  19.704  0.00  0.00    +0.000 A 
ATOM     26  C   UNL     1       3.409   2.883  20.277  0.00  0.00    +0.000 A 
ATOM     27  N   UNL     1       4.527   2.176  20.150  0.00  0.00    +0.000 NA
ATOM     28  O   UNL     1       5.410   3.012  19.495  0.00  0.00    +0.000 OA
ATOM     29  C   UNL     1       4.813   4.210  19.238  0.00  0.00    +0.000 A 
ATOM     30  C   UNL     1       5.689   5.197  18.578  0.00  0.00    +0.000 C 
ENDBRANCH  22  25
ENDBRANCH   7  21
TORSDOF 4
ENDMDL
MODEL 4
REMARK VINA RESULT:      -8.1      7.068     12.015
REMARK  Name = 
REMARK  6 active torsions:
REMARK  status: ('A' for Active; 'I' for Inactive)
REMARK    1  A    between atoms: C_1  and  C_2
REMARK    2  A    between atoms: C_4  and  N_5
REMARK    3  A    between atoms: N_8  and  C_9
REMARK    4  A    between atoms: C_18  and  N_19
REMARK    5  A    between atoms: C_20  and  C_22
REMARK    6  A    between atoms: C_26  and  C_27
REMARK                            x       y       z     vdW  Elec       q    Type
REMARK                         _______ _______ _______ _____ _____    ______ ____
ROOT
ATOM      1  C   UNL     1       3.622   7.407  17.258  0.00  0.00    +0.000 C 
ATOM      2  C   UNL     1       2.661   8.012  18.245  0.00  0.00    +0.000 A 
ATOM      3  C   UNL     1       2.067   9.237  17.880  0.00  0.00    +0.000 A 
ATOM      4  C   UNL     1       1.167   9.913  18.706  0.00  0.00    +0.000 A 
ATOM      5  C   UNL     1       0.829   9.327  19.919  0.00  0.00    +0.000 A 
ATOM      6  C   UNL     1       1.411   8.109  20.302  0.00  0.00    +0.000 A 
ATOM      7  C   UNL     1       2.322   7.429  19.477  0.00  0.00    +0.000 A 
ENDROOT
BRANCH   4   8
ATOM      8  N   UNL     1       0.604  11.166  18.373  0.00  0.00    +0.000 N 
ATOM      9  C   UNL     1       0.791  12.341  19.080  0.00  0.00    +0.000 C 
ATOM     10  O   UNL     1       1.491  12.462  20.081  0.00  0.00    +0.000 OA
ATOM     11  N   UNL     1       0.046  13.390  18.564  0.00  0.00    +0.000 N 
ATOM     12  H   UNL     1      -0.019  11.198  17.579  0.00  0.00    +0.000 HD
ATOM     13  H   UNL     1      -0.871  13.132  18.221  0.00  0.00    +0.000 HD
BRANCH  11  14
ATOM     14  C   UNL     1       0.115  14.670  19.168  0.00  0.00    +0.000 A 
ATOM     15  C   UNL     1      -0.887  15.144  20.021  0.00  0.00    +0.000 A 
ATOM     16  C   UNL     1      -0.809  16.433  20.553  0.00  0.00    +0.000 A 
ATOM     17  C   UNL     1       0.268  17.259  20.226  0.00  0.00    +0.000 A 
ATOM     18  C   UNL     1       1.274  16.791  19.380  0.00  0.00    +0.000 A 
ATOM     19  C   UNL     1       1.201  15.496  18.874  0.00  0.00    +0.000 A 
ATOM     20  F   UNL     1       2.156  15.062  18.036  0.00  0.00    +0.000 F 
ENDBRANCH  11  14
ENDBRANCH   4   8
BRANCH   7  21
ATOM     21  N   UNL     1       2.915   6.198  19.863  0.00  0.00    +0.000 N 
ATOM     22  C   UNL     1       2.536   4.937  19.420  0.00  0.00    +0.000 C 
ATOM     23  O   UNL     1       1.710   4.735  18.533  0.00  0.00    +0.000 OA
ATOM     24  H   UNL     1       3.748   6.260  20.428  0.00  0.00    +0.000 HD
BRANCH  22  25
ATOM     25  C   UNL     1       3.198   3.794  20.021  0.00  0.00    +0.000 A 
ATOM     26  C   UNL     1       4.477   3.309  19.619  0.00  0.00    +0.000 A 
ATOM     27  N   UNL     1       4.860   2.239  20.309  0.00  0.00    +0.000 NA
ATOM     28  O   UNL     1       3.822   1.982  21.182  0.00  0.00    +0.000 OA
ATOM     29  C   UNL     1       2.829   2.898  21.007  0.00  0.00    +0.000 A 
ATOM     30  C   UNL     1       1.647   2.686  21.865  0.00  0.00    +0.000 C 
ENDBRANCH  22  25
ENDBRANCH   7  21
TORSDOF 4
ENDMDL
MODEL 5
REMARK VINA RESULT:      -8.1      7.000     11.972
REMARK  Name = 
REMARK  6 active torsions:
REMARK  status: ('A' for Active; 'I' for Inactive)
REMARK    1  A    between atoms: C_1  and  C_2
REMARK    2  A    between atoms: C_4  and  N_5
REMARK    3  A    between atoms: N_8  and  C_9
REMARK    4  A    between atoms: C_18  and  N_19
REMARK    5  A    between atoms: C_20  and  C_22
REMARK    6  A    between atoms: C_26  and  C_27
REMARK                            x       y       z     vdW  Elec       q    Type
REMARK                         _______ _______ _______ _____ _____    ______ ____
ROOT
ATOM      1  C   UNL     1       3.564   7.404  17.243  0.00  0.00    +0.000 C 
ATOM      2  C   UNL     1       2.626   8.011  18.252  0.00  0.00    +0.000 A 
ATOM      3  C   UNL     1       2.027   9.236  17.900  0.00  0.00    +0.000 A 
ATOM      4  C   UNL     1       1.147   9.914  18.746  0.00  0.00    +0.000 A 
ATOM      5  C   UNL     1       0.834   9.328  19.967  0.00  0.00    +0.000 A 
ATOM      6  C   UNL     1       1.422   8.109  20.336  0.00  0.00    +0.000 A 
ATOM      7  C   UNL     1       2.313   7.427  19.491  0.00  0.00    +0.000 A 
ENDROOT
BRANCH   4   8
ATOM      8  N   UNL     1       0.579  11.168  18.426  0.00  0.00    +0.000 N 
ATOM      9  C   UNL     1       0.964  12.383  18.966  0.00  0.00    +0.000 C 
ATOM     10  O   UNL     1       1.870  12.541  19.779  0.00  0.00    +0.000 OA
ATOM     11  N   UNL     1       0.170  13.430  18.525  0.00  0.00    +0.000 N 
ATOM     12  H   UNL     1      -0.200  11.173  17.783  0.00  0.00    +0.000 HD
ATOM     13  H   UNL     1      -0.809  13.202  18.410  0.00  0.00    +0.000 HD
BRANCH  11  14
ATOM     14  C   UNL     1       0.424  14.749  18.980  0.00  0.00    +0.000 A 
ATOM     15  C   UNL     1       1.567  15.459  18.598  0.00  0.00    +0.000 A 
ATOM     16  C   UNL     1       1.808  16.735  19.112  0.00  0.00    +0.000 A 
ATOM     17  C   UNL     1       0.911  17.303  20.019  0.00  0.00    +0.000 A 
ATOM     18  C   UNL     1      -0.233  16.602  20.399  0.00  0.00    +0.000 A 
ATOM     19  C   UNL     1      -0.479  15.341  19.864  0.00  0.00    +0.000 A 
ATOM     20  F   UNL     1      -1.565  14.659  20.258  0.00  0.00    +0.000 F 
ENDBRANCH  11  14
ENDBRANCH   4   8
BRANCH   7  21
ATOM     21  N   UNL     1       2.913   6.195  19.863  0.00  0.00    +0.000 N 
ATOM     22  C   UNL     1       2.536   4.937  19.411  0.00  0.00    +0.000 C 
ATOM     23  O   UNL     1       1.707   4.740  18.526  0.00  0.00    +0.000 OA
ATOM     24  H   UNL     1       3.748   6.256  20.425  0.00  0.00    +0.000 HD
BRANCH  22  25
ATOM     25  C   UNL     1       3.205   3.791  19.999  0.00  0.00    +0.000 A 
ATOM     26  C   UNL     1       4.477   3.304  19.575  0.00  0.00    +0.000 A 
ATOM     27  N   UNL     1       4.869   2.232  20.257  0.00  0.00    +0.000 NA
ATOM     28  O   UNL     1       3.843   1.975  21.145  0.00  0.00    +0.000 OA
ATOM     29  C   UNL     1       2.849   2.893  20.988  0.00  0.00    +0.000 A 
ATOM     30  C   UNL     1       1.680   2.681  21.863  0.00  0.00    +0.000 C 
ENDBRANCH  22  25
ENDBRANCH   7  21
TORSDOF 4
ENDMDL
MODEL 6
REMARK VINA RESULT:      -8.1      7.256     12.044
REMARK  Name = 
REMARK  6 active torsions:
REMARK  status: ('A' for Active; 'I' for Inactive)
REMARK    1  A    between atoms: C_1  and  C_2
REMARK    2  A    between atoms: C_4  and  N_5
REMARK    3  A    between atoms: N_8  and  C_9
REMARK    4  A    between atoms: C_18  and  N_19
REMARK    5  A    between atoms: C_20  and  C_22
REMARK    6  A    between atoms: C_26  and  C_27
REMARK                            x       y       z     vdW  Elec       q    Type
REMARK                         _______ _______ _______ _____ _____    ______ ____
ROOT
ATOM      1  C   UNL     1       0.968   7.770  21.588  0.00  0.00    +0.000 C 
ATOM      2  C   UNL     1       1.357   8.354  20.257  0.00  0.00    +0.000 A 
ATOM      3  C   UNL     1       0.778   9.593  19.918  0.00  0.00    +0.000 A 
ATOM      4  C   UNL     1       1.042  10.242  18.710  0.00  0.00    +0.000 A 
ATOM      5  C   UNL     1       1.937   9.645  17.831  0.00  0.00    +0.000 A 
ATOM      6  C   UNL     1       2.522   8.410  18.149  0.00  0.00    +0.000 A 
ATOM      7  C   UNL     1       2.254   7.751  19.361  0.00  0.00    +0.000 A 
ENDROOT
BRANCH   4   8
ATOM      8  N   UNL     1       0.429  11.460  18.336  0.00  0.00    +0.000 N 
ATOM      9  C   UNL     1       0.623  12.679  18.962  0.00  0.00    +0.000 C 
ATOM     10  O   UNL     1       1.372  12.876  19.913  0.00  0.00    +0.000 OA
ATOM     11  N   UNL     1      -0.176  13.677  18.426  0.00  0.00    +0.000 N 
ATOM     12  H   UNL     1      -0.236  11.429  17.577  0.00  0.00    +0.000 HD
ATOM     13  H   UNL     1      -1.102  13.379  18.151  0.00  0.00    +0.000 HD
BRANCH  11  14
ATOM     14  C   UNL     1      -0.107  14.993  18.950  0.00  0.00    +0.000 A 
ATOM     15  C   UNL     1       0.871  15.905  18.541  0.00  0.00    +0.000 A 
ATOM     16  C   UNL     1       0.940  17.173  19.122  0.00  0.00    +0.000 A 
ATOM     17  C   UNL     1       0.034  17.533  20.122  0.00  0.00    +0.000 A 
ATOM     18  C   UNL     1      -0.948  16.630  20.530  0.00  0.00    +0.000 A 
ATOM     19  C   UNL     1      -1.025  15.376  19.930  0.00  0.00    +0.000 A 
ATOM     20  F   UNL     1      -1.952  14.501  20.349  0.00  0.00    +0.000 F 
ENDBRANCH  11  14
ENDBRANCH   4   8
BRANCH   7  21
ATOM     21  N   UNL     1       2.842   6.500  19.685  0.00  0.00    +0.000 N 
ATOM     22  C   UNL     1       2.546   5.282  19.087  0.00  0.00    +0.000 C 
ATOM     23  O   UNL     1       1.819   5.152  18.105  0.00  0.00    +0.000 OA
ATOM     24  H   UNL     1       3.612   6.523  20.335  0.00  0.00    +0.000 HD
BRANCH  22  25
ATOM     25  C   UNL     1       3.178   4.098  19.640  0.00  0.00    +0.000 A 
ATOM     26  C   UNL     1       4.461   3.618  19.242  0.00  0.00    +0.000 A 
ATOM     27  N   UNL     1       4.814   2.507  19.881  0.00  0.00    +0.000 NA
ATOM     28  O   UNL     1       3.750   2.217  20.714  0.00  0.00    +0.000 OA
ATOM     29  C   UNL     1       2.773   3.155  20.566  0.00  0.00    +0.000 A 
ATOM     30  C   UNL     1       1.568   2.912  21.382  0.00  0.00    +0.000 C 
ENDBRANCH  22  25
ENDBRANCH   7  21
TORSDOF 4
ENDMDL
MODEL 7
REMARK VINA RESULT:      -8.1      8.486     12.403
REMARK  Name = 
REMARK  6 active torsions:
REMARK  status: ('A' for Active; 'I' for Inactive)
REMARK    1  A    between atoms: C_1  and  C_2
REMARK    2  A    between atoms: C_4  and  N_5
REMARK    3  A    between atoms: N_8  and  C_9
REMARK    4  A    between atoms: C_18  and  N_19
REMARK    5  A    between atoms: C_20  and  C_22
REMARK    6  A    between atoms: C_26  and  C_27
REMARK                            x       y       z     vdW  Elec       q    Type
REMARK                         _______ _______ _______ _____ _____    ______ ____
ROOT
ATOM      1  C   UNL     1       2.210   9.034  17.801  0.00  0.00    +0.000 C 
ATOM      2  C   UNL     1       1.499   8.957  19.125  0.00  0.00    +0.000 A 
ATOM      3  C   UNL     1       0.488   9.911  19.356  0.00  0.00    +0.000 A 
ATOM      4  C   UNL     1      -0.242   9.961  20.545  0.00  0.00    +0.000 A 
ATOM      5  C   UNL     1       0.028   9.006  21.517  0.00  0.00    +0.000 A 
ATOM      6  C   UNL     1       1.032   8.049  21.307  0.00  0.00    +0.000 A 
ATOM      7  C   UNL     1       1.773   7.999  20.115  0.00  0.00    +0.000 A 
ENDROOT
BRANCH   4   8
ATOM      8  N   UNL     1      -1.223  10.944  20.809  0.00  0.00    +0.000 N 
ATOM      9  C   UNL     1      -1.163  11.883  21.825  0.00  0.00    +0.000 C 
ATOM     10  O   UNL     1      -0.238  12.006  22.622  0.00  0.00    +0.000 OA
ATOM     11  N   UNL     1      -2.309  12.661  21.889  0.00  0.00    +0.000 N 
ATOM     12  H   UNL     1      -2.055  10.934  20.236  0.00  0.00    +0.000 HD
ATOM     13  H   UNL     1      -3.170  12.168  21.690  0.00  0.00    +0.000 HD
BRANCH  11  14
ATOM     14  C   UNL     1      -2.419  13.674  22.875  0.00  0.00    +0.000 A 
ATOM     15  C   UNL     1      -1.786  14.914  22.739  0.00  0.00    +0.000 A 
ATOM     16  C   UNL     1      -1.873  15.865  23.758  0.00  0.00    +0.000 A 
ATOM     17  C   UNL     1      -2.587  15.577  24.923  0.00  0.00    +0.000 A 
ATOM     18  C   UNL     1      -3.225  14.345  25.062  0.00  0.00    +0.000 A 
ATOM     19  C   UNL     1      -3.154  13.411  24.031  0.00  0.00    +0.000 A 
ATOM     20  F   UNL     1      -3.744  12.215  24.185  0.00  0.00    +0.000 F 
ENDBRANCH  11  14
ENDBRANCH   4   8
BRANCH   7  21
ATOM     21  N   UNL     1       2.792   7.034  19.900  0.00  0.00    +0.000 N 
ATOM     22  C   UNL     1       2.594   5.700  19.567  0.00  0.00    +0.000 C 
ATOM     23  O   UNL     1       1.501   5.212  19.291  0.00  0.00    +0.000 OA
ATOM     24  H   UNL     1       3.740   7.378  19.891  0.00  0.00    +0.000 HD
BRANCH  22  25
ATOM     25  C   UNL     1       3.768   4.849  19.500  0.00  0.00    +0.000 A 
ATOM     26  C   UNL     1       5.085   5.324  19.230  0.00  0.00    +0.000 A 
ATOM     27  N   UNL     1       5.987   4.348  19.205  0.00  0.00    +0.000 NA
ATOM     28  O   UNL     1       5.273   3.190  19.444  0.00  0.00    +0.000 OA
ATOM     29  C   UNL     1       3.953   3.484  19.611  0.00  0.00    +0.000 A 
ATOM     30  C   UNL     1       3.091   2.306  19.829  0.00  0.00    +0.000 C 
ENDBRANCH  22  25
ENDBRANCH   7  21
TORSDOF 4
ENDMDL
MODEL 8
REMARK VINA RESULT:      -8.0      7.196     12.069
REMARK  Name = 
REMARK  6 active torsions:
REMARK  status: ('A' for Active; 'I' for Inactive)
REMARK    1  A    between atoms: C_1  and  C_2
REMARK    2  A    between atoms: C_4  and  N_5
REMARK    3  A    between atoms: N_8  and  C_9
REMARK    4  A    between atoms: C_18  and  N_19
REMARK    5  A    between atoms: C_20  and  C_22
REMARK    6  A    between atoms: C_26  and  C_27
REMARK                            x       y       z     vdW  Elec       q    Type
REMARK                         _______ _______ _______ _____ _____    ______ ____
ROOT
ATOM      1  C   UNL     1       0.928   7.813  21.588  0.00  0.00    +0.000 C 
ATOM      2  C   UNL     1       1.345   8.392  20.263  0.00  0.00    +0.000 A 
ATOM      3  C   UNL     1       0.794   9.642  19.919  0.00  0.00    +0.000 A 
ATOM      4  C   UNL     1       1.085  10.288  18.716  0.00  0.00    +0.000 A 
ATOM      5  C   UNL     1       1.981   9.676  17.848  0.00  0.00    +0.000 A 
ATOM      6  C   UNL     1       2.540   8.430  18.171  0.00  0.00    +0.000 A 
ATOM      7  C   UNL     1       2.244   7.774  19.378  0.00  0.00    +0.000 A 
ENDROOT
BRANCH   4   8
ATOM      8  N   UNL     1       0.500  11.517  18.336  0.00  0.00    +0.000 N 
ATOM      9  C   UNL     1       0.617  12.708  19.032  0.00  0.00    +0.000 C 
ATOM     10  O   UNL     1       1.264  12.867  20.062  0.00  0.00    +0.000 OA
ATOM     11  N   UNL     1      -0.135  13.724  18.463  0.00  0.00    +0.000 N 
ATOM     12  H   UNL     1      -0.085  11.517  17.513  0.00  0.00    +0.000 HD
ATOM     13  H   UNL     1      -1.026  13.433  18.082  0.00  0.00    +0.000 HD
BRANCH  11  14
ATOM     14  C   UNL     1      -0.134  15.016  19.048  0.00  0.00    +0.000 A 
ATOM     15  C   UNL     1      -1.183  15.464  19.858  0.00  0.00    +0.000 A 
ATOM     16  C   UNL     1      -1.171  16.763  20.371  0.00  0.00    +0.000 A 
ATOM     17  C   UNL     1      -0.114  17.624  20.068  0.00  0.00    +0.000 A 
ATOM     18  C   UNL     1       0.937  17.181  19.265  0.00  0.00    +0.000 A 
ATOM     19  C   UNL     1       0.930  15.877  18.778  0.00  0.00    +0.000 A 
ATOM     20  F   UNL     1       1.929  15.467  17.981  0.00  0.00    +0.000 F 
ENDBRANCH  11  14
ENDBRANCH   4   8
BRANCH   7  21
ATOM     21  N   UNL     1       2.804   6.512  19.708  0.00  0.00    +0.000 N 
ATOM     22  C   UNL     1       2.543   5.311  19.062  0.00  0.00    +0.000 C 
ATOM     23  O   UNL     1       1.880   5.210  18.032  0.00  0.00    +0.000 OA
ATOM     24  H   UNL     1       3.531   6.514  20.407  0.00  0.00    +0.000 HD
BRANCH  22  25
ATOM     25  C   UNL     1       3.133   4.110  19.624  0.00  0.00    +0.000 A 
ATOM     26  C   UNL     1       4.416   3.605  19.261  0.00  0.00    +0.000 A 
ATOM     27  N   UNL     1       4.726   2.483  19.902  0.00  0.00    +0.000 NA
ATOM     28  O   UNL     1       3.633   2.210  20.700  0.00  0.00    +0.000 OA
ATOM     29  C   UNL     1       2.681   3.169  20.530  0.00  0.00    +0.000 A 
ATOM     30  C   UNL     1       1.447   2.947  21.309  0.00  0.00    +0.000 C 
ENDBRANCH  22  25
ENDBRANCH   7  21
TORSDOF 4
ENDMDL
MODEL 9
REMARK VINA RESULT:      -8.0      8.949     10.040
REMARK  Name = 
REMARK  6 active torsions:
REMARK  status: ('A' for Active; 'I' for Inactive)
REMARK    1  A    between atoms: C_1  and  C_2
REMARK    2  A    between atoms: C_4  and  N_5
REMARK    3  A    between atoms: N_8  and  C_9
REMARK    4  A    between atoms: C_18  and  N_19
REMARK    5  A    between atoms: C_20  and  C_22
REMARK    6  A    between atoms: C_26  and  C_27
REMARK                            x       y       z     vdW  Elec       q    Type
REMARK                         _______ _______ _______ _____ _____    ______ ____
ROOT
ATOM      1  C   UNL     1      -0.945  11.647  19.651  0.00  0.00    +0.000 C 
ATOM      2  C   UNL     1      -0.429  10.788  20.774  0.00  0.00    +0.000 A 
ATOM      3  C   UNL     1       0.534   9.817  20.435  0.00  0.00    +0.000 A 
ATOM      4  C   UNL     1       1.088   8.947  21.376  0.00  0.00    +0.000 A 
ATOM      5  C   UNL     1       0.688   9.077  22.700  0.00  0.00    +0.000 A 
ATOM      6  C   UNL     1      -0.271  10.036  23.057  0.00  0.00    +0.000 A 
ATOM      7  C   UNL     1      -0.836  10.909  22.113  0.00  0.00    +0.000 A 
ENDROOT
BRANCH   4   8
ATOM      8  N   UNL     1       2.017   7.935  21.040  0.00  0.00    +0.000 N 
ATOM      9  C   UNL     1       1.692   6.673  20.575  0.00  0.00    +0.000 C 
ATOM     10  O   UNL     1       0.554   6.265  20.367  0.00  0.00    +0.000 OA
ATOM     11  N   UNL     1       2.810   5.870  20.411  0.00  0.00    +0.000 N 
ATOM     12  H   UNL     1       2.995   8.135  21.192  0.00  0.00    +0.000 HD
ATOM     13  H   UNL     1       3.530   5.994  21.111  0.00  0.00    +0.000 HD
BRANCH  11  14
ATOM     14  C   UNL     1       2.662   4.540  19.942  0.00  0.00    +0.000 A 
ATOM     15  C   UNL     1       2.732   4.220  18.582  0.00  0.00    +0.000 A 
ATOM     16  C   UNL     1       2.524   2.906  18.155  0.00  0.00    +0.000 A 
ATOM     17  C   UNL     1       2.237   1.907  19.087  0.00  0.00    +0.000 A 
ATOM     18  C   UNL     1       2.171   2.219  20.445  0.00  0.00    +0.000 A 
ATOM     19  C   UNL     1       2.402   3.526  20.865  0.00  0.00    +0.000 A 
ATOM     20  F   UNL     1       2.306   3.825  22.169  0.00  0.00    +0.000 F 
ENDBRANCH  11  14
ENDBRANCH   4   8
BRANCH   7  21
ATOM     21  N   UNL     1      -1.809  11.880  22.470  0.00  0.00    +0.000 N 
ATOM     22  C   UNL     1      -1.562  13.077  23.128  0.00  0.00    +0.000 C 
ATOM     23  O   UNL     1      -0.440  13.510  23.378  0.00  0.00    +0.000 OA
ATOM     24  H   UNL     1      -2.743  11.725  22.122  0.00  0.00    +0.000 HD
BRANCH  22  25
ATOM     25  C   UNL     1      -2.712  13.881  23.502  0.00  0.00    +0.000 A 
ATOM     26  C   UNL     1      -2.825  15.279  23.244  0.00  0.00    +0.000 A 
ATOM     27  N   UNL     1      -3.964  15.793  23.698  0.00  0.00    +0.000 NA
ATOM     28  O   UNL     1      -4.628  14.735  24.287  0.00  0.00    +0.000 OA
ATOM     29  C   UNL     1      -3.882  13.600  24.180  0.00  0.00    +0.000 A 
ATOM     30  C   UNL     1      -4.484  12.414  24.820  0.00  0.00    +0.000 C 
ENDBRANCH  22  25
ENDBRANCH   7  21
TORSDOF 4
ENDMDL
