MODEL 1
REMARK VINA RESULT:      -6.8      0.000      0.000
REMARK  Name = 
REMARK  2 active torsions:
REMARK  status: ('A' for Active; 'I' for Inactive)
REMARK    1  A    between atoms: N_3  and  C_4
REMARK    2  A    between atoms: C_4  and  N_5
REMARK                            x       y       z     vdW  Elec       q    Type
REMARK                         _______ _______ _______ _____ _____    ______ ____
ROOT
ATOM      1  O   UNL     1       4.205   2.564  17.962  0.00  0.00    +0.000 OA
ATOM      2  C   UNL     1       3.804   3.719  18.096  0.00  0.00    +0.000 C 
ATOM      3  N   UNL     1       4.317   4.846  17.442  0.00  0.00    +0.000 N 
ATOM      4  C   UNL     1       3.617   6.011  17.828  0.00  0.00    +0.000 A 
ATOM      5  C   UNL     1       3.765   7.313  17.381  0.00  0.00    +0.000 A 
ATOM      6  C   UNL     1       2.903   8.292  17.896  0.00  0.00    +0.000 A 
ATOM      7  C   UNL     1       1.934   7.971  18.854  0.00  0.00    +0.000 A 
ATOM      8  C   UNL     1       1.797   6.657  19.301  0.00  0.00    +0.000 A 
ATOM      9  C   UNL     1       2.631   5.681  18.768  0.00  0.00    +0.000 A 
ATOM     10  C   UNL     1       2.629   4.196  18.995  0.00  0.00    +0.000 C 
ATOM     11  S   UNL     1       1.068   3.449  18.402  0.00  0.00    +0.000 S 
ATOM     12  C   UNL     1       0.855   2.309  19.786  0.00  0.00    +0.000 C 
ATOM     13  C   UNL     1       1.306   3.020  21.047  0.00  0.00    +0.000 C 
ATOM     14  S   UNL     1       2.936   3.744  20.734  0.00  0.00    +0.000 S 
ENDROOT
BRANCH   3  15
ATOM     15  C   UNL     1       5.450   4.801  16.550  0.00  0.00    +0.000 C 
BRANCH  15  16
ATOM     16  N   UNL     1       6.540   5.468  17.200  0.00  0.00    +0.000 NA
ATOM     17  C   UNL     1       7.386   4.771  18.156  0.00  0.00    +0.000 C 
ATOM     18  C   UNL     1       7.848   5.789  19.220  0.00  0.00    +0.000 C 
ATOM     19  O   UNL     1       8.377   7.006  18.658  0.00  0.00    +0.000 OA
ATOM     20  C   UNL     1       7.507   7.568  17.663  0.00  0.00    +0.000 C 
ATOM     21  C   UNL     1       7.242   6.552  16.545  0.00  0.00    +0.000 C 
ENDBRANCH  15  16
ENDBRANCH   3  15
TORSDOF 2
ENDMDL
MODEL 2
REMARK VINA RESULT:      -6.4      1.335      1.876
REMARK  Name = 
REMARK  2 active torsions:
REMARK  status: ('A' for Active; 'I' for Inactive)
REMARK    1  A    between atoms: N_3  and  C_4
REMARK    2  A    between atoms: C_4  and  N_5
REMARK                            x       y       z     vdW  Elec       q    Type
REMARK                         _______ _______ _______ _____ _____    ______ ____
ROOT
ATOM      1  O   UNL     1       3.994   3.739  17.104  0.00  0.00    +0.000 OA
ATOM      2  C   UNL     1       3.473   4.594  17.818  0.00  0.00    +0.000 C 
ATOM      3  N   UNL     1       3.564   5.981  17.635  0.00  0.00    +0.000 N 
ATOM      4  C   UNL     1       2.841   6.666  18.636  0.00  0.00    +0.000 A 
ATOM      5  C   UNL     1       2.627   8.025  18.791  0.00  0.00    +0.000 A 
ATOM      6  C   UNL     1       1.824   8.453  19.857  0.00  0.00    +0.000 A 
ATOM      7  C   UNL     1       1.270   7.536  20.760  0.00  0.00    +0.000 A 
ATOM      8  C   UNL     1       1.496   6.169  20.598  0.00  0.00    +0.000 A 
ATOM      9  C   UNL     1       2.267   5.743  19.522  0.00  0.00    +0.000 A 
ATOM     10  C   UNL     1       2.578   4.346  19.064  0.00  0.00    +0.000 C 
ATOM     11  S   UNL     1       1.053   3.474  18.555  0.00  0.00    +0.000 S 
ATOM     12  C   UNL     1       1.474   1.885  19.303  0.00  0.00    +0.000 C 
ATOM     13  C   UNL     1       2.177   2.162  20.617  0.00  0.00    +0.000 C 
ATOM     14  S   UNL     1       3.486   3.376  20.313  0.00  0.00    +0.000 S 
ENDROOT
BRANCH   3  15
ATOM     15  C   UNL     1       4.351   6.596  16.594  0.00  0.00    +0.000 C 
BRANCH  15  16
ATOM     16  N   UNL     1       5.646   5.981  16.610  0.00  0.00    +0.000 NA
ATOM     17  C   UNL     1       6.266   5.502  15.385  0.00  0.00    +0.000 C 
ATOM     18  C   UNL     1       7.123   4.266  15.732  0.00  0.00    +0.000 C 
ATOM     19  O   UNL     1       7.996   4.471  16.859  0.00  0.00    +0.000 OA
ATOM     20  C   UNL     1       7.304   5.029  17.989  0.00  0.00    +0.000 C 
ATOM     21  C   UNL     1       6.629   6.351  17.607  0.00  0.00    +0.000 C 
ENDBRANCH  15  16
ENDBRANCH   3  15
TORSDOF 2
ENDMDL
MODEL 3
REMARK VINA RESULT:      -6.1      1.727      2.374
REMARK  Name = 
REMARK  2 active torsions:
REMARK  status: ('A' for Active; 'I' for Inactive)
REMARK    1  A    between atoms: N_3  and  C_4
REMARK    2  A    between atoms: C_4  and  N_5
REMARK                            x       y       z     vdW  Elec       q    Type
REMARK                         _______ _______ _______ _____ _____    ______ ____
ROOT
ATOM      1  O   UNL     1       4.922   2.673  19.330  0.00  0.00    +0.000 OA
ATOM      2  C   UNL     1       4.428   3.758  19.030  0.00  0.00    +0.000 C 
ATOM      3  N   UNL     1       5.080   4.795  18.349  0.00  0.00    +0.000 N 
ATOM      4  C   UNL     1       4.215   5.896  18.168  0.00  0.00    +0.000 A 
ATOM      5  C   UNL     1       4.440   7.089  17.502  0.00  0.00    +0.000 A 
ATOM      6  C   UNL     1       3.388   8.014  17.426  0.00  0.00    +0.000 A 
ATOM      7  C   UNL     1       2.149   7.752  18.025  0.00  0.00    +0.000 A 
ATOM      8  C   UNL     1       1.935   6.549  18.698  0.00  0.00    +0.000 A 
ATOM      9  C   UNL     1       2.969   5.620  18.747  0.00  0.00    +0.000 A 
ATOM     10  C   UNL     1       2.973   4.227  19.310  0.00  0.00    +0.000 C 
ATOM     11  S   UNL     1       1.803   3.154  18.402  0.00  0.00    +0.000 S 
ATOM     12  C   UNL     1       1.153   2.297  19.852  0.00  0.00    +0.000 C 
ATOM     13  C   UNL     1       1.047   3.305  20.979  0.00  0.00    +0.000 C 
ATOM     14  S   UNL     1       2.626   4.184  21.099  0.00  0.00    +0.000 S 
ENDROOT
BRANCH   3  15
ATOM     15  C   UNL     1       6.467   4.739  17.956  0.00  0.00    +0.000 C 
BRANCH  15  16
ATOM     16  N   UNL     1       6.507   4.517  16.540  0.00  0.00    +0.000 NA
ATOM     17  C   UNL     1       7.694   4.835  15.762  0.00  0.00    +0.000 C 
ATOM     18  C   UNL     1       7.240   5.279  14.355  0.00  0.00    +0.000 C 
ATOM     19  O   UNL     1       6.292   4.381  13.748  0.00  0.00    +0.000 OA
ATOM     20  C   UNL     1       5.204   4.061  14.629  0.00  0.00    +0.000 C 
ATOM     21  C   UNL     1       5.730   3.455  15.936  0.00  0.00    +0.000 C 
ENDBRANCH  15  16
ENDBRANCH   3  15
TORSDOF 2
ENDMDL
MODEL 4
REMARK VINA RESULT:      -6.1      2.613      5.198
REMARK  Name = 
REMARK  2 active torsions:
REMARK  status: ('A' for Active; 'I' for Inactive)
REMARK    1  A    between atoms: N_3  and  C_4
REMARK    2  A    between atoms: C_4  and  N_5
REMARK                            x       y       z     vdW  Elec       q    Type
REMARK                         _______ _______ _______ _____ _____    ______ ____
ROOT
ATOM      1  O   UNL     1       4.229   2.616  17.170  0.00  0.00    +0.000 OA
ATOM      2  C   UNL     1       3.967   3.813  17.274  0.00  0.00    +0.000 C 
ATOM      3  N   UNL     1       2.766   4.350  17.757  0.00  0.00    +0.000 N 
ATOM      4  C   UNL     1       2.807   5.761  17.743  0.00  0.00    +0.000 A 
ATOM      5  C   UNL     1       1.863   6.672  18.185  0.00  0.00    +0.000 A 
ATOM      6  C   UNL     1       2.169   8.038  18.101  0.00  0.00    +0.000 A 
ATOM      7  C   UNL     1       3.387   8.475  17.564  0.00  0.00    +0.000 A 
ATOM      8  C   UNL     1       4.329   7.549  17.118  0.00  0.00    +0.000 A 
ATOM      9  C   UNL     1       4.038   6.194  17.229  0.00  0.00    +0.000 A 
ATOM     10  C   UNL     1       4.902   5.004  16.923  0.00  0.00    +0.000 C 
ATOM     11  S   UNL     1       6.370   4.967  18.014  0.00  0.00    +0.000 S 
ATOM     12  C   UNL     1       7.550   4.464  16.743  0.00  0.00    +0.000 C 
ATOM     13  C   UNL     1       7.174   5.169  15.455  0.00  0.00    +0.000 C 
ATOM     14  S   UNL     1       5.402   4.922  15.172  0.00  0.00    +0.000 S 
ENDROOT
BRANCH   3  15
ATOM     15  C   UNL     1       1.634   3.544  18.146  0.00  0.00    +0.000 C 
BRANCH  15  16
ATOM     16  N   UNL     1       1.817   3.175  19.519  0.00  0.00    +0.000 NA
ATOM     17  C   UNL     1       1.072   3.832  20.581  0.00  0.00    +0.000 C 
ATOM     18  C   UNL     1       1.965   3.877  21.839  0.00  0.00    +0.000 C 
ATOM     19  O   UNL     1       2.564   2.607  22.162  0.00  0.00    +0.000 OA
ATOM     20  C   UNL     1       3.200   2.000  21.026  0.00  0.00    +0.000 C 
ATOM     21  C   UNL     1       2.197   1.825  19.879  0.00  0.00    +0.000 C 
ENDBRANCH  15  16
ENDBRANCH   3  15
TORSDOF 2
ENDMDL
MODEL 5
REMARK VINA RESULT:      -6.0      1.395      1.832
REMARK  Name = 
REMARK  2 active torsions:
REMARK  status: ('A' for Active; 'I' for Inactive)
REMARK    1  A    between atoms: N_3  and  C_4
REMARK    2  A    between atoms: C_4  and  N_5
REMARK                            x       y       z     vdW  Elec       q    Type
REMARK                         _______ _______ _______ _____ _____    ______ ____
ROOT
ATOM      1  O   UNL     1       4.826   2.592  20.034  0.00  0.00    +0.000 OA
ATOM      2  C   UNL     1       4.324   3.607  19.555  0.00  0.00    +0.000 C 
ATOM      3  N   UNL     1       5.000   4.800  19.269  0.00  0.00    +0.000 N 
ATOM      4  C   UNL     1       4.118   5.757  18.723  0.00  0.00    +0.000 A 
ATOM      5  C   UNL     1       4.385   7.032  18.254  0.00  0.00    +0.000 A 
ATOM      6  C   UNL     1       3.327   7.775  17.711  0.00  0.00    +0.000 A 
ATOM      7  C   UNL     1       2.027   7.255  17.664  0.00  0.00    +0.000 A 
ATOM      8  C   UNL     1       1.767   5.971  18.144  0.00  0.00    +0.000 A 
ATOM      9  C   UNL     1       2.823   5.223  18.653  0.00  0.00    +0.000 A 
ATOM     10  C   UNL     1       2.840   3.800  19.135  0.00  0.00    +0.000 C 
ATOM     11  S   UNL     1       2.438   2.648  17.772  0.00  0.00    +0.000 S 
ATOM     12  C   UNL     1       1.381   1.552  18.742  0.00  0.00    +0.000 C 
ATOM     13  C   UNL     1       0.585   2.410  19.707  0.00  0.00    +0.000 C 
ATOM     14  S   UNL     1       1.736   3.519  20.558  0.00  0.00    +0.000 S 
ENDROOT
BRANCH   3  15
ATOM     15  C   UNL     1       6.397   5.013  19.563  0.00  0.00    +0.000 C 
BRANCH  15  16
ATOM     16  N   UNL     1       7.021   5.499  18.368  0.00  0.00    +0.000 NA
ATOM     17  C   UNL     1       7.854   6.692  18.386  0.00  0.00    +0.000 C 
ATOM     18  C   UNL     1       7.698   7.407  17.027  0.00  0.00    +0.000 C 
ATOM     19  O   UNL     1       7.853   6.529  15.896  0.00  0.00    +0.000 OA
ATOM     20  C   UNL     1       7.056   5.340  16.016  0.00  0.00    +0.000 C 
ATOM     21  C   UNL     1       7.400   4.589  17.307  0.00  0.00    +0.000 C 
ENDBRANCH  15  16
ENDBRANCH   3  15
TORSDOF 2
ENDMDL
MODEL 6
REMARK VINA RESULT:      -5.8      2.868      5.353
REMARK  Name = 
REMARK  2 active torsions:
REMARK  status: ('A' for Active; 'I' for Inactive)
REMARK    1  A    between atoms: N_3  and  C_4
REMARK    2  A    between atoms: C_4  and  N_5
REMARK                            x       y       z     vdW  Elec       q    Type
REMARK                         _______ _______ _______ _____ _____    ______ ____
ROOT
ATOM      1  O   UNL     1       4.512   7.304  16.977  0.00  0.00    +0.000 OA
ATOM      2  C   UNL     1       4.082   6.246  17.431  0.00  0.00    +0.000 C 
ATOM      3  N   UNL     1       2.740   5.961  17.716  0.00  0.00    +0.000 N 
ATOM      4  C   UNL     1       2.602   4.650  18.221  0.00  0.00    +0.000 A 
ATOM      5  C   UNL     1       1.454   3.959  18.570  0.00  0.00    +0.000 A 
ATOM      6  C   UNL     1       1.586   2.634  19.009  0.00  0.00    +0.000 A 
ATOM      7  C   UNL     1       2.845   2.028  19.116  0.00  0.00    +0.000 A 
ATOM      8  C   UNL     1       3.995   2.735  18.766  0.00  0.00    +0.000 A 
ATOM      9  C   UNL     1       3.861   4.039  18.302  0.00  0.00    +0.000 A 
ATOM     10  C   UNL     1       4.910   4.975  17.772  0.00  0.00    +0.000 C 
ATOM     11  S   UNL     1       5.662   4.311  16.242  0.00  0.00    +0.000 S 
ATOM     12  C   UNL     1       7.361   4.777  16.638  0.00  0.00    +0.000 C 
ATOM     13  C   UNL     1       7.566   4.568  18.125  0.00  0.00    +0.000 C 
ATOM     14  S   UNL     1       6.197   5.368  19.001  0.00  0.00    +0.000 S 
ENDROOT
BRANCH   3  15
ATOM     15  C   UNL     1       1.674   6.921  17.564  0.00  0.00    +0.000 C 
BRANCH  15  16
ATOM     16  N   UNL     1       1.693   7.776  18.715  0.00  0.00    +0.000 NA
ATOM     17  C   UNL     1       2.142   7.286  20.008  0.00  0.00    +0.000 C 
ATOM     18  C   UNL     1       1.343   8.020  21.105  0.00  0.00    +0.000 C 
ATOM     19  O   UNL     1       1.311   9.450  20.931  0.00  0.00    +0.000 OA
ATOM     20  C   UNL     1       0.940   9.829  19.596  0.00  0.00    +0.000 C 
ATOM     21  C   UNL     1       1.896   9.202  18.574  0.00  0.00    +0.000 C 
ENDBRANCH  15  16
ENDBRANCH   3  15
TORSDOF 2
ENDMDL
MODEL 7
REMARK VINA RESULT:      -5.7      1.655      2.263
REMARK  Name = 
REMARK  2 active torsions:
REMARK  status: ('A' for Active; 'I' for Inactive)
REMARK    1  A    between atoms: N_3  and  C_4
REMARK    2  A    between atoms: C_4  and  N_5
REMARK                            x       y       z     vdW  Elec       q    Type
REMARK                         _______ _______ _______ _____ _____    ______ ____
ROOT
ATOM      1  O   UNL     1       4.887   2.594  19.192  0.00  0.00    +0.000 OA
ATOM      2  C   UNL     1       4.396   3.697  18.957  0.00  0.00    +0.000 C 
ATOM      3  N   UNL     1       5.032   4.753  18.292  0.00  0.00    +0.000 N 
ATOM      4  C   UNL     1       4.174   5.871  18.193  0.00  0.00    +0.000 A 
ATOM      5  C   UNL     1       4.386   7.088  17.567  0.00  0.00    +0.000 A 
ATOM      6  C   UNL     1       3.344   8.026  17.572  0.00  0.00    +0.000 A 
ATOM      7  C   UNL     1       2.128   7.754  18.213  0.00  0.00    +0.000 A 
ATOM      8  C   UNL     1       1.927   6.527  18.844  0.00  0.00    +0.000 A 
ATOM      9  C   UNL     1       2.949   5.585  18.812  0.00  0.00    +0.000 A 
ATOM     10  C   UNL     1       2.960   4.170  19.317  0.00  0.00    +0.000 C 
ATOM     11  S   UNL     1       1.739   3.148  18.416  0.00  0.00    +0.000 S 
ATOM     12  C   UNL     1       1.139   2.239  19.856  0.00  0.00    +0.000 C 
ATOM     13  C   UNL     1       1.094   3.201  21.027  0.00  0.00    +0.000 C 
ATOM     14  S   UNL     1       2.687   4.057  21.116  0.00  0.00    +0.000 S 
ENDROOT
BRANCH   3  15
ATOM     15  C   UNL     1       6.400   4.699  17.838  0.00  0.00    +0.000 C 
BRANCH  15  16
ATOM     16  N   UNL     1       6.382   4.692  16.405  0.00  0.00    +0.000 NA
ATOM     17  C   UNL     1       5.327   4.013  15.670  0.00  0.00    +0.000 C 
ATOM     18  C   UNL     1       5.929   3.470  14.357  0.00  0.00    +0.000 C 
ATOM     19  O   UNL     1       6.696   4.450  13.629  0.00  0.00    +0.000 OA
ATOM     20  C   UNL     1       7.649   5.125  14.465  0.00  0.00    +0.000 C 
ATOM     21  C   UNL     1       6.946   5.793  15.652  0.00  0.00    +0.000 C 
ENDBRANCH  15  16
ENDBRANCH   3  15
TORSDOF 2
ENDMDL
MODEL 8
REMARK VINA RESULT:      -5.7      2.414      5.457
REMARK  Name = 
REMARK  2 active torsions:
REMARK  status: ('A' for Active; 'I' for Inactive)
REMARK    1  A    between atoms: N_3  and  C_4
REMARK    2  A    between atoms: C_4  and  N_5
REMARK                            x       y       z     vdW  Elec       q    Type
REMARK                         _______ _______ _______ _____ _____    ______ ____
ROOT
ATOM      1  O   UNL     1       5.684   3.564  18.948  0.00  0.00    +0.000 OA
ATOM      2  C   UNL     1       4.995   4.565  18.757  0.00  0.00    +0.000 C 
ATOM      3  N   UNL     1       3.917   4.981  19.549  0.00  0.00    +0.000 N 
ATOM      4  C   UNL     1       3.355   6.173  19.043  0.00  0.00    +0.000 A 
ATOM      5  C   UNL     1       2.323   6.943  19.551  0.00  0.00    +0.000 A 
ATOM      6  C   UNL     1       1.980   8.123  18.875  0.00  0.00    +0.000 A 
ATOM      7  C   UNL     1       2.645   8.504  17.703  0.00  0.00    +0.000 A 
ATOM      8  C   UNL     1       3.680   7.719  17.196  0.00  0.00    +0.000 A 
ATOM      9  C   UNL     1       4.040   6.566  17.884  0.00  0.00    +0.000 A 
ATOM     10  C   UNL     1       5.167   5.608  17.618  0.00  0.00    +0.000 C 
ATOM     11  S   UNL     1       6.785   6.442  17.796  0.00  0.00    +0.000 S 
ATOM     12  C   UNL     1       7.569   5.665  16.367  0.00  0.00    +0.000 C 
ATOM     13  C   UNL     1       6.526   5.545  15.274  0.00  0.00    +0.000 C 
ATOM     14  S   UNL     1       5.040   4.798  15.990  0.00  0.00    +0.000 S 
ENDROOT
BRANCH   3  15
ATOM     15  C   UNL     1       3.430   4.236  20.684  0.00  0.00    +0.000 C 
BRANCH  15  16
ATOM     16  N   UNL     1       2.385   3.372  20.220  0.00  0.00    +0.000 NA
ATOM     17  C   UNL     1       2.682   2.055  19.681  0.00  0.00    +0.000 C 
ATOM     18  C   UNL     1       1.638   1.735  18.590  0.00  0.00    +0.000 C 
ATOM     19  O   UNL     1       0.280   1.969  19.010  0.00  0.00    +0.000 OA
ATOM     20  C   UNL     1       0.110   3.265  19.608  0.00  0.00    +0.000 C 
ATOM     21  C   UNL     1       1.060   3.435  20.800  0.00  0.00    +0.000 C 
ENDBRANCH  15  16
ENDBRANCH   3  15
TORSDOF 2
ENDMDL
MODEL 9
REMARK VINA RESULT:      -5.7      2.706      5.245
REMARK  Name = 
REMARK  2 active torsions:
REMARK  status: ('A' for Active; 'I' for Inactive)
REMARK    1  A    between atoms: N_3  and  C_4
REMARK    2  A    between atoms: C_4  and  N_5
REMARK                            x       y       z     vdW  Elec       q    Type
REMARK                         _______ _______ _______ _____ _____    ______ ____
ROOT
ATOM      1  O   UNL     1       4.366   2.480  17.006  0.00  0.00    +0.000 OA
ATOM      2  C   UNL     1       4.091   3.671  17.146  0.00  0.00    +0.000 C 
ATOM      3  N   UNL     1       2.938   4.179  17.758  0.00  0.00    +0.000 N 
ATOM      4  C   UNL     1       2.948   5.591  17.750  0.00  0.00    +0.000 A 
ATOM      5  C   UNL     1       2.038   6.479  18.297  0.00  0.00    +0.000 A 
ATOM      6  C   UNL     1       2.304   7.852  18.190  0.00  0.00    +0.000 A 
ATOM      7  C   UNL     1       3.447   8.318  17.529  0.00  0.00    +0.000 A 
ATOM      8  C   UNL     1       4.356   7.414  16.977  0.00  0.00    +0.000 A 
ATOM      9  C   UNL     1       4.107   6.053  17.110  0.00  0.00    +0.000 A 
ATOM     10  C   UNL     1       4.958   4.883  16.705  0.00  0.00    +0.000 C 
ATOM     11  S   UNL     1       6.535   4.873  17.631  0.00  0.00    +0.000 S 
ATOM     12  C   UNL     1       7.582   4.402  16.238  0.00  0.00    +0.000 C 
ATOM     13  C   UNL     1       7.055   5.104  15.002  0.00  0.00    +0.000 C 
ATOM     14  S   UNL     1       5.269   4.820  14.910  0.00  0.00    +0.000 S 
ENDROOT
BRANCH   3  15
ATOM     15  C   UNL     1       1.872   3.347  18.262  0.00  0.00    +0.000 C 
BRANCH  15  16
ATOM     16  N   UNL     1       2.098   3.155  19.664  0.00  0.00    +0.000 NA
ATOM     17  C   UNL     1       3.445   3.027  20.199  0.00  0.00    +0.000 C 
ATOM     18  C   UNL     1       3.391   2.077  21.414  0.00  0.00    +0.000 C 
ATOM     19  O   UNL     1       2.352   2.407  22.355  0.00  0.00    +0.000 OA
ATOM     20  C   UNL     1       1.079   2.598  21.717  0.00  0.00    +0.000 C 
ATOM     21  C   UNL     1       1.175   3.689  20.643  0.00  0.00    +0.000 C 
ENDBRANCH  15  16
ENDBRANCH   3  15
TORSDOF 2
ENDMDL
