MODEL 1
REMARK VINA RESULT:      -6.1      0.000      0.000
REMARK  Name = 
REMARK  8 active torsions:
REMARK  status: ('A' for Active; 'I' for Inactive)
REMARK    1  A    between atoms: S_2  and  C_4
REMARK    2  A    between atoms: S_2  and  C_16
REMARK    3  A    between atoms: C_4  and  C_5
REMARK    4  A    between atoms: C_5  and  C_6
REMARK    5  A    between atoms: C_6  and  N_7
REMARK    6  A    between atoms: N_10  and  C_11
REMARK    7  A    between atoms: C_11  and  C_12
REMARK    8  A    between atoms: C_12  and  O_13
REMARK                            x       y       z     vdW  Elec       q    Type
REMARK                         _______ _______ _______ _____ _____    ______ ____
ROOT
ATOM      1  C   UNL     1       2.183   8.490  17.836  0.00  0.00    +0.000 C 
ENDROOT
BRANCH   1   2
ATOM      2  C   UNL     1       1.324   8.760  19.066  0.00  0.00    +0.000 C 
BRANCH   2   4
ATOM      3  O   UNL     1       1.056  10.909  20.585  0.00  0.00    +0.000 OA
ATOM      4  S   UNL     1       1.043  10.519  19.181  0.00  0.00    +0.000 S 
ATOM      5  O   UNL     1       1.917  11.186  18.243  0.00  0.00    +0.000 OA
BRANCH   4   6
ATOM      6  C   UNL     1      -0.619  10.749  18.616  0.00  0.00    +0.000 A 
ATOM      7  C   UNL     1      -1.135   9.912  17.620  0.00  0.00    +0.000 A 
ATOM      8  C   UNL     1      -2.468  10.053  17.231  0.00  0.00    +0.000 A 
ATOM      9  C   UNL     1      -3.275  11.010  17.851  0.00  0.00    +0.000 A 
ATOM     10 CL   UNL     1      -4.920  11.169  17.377  0.00  0.00    +0.000 Cl
ATOM     11  C   UNL     1      -2.760  11.832  18.854  0.00  0.00    +0.000 A 
ATOM     12  C   UNL     1      -1.428  11.701  19.245  0.00  0.00    +0.000 A 
ENDBRANCH   4   6
ENDBRANCH   2   4
ENDBRANCH   1   2
BRANCH   1  13
ATOM     13  C   UNL     1       3.164   7.327  18.000  0.00  0.00    +0.000 C 
BRANCH  13  14
ATOM     14  N   UNL     1       2.595   6.180  18.732  0.00  0.00    +0.000 NA
ATOM     15  C   UNL     1       2.346   5.029  17.836  0.00  0.00    +0.000 C 
ATOM     16  C   UNL     1       3.620   4.299  17.334  0.00  0.00    +0.000 C 
ATOM     17  N   UNL     1       4.567   3.890  18.393  0.00  0.00    +0.000 NA
ATOM     18  C   UNL     1       4.817   5.067  19.264  0.00  0.00    +0.000 C 
ATOM     19  C   UNL     1       3.516   5.721  19.806  0.00  0.00    +0.000 C 
BRANCH  17  20
ATOM     20  C   UNL     1       4.043   2.750  19.189  0.00  0.00    +0.000 C 
BRANCH  20  21
ATOM     21  C   UNL     1       3.429   1.632  18.329  0.00  0.00    +0.000 C 
BRANCH  21  22
ATOM     22  O   UNL     1       2.073   1.385  18.666  0.00  0.00    +0.000 OA
ATOM     23  H   UNL     1       1.549   1.978  18.097  0.00  0.00    +0.000 HD
ENDBRANCH  21  22
ENDBRANCH  20  21
ENDBRANCH  17  20
ENDBRANCH  13  14
ENDBRANCH   1  13
TORSDOF 8
ENDMDL
MODEL 2
REMARK VINA RESULT:      -6.1      6.869      9.560
REMARK  Name = 
REMARK  8 active torsions:
REMARK  status: ('A' for Active; 'I' for Inactive)
REMARK    1  A    between atoms: S_2  and  C_4
REMARK    2  A    between atoms: S_2  and  C_16
REMARK    3  A    between atoms: C_4  and  C_5
REMARK    4  A    between atoms: C_5  and  C_6
REMARK    5  A    between atoms: C_6  and  N_7
REMARK    6  A    between atoms: N_10  and  C_11
REMARK    7  A    between atoms: C_11  and  C_12
REMARK    8  A    between atoms: C_12  and  O_13
REMARK                            x       y       z     vdW  Elec       q    Type
REMARK                         _______ _______ _______ _____ _____    ______ ____
ROOT
ATOM      1  C   UNL     1       8.127   8.326  18.055  0.00  0.00    +0.000 C 
ENDROOT
BRANCH   1   2
ATOM      2  C   UNL     1       7.987   6.916  18.616  0.00  0.00    +0.000 C 
BRANCH   2   4
ATOM      3  O   UNL     1       6.910   6.707  16.209  0.00  0.00    +0.000 OA
ATOM      4  S   UNL     1       7.144   5.909  17.405  0.00  0.00    +0.000 S 
ATOM      5  O   UNL     1       7.834   4.644  17.299  0.00  0.00    +0.000 OA
BRANCH   4   6
ATOM      6  C   UNL     1       5.553   5.591  18.111  0.00  0.00    +0.000 A 
ATOM      7  C   UNL     1       5.405   4.569  19.057  0.00  0.00    +0.000 A 
ATOM      8  C   UNL     1       4.163   4.372  19.661  0.00  0.00    +0.000 A 
ATOM      9  C   UNL     1       3.090   5.205  19.334  0.00  0.00    +0.000 A 
ATOM     10 CL   UNL     1       1.566   4.965  20.093  0.00  0.00    +0.000 Cl
ATOM     11  C   UNL     1       3.247   6.232  18.402  0.00  0.00    +0.000 A 
ATOM     12  C   UNL     1       4.483   6.432  17.789  0.00  0.00    +0.000 A 
ENDBRANCH   4   6
ENDBRANCH   2   4
ENDBRANCH   1   2
BRANCH   1  13
ATOM     13  C   UNL     1       9.115   9.209  18.820  0.00  0.00    +0.000 C 
BRANCH  13  14
ATOM     14  N   UNL     1       8.631  10.587  19.023  0.00  0.00    +0.000 NA
ATOM     15  C   UNL     1       9.238  11.208  20.222  0.00  0.00    +0.000 C 
ATOM     16  C   UNL     1      10.740  11.570  20.085  0.00  0.00    +0.000 C 
ATOM     17  N   UNL     1      11.086  12.379  18.897  0.00  0.00    +0.000 NA
ATOM     18  C   UNL     1      10.486  11.723  17.707  0.00  0.00    +0.000 C 
ATOM     19  C   UNL     1       8.964  11.448  17.856  0.00  0.00    +0.000 C 
BRANCH  17  20
ATOM     20  C   UNL     1      10.604  13.778  19.025  0.00  0.00    +0.000 C 
BRANCH  20  21
ATOM     21  C   UNL     1      10.828  14.624  17.760  0.00  0.00    +0.000 C 
BRANCH  21  22
ATOM     22  O   UNL     1       9.641  15.277  17.338  0.00  0.00    +0.000 OA
ATOM     23  H   UNL     1       9.473  15.971  18.003  0.00  0.00    +0.000 HD
ENDBRANCH  21  22
ENDBRANCH  20  21
ENDBRANCH  17  20
ENDBRANCH  13  14
ENDBRANCH   1  13
TORSDOF 8
ENDMDL
MODEL 3
REMARK VINA RESULT:      -6.1      0.614      1.199
REMARK  Name = 
REMARK  8 active torsions:
REMARK  status: ('A' for Active; 'I' for Inactive)
REMARK    1  A    between atoms: S_2  and  C_4
REMARK    2  A    between atoms: S_2  and  C_16
REMARK    3  A    between atoms: C_4  and  C_5
REMARK    4  A    between atoms: C_5  and  C_6
REMARK    5  A    between atoms: C_6  and  N_7
REMARK    6  A    between atoms: N_10  and  C_11
REMARK    7  A    between atoms: C_11  and  C_12
REMARK    8  A    between atoms: C_12  and  O_13
REMARK                            x       y       z     vdW  Elec       q    Type
REMARK                         _______ _______ _______ _____ _____    ______ ____
ROOT
ATOM      1  C   UNL     1       2.656   8.722  18.151  0.00  0.00    +0.000 C 
ENDROOT
BRANCH   1   2
ATOM      2  C   UNL     1       1.197   9.017  17.822  0.00  0.00    +0.000 C 
BRANCH   2   4
ATOM      3  O   UNL     1       0.420   9.437  20.316  0.00  0.00    +0.000 OA
ATOM      4  S   UNL     1       0.560  10.146  19.050  0.00  0.00    +0.000 S 
ATOM      5  O   UNL     1       1.329  11.368  18.994  0.00  0.00    +0.000 OA
BRANCH   4   6
ATOM      6  C   UNL     1      -1.081  10.524  18.507  0.00  0.00    +0.000 A 
ATOM      7  C   UNL     1      -1.842  11.472  19.202  0.00  0.00    +0.000 A 
ATOM      8  C   UNL     1      -3.107  11.816  18.726  0.00  0.00    +0.000 A 
ATOM      9  C   UNL     1      -3.593  11.230  17.555  0.00  0.00    +0.000 A 
ATOM     10 CL   UNL     1      -5.147  11.669  16.966  0.00  0.00    +0.000 Cl
ATOM     11  C   UNL     1      -2.825  10.296  16.857  0.00  0.00    +0.000 A 
ATOM     12  C   UNL     1      -1.562   9.942  17.329  0.00  0.00    +0.000 A 
ENDBRANCH   4   6
ENDBRANCH   2   4
ENDBRANCH   1   2
BRANCH   1  13
ATOM     13  C   UNL     1       3.117   7.320  17.751  0.00  0.00    +0.000 C 
BRANCH  13  14
ATOM     14  N   UNL     1       2.521   6.251  18.573  0.00  0.00    +0.000 NA
ATOM     15  C   UNL     1       2.256   5.032  17.777  0.00  0.00    +0.000 C 
ATOM     16  C   UNL     1       3.519   4.238  17.349  0.00  0.00    +0.000 C 
ATOM     17  N   UNL     1       4.451   3.903  18.447  0.00  0.00    +0.000 NA
ATOM     18  C   UNL     1       4.719   5.145  19.216  0.00  0.00    +0.000 C 
ATOM     19  C   UNL     1       3.427   5.867  19.689  0.00  0.00    +0.000 C 
BRANCH  17  20
ATOM     20  C   UNL     1       3.900   2.846  19.332  0.00  0.00    +0.000 C 
BRANCH  20  21
ATOM     21  C   UNL     1       3.338   1.634  18.567  0.00  0.00    +0.000 C 
BRANCH  21  22
ATOM     22  O   UNL     1       1.956   1.439  18.819  0.00  0.00    +0.000 OA
ATOM     23  H   UNL     1       1.912   0.865  19.607  0.00  0.00    +0.000 HD
ENDBRANCH  21  22
ENDBRANCH  20  21
ENDBRANCH  17  20
ENDBRANCH  13  14
ENDBRANCH   1  13
TORSDOF 8
ENDMDL
MODEL 4
REMARK VINA RESULT:      -6.0      4.497      6.571
REMARK  Name = 
REMARK  8 active torsions:
REMARK  status: ('A' for Active; 'I' for Inactive)
REMARK    1  A    between atoms: S_2  and  C_4
REMARK    2  A    between atoms: S_2  and  C_16
REMARK    3  A    between atoms: C_4  and  C_5
REMARK    4  A    between atoms: C_5  and  C_6
REMARK    5  A    between atoms: C_6  and  N_7
REMARK    6  A    between atoms: N_10  and  C_11
REMARK    7  A    between atoms: C_11  and  C_12
REMARK    8  A    between atoms: C_12  and  O_13
REMARK                            x       y       z     vdW  Elec       q    Type
REMARK                         _______ _______ _______ _____ _____    ______ ____
ROOT
ATOM      1  C   UNL     1       4.420   2.658  19.349  0.00  0.00    +0.000 C 
ENDROOT
BRANCH   1   2
ATOM      2  C   UNL     1       3.186   1.981  18.766  0.00  0.00    +0.000 C 
BRANCH   2   4
ATOM      3  O   UNL     1       0.558   2.289  18.770  0.00  0.00    +0.000 OA
ATOM      4  S   UNL     1       1.737   2.709  19.515  0.00  0.00    +0.000 S 
ATOM      5  O   UNL     1       1.800   2.490  20.942  0.00  0.00    +0.000 OA
BRANCH   4   6
ATOM      6  C   UNL     1       1.910   4.448  19.235  0.00  0.00    +0.000 A 
ATOM      7  C   UNL     1       1.793   4.957  17.936  0.00  0.00    +0.000 A 
ATOM      8  C   UNL     1       1.860   6.335  17.734  0.00  0.00    +0.000 A 
ATOM      9  C   UNL     1       2.022   7.192  18.825  0.00  0.00    +0.000 A 
ATOM     10 CL   UNL     1       2.089   8.891  18.570  0.00  0.00    +0.000 Cl
ATOM     11  C   UNL     1       2.124   6.681  20.120  0.00  0.00    +0.000 A 
ATOM     12  C   UNL     1       2.063   5.304  20.331  0.00  0.00    +0.000 A 
ENDBRANCH   4   6
ENDBRANCH   2   4
ENDBRANCH   1   2
BRANCH   1  13
ATOM     13  C   UNL     1       5.269   3.407  18.319  0.00  0.00    +0.000 C 
BRANCH  13  14
ATOM     14  N   UNL     1       5.096   4.870  18.370  0.00  0.00    +0.000 NA
ATOM     15  C   UNL     1       6.058   5.502  19.301  0.00  0.00    +0.000 C 
ATOM     16  C   UNL     1       7.530   5.519  18.814  0.00  0.00    +0.000 C 
ATOM     17  N   UNL     1       7.737   6.073  17.459  0.00  0.00    +0.000 NA
ATOM     18  C   UNL     1       6.777   5.407  16.541  0.00  0.00    +0.000 C 
ATOM     19  C   UNL     1       5.304   5.480  17.030  0.00  0.00    +0.000 C 
BRANCH  17  20
ATOM     20  C   UNL     1       7.552   7.546  17.434  0.00  0.00    +0.000 C 
BRANCH  20  21
ATOM     21  C   UNL     1       8.388   8.289  18.491  0.00  0.00    +0.000 C 
BRANCH  21  22
ATOM     22  O   UNL     1       8.502   9.673  18.203  0.00  0.00    +0.000 OA
ATOM     23  H   UNL     1       9.143   9.737  17.470  0.00  0.00    +0.000 HD
ENDBRANCH  21  22
ENDBRANCH  20  21
ENDBRANCH  17  20
ENDBRANCH  13  14
ENDBRANCH   1  13
TORSDOF 8
ENDMDL
MODEL 5
REMARK VINA RESULT:      -5.9      7.184      9.768
REMARK  Name = 
REMARK  8 active torsions:
REMARK  status: ('A' for Active; 'I' for Inactive)
REMARK    1  A    between atoms: S_2  and  C_4
REMARK    2  A    between atoms: S_2  and  C_16
REMARK    3  A    between atoms: C_4  and  C_5
REMARK    4  A    between atoms: C_5  and  C_6
REMARK    5  A    between atoms: C_6  and  N_7
REMARK    6  A    between atoms: N_10  and  C_11
REMARK    7  A    between atoms: C_11  and  C_12
REMARK    8  A    between atoms: C_12  and  O_13
REMARK                            x       y       z     vdW  Elec       q    Type
REMARK                         _______ _______ _______ _____ _____    ______ ____
ROOT
ATOM      1  C   UNL     1       8.385   8.533  17.899  0.00  0.00    +0.000 C 
ENDROOT
BRANCH   1   2
ATOM      2  C   UNL     1       6.986   7.982  17.650  0.00  0.00    +0.000 C 
BRANCH   2   4
ATOM      3  O   UNL     1       7.552   6.048  15.936  0.00  0.00    +0.000 OA
ATOM      4  S   UNL     1       7.121   6.233  17.315  0.00  0.00    +0.000 S 
ATOM      5  O   UNL     1       7.867   5.617  18.388  0.00  0.00    +0.000 OA
BRANCH   4   6
ATOM      6  C   UNL     1       5.461   5.627  17.403  0.00  0.00    +0.000 A 
ATOM      7  C   UNL     1       5.205   4.268  17.183  0.00  0.00    +0.000 A 
ATOM      8  C   UNL     1       3.904   3.786  17.325  0.00  0.00    +0.000 A 
ATOM      9  C   UNL     1       2.877   4.655  17.703  0.00  0.00    +0.000 A 
ATOM     10 CL   UNL     1       1.278   4.051  17.889  0.00  0.00    +0.000 Cl
ATOM     11  C   UNL     1       3.140   6.006  17.936  0.00  0.00    +0.000 A 
ATOM     12  C   UNL     1       4.436   6.497  17.791  0.00  0.00    +0.000 A 
ENDBRANCH   4   6
ENDBRANCH   2   4
ENDBRANCH   1   2
BRANCH   1  13
ATOM     13  C   UNL     1       8.410   9.989  18.367  0.00  0.00    +0.000 C 
BRANCH  13  14
ATOM     14  N   UNL     1       9.742  10.438  18.814  0.00  0.00    +0.000 NA
ATOM     15  C   UNL     1      10.327  11.427  17.881  0.00  0.00    +0.000 C 
ATOM     16  C   UNL     1       9.657  12.826  17.901  0.00  0.00    +0.000 C 
ATOM     17  N   UNL     1       9.532  13.442  19.240  0.00  0.00    +0.000 NA
ATOM     18  C   UNL     1       8.923  12.439  20.150  0.00  0.00    +0.000 C 
ATOM     19  C   UNL     1       9.670  11.076  20.155  0.00  0.00    +0.000 C 
BRANCH  17  20
ATOM     20  C   UNL     1      10.847  13.895  19.761  0.00  0.00    +0.000 C 
BRANCH  20  21
ATOM     21  C   UNL     1      10.745  15.071  20.747  0.00  0.00    +0.000 C 
BRANCH  21  22
ATOM     22  O   UNL     1      11.604  16.142  20.389  0.00  0.00    +0.000 OA
ATOM     23  H   UNL     1      12.425  15.724  20.068  0.00  0.00    +0.000 HD
ENDBRANCH  21  22
ENDBRANCH  20  21
ENDBRANCH  17  20
ENDBRANCH  13  14
ENDBRANCH   1  13
TORSDOF 8
ENDMDL
MODEL 6
REMARK VINA RESULT:      -5.9      1.139      1.297
REMARK  Name = 
REMARK  8 active torsions:
REMARK  status: ('A' for Active; 'I' for Inactive)
REMARK    1  A    between atoms: S_2  and  C_4
REMARK    2  A    between atoms: S_2  and  C_16
REMARK    3  A    between atoms: C_4  and  C_5
REMARK    4  A    between atoms: C_5  and  C_6
REMARK    5  A    between atoms: C_6  and  N_7
REMARK    6  A    between atoms: N_10  and  C_11
REMARK    7  A    between atoms: C_11  and  C_12
REMARK    8  A    between atoms: C_12  and  O_13
REMARK                            x       y       z     vdW  Elec       q    Type
REMARK                         _______ _______ _______ _____ _____    ______ ____
ROOT
ATOM      1  C   UNL     1       1.913   8.704  17.882  0.00  0.00    +0.000 C 
ENDROOT
BRANCH   1   2
ATOM      2  C   UNL     1       1.189   9.044  19.179  0.00  0.00    +0.000 C 
BRANCH   2   4
ATOM      3  O   UNL     1       0.862  11.268  20.574  0.00  0.00    +0.000 OA
ATOM      4  S   UNL     1       0.856  10.798  19.195  0.00  0.00    +0.000 S 
ATOM      5  O   UNL     1       1.707  11.436  18.216  0.00  0.00    +0.000 OA
BRANCH   4   6
ATOM      6  C   UNL     1      -0.813  10.946  18.626  0.00  0.00    +0.000 A 
ATOM      7  C   UNL     1      -1.275  10.108  17.604  0.00  0.00    +0.000 A 
ATOM      8  C   UNL     1      -2.612  10.183  17.211  0.00  0.00    +0.000 A 
ATOM      9  C   UNL     1      -3.477  11.073  17.852  0.00  0.00    +0.000 A 
ATOM     10 CL   UNL     1      -5.126  11.148  17.372  0.00  0.00    +0.000 Cl
ATOM     11  C   UNL     1      -3.015  11.895  18.881  0.00  0.00    +0.000 A 
ATOM     12  C   UNL     1      -1.680  11.831  19.276  0.00  0.00    +0.000 A 
ENDBRANCH   4   6
ENDBRANCH   2   4
ENDBRANCH   1   2
BRANCH   1  13
ATOM     13  C   UNL     1       3.167   7.849  18.070  0.00  0.00    +0.000 C 
BRANCH  13  14
ATOM     14  N   UNL     1       3.008   6.463  17.593  0.00  0.00    +0.000 NA
ATOM     15  C   UNL     1       4.283   5.909  17.085  0.00  0.00    +0.000 C 
ATOM     16  C   UNL     1       5.343   5.597  18.173  0.00  0.00    +0.000 C 
ATOM     17  N   UNL     1       4.866   4.757  19.292  0.00  0.00    +0.000 NA
ATOM     18  C   UNL     1       3.599   5.346  19.798  0.00  0.00    +0.000 C 
ATOM     19  C   UNL     1       2.537   5.572  18.687  0.00  0.00    +0.000 C 
BRANCH  17  20
ATOM     20  C   UNL     1       4.659   3.348  18.872  0.00  0.00    +0.000 C 
BRANCH  20  21
ATOM     21  C   UNL     1       4.282   2.410  20.032  0.00  0.00    +0.000 C 
BRANCH  21  22
ATOM     22  O   UNL     1       5.285   1.438  20.279  0.00  0.00    +0.000 OA
ATOM     23  H   UNL     1       4.877   0.784  20.877  0.00  0.00    +0.000 HD
ENDBRANCH  21  22
ENDBRANCH  20  21
ENDBRANCH  17  20
ENDBRANCH  13  14
ENDBRANCH   1  13
TORSDOF 8
ENDMDL
MODEL 7
REMARK VINA RESULT:      -5.8      1.350      1.654
REMARK  Name = 
REMARK  8 active torsions:
REMARK  status: ('A' for Active; 'I' for Inactive)
REMARK    1  A    between atoms: S_2  and  C_4
REMARK    2  A    between atoms: S_2  and  C_16
REMARK    3  A    between atoms: C_4  and  C_5
REMARK    4  A    between atoms: C_5  and  C_6
REMARK    5  A    between atoms: C_6  and  N_7
REMARK    6  A    between atoms: N_10  and  C_11
REMARK    7  A    between atoms: C_11  and  C_12
REMARK    8  A    between atoms: C_12  and  O_13
REMARK                            x       y       z     vdW  Elec       q    Type
REMARK                         _______ _______ _______ _____ _____    ______ ____
ROOT
ATOM      1  C   UNL     1       1.878   8.106  18.615  0.00  0.00    +0.000 C 
ENDROOT
BRANCH   1   2
ATOM      2  C   UNL     1       1.721   9.431  17.879  0.00  0.00    +0.000 C 
BRANCH   2   4
ATOM      3  O   UNL     1       0.987  10.044  20.345  0.00  0.00    +0.000 OA
ATOM      4  S   UNL     1       1.022  10.623  19.009  0.00  0.00    +0.000 S 
ATOM      5  O   UNL     1       1.674  11.895  18.796  0.00  0.00    +0.000 OA
BRANCH   4   6
ATOM      6  C   UNL     1      -0.663  10.796  18.498  0.00  0.00    +0.000 A 
ATOM      7  C   UNL     1      -1.184   9.939  17.521  0.00  0.00    +0.000 A 
ATOM      8  C   UNL     1      -2.532  10.035  17.175  0.00  0.00    +0.000 A 
ATOM      9  C   UNL     1      -3.350  10.967  17.817  0.00  0.00    +0.000 A 
ATOM     10 CL   UNL     1      -5.014  11.070  17.395  0.00  0.00    +0.000 Cl
ATOM     11  C   UNL     1      -2.830  11.809  18.801  0.00  0.00    +0.000 A 
ATOM     12  C   UNL     1      -1.483  11.724  19.149  0.00  0.00    +0.000 A 
ENDBRANCH   4   6
ENDBRANCH   2   4
ENDBRANCH   1   2
BRANCH   1  13
ATOM     13  C   UNL     1       2.917   7.167  18.000  0.00  0.00    +0.000 C 
BRANCH  13  14
ATOM     14  N   UNL     1       3.535   6.255  18.980  0.00  0.00    +0.000 NA
ATOM     15  C   UNL     1       2.548   5.761  19.966  0.00  0.00    +0.000 C 
ATOM     16  C   UNL     1       1.517   4.744  19.409  0.00  0.00    +0.000 C 
ATOM     17  N   UNL     1       2.098   3.590  18.690  0.00  0.00    +0.000 NA
ATOM     18  C   UNL     1       3.068   4.113  17.694  0.00  0.00    +0.000 C 
ATOM     19  C   UNL     1       4.128   5.068  18.308  0.00  0.00    +0.000 C 
BRANCH  17  20
ATOM     20  C   UNL     1       2.762   2.641  19.620  0.00  0.00    +0.000 C 
BRANCH  20  21
ATOM     21  C   UNL     1       1.935   2.338  20.882  0.00  0.00    +0.000 C 
BRANCH  21  22
ATOM     22  O   UNL     1       2.622   2.701  22.069  0.00  0.00    +0.000 OA
ATOM     23  H   UNL     1       2.341   2.055  22.744  0.00  0.00    +0.000 HD
ENDBRANCH  21  22
ENDBRANCH  20  21
ENDBRANCH  17  20
ENDBRANCH  13  14
ENDBRANCH   1  13
TORSDOF 8
ENDMDL
MODEL 8
REMARK VINA RESULT:      -5.8      1.042      1.321
REMARK  Name = 
REMARK  8 active torsions:
REMARK  status: ('A' for Active; 'I' for Inactive)
REMARK    1  A    between atoms: S_2  and  C_4
REMARK    2  A    between atoms: S_2  and  C_16
REMARK    3  A    between atoms: C_4  and  C_5
REMARK    4  A    between atoms: C_5  and  C_6
REMARK    5  A    between atoms: C_6  and  N_7
REMARK    6  A    between atoms: N_10  and  C_11
REMARK    7  A    between atoms: C_11  and  C_12
REMARK    8  A    between atoms: C_12  and  O_13
REMARK                            x       y       z     vdW  Elec       q    Type
REMARK                         _______ _______ _______ _____ _____    ______ ____
ROOT
ATOM      1  C   UNL     1       1.821   8.318  19.134  0.00  0.00    +0.000 C 
ENDROOT
BRANCH   1   2
ATOM      2  C   UNL     1       1.481   9.397  18.112  0.00  0.00    +0.000 C 
BRANCH   2   4
ATOM      3  O   UNL     1       0.878  10.547  20.417  0.00  0.00    +0.000 OA
ATOM      4  S   UNL     1       0.858  10.824  18.987  0.00  0.00    +0.000 S 
ATOM      5  O   UNL     1       1.520  12.001  18.475  0.00  0.00    +0.000 OA
BRANCH   4   6
ATOM      6  C   UNL     1      -0.847  10.927  18.524  0.00  0.00    +0.000 A 
ATOM      7  C   UNL     1      -1.381   9.996  17.625  0.00  0.00    +0.000 A 
ATOM      8  C   UNL     1      -2.741  10.041  17.321  0.00  0.00    +0.000 A 
ATOM      9  C   UNL     1      -3.558  10.998  17.927  0.00  0.00    +0.000 A 
ATOM     10 CL   UNL     1      -5.237  11.040  17.559  0.00  0.00    +0.000 Cl
ATOM     11  C   UNL     1      -3.024  11.916  18.834  0.00  0.00    +0.000 A 
ATOM     12  C   UNL     1      -1.664  11.881  19.140  0.00  0.00    +0.000 A 
ENDBRANCH   4   6
ENDBRANCH   2   4
ENDBRANCH   1   2
BRANCH   1  13
ATOM     13  C   UNL     1       2.665   7.170  18.575  0.00  0.00    +0.000 C 
BRANCH  13  14
ATOM     14  N   UNL     1       3.140   6.235  19.612  0.00  0.00    +0.000 NA
ATOM     15  C   UNL     1       2.027   5.449  20.191  0.00  0.00    +0.000 C 
ATOM     16  C   UNL     1       1.424   4.373  19.250  0.00  0.00    +0.000 C 
ATOM     17  N   UNL     1       2.404   3.446  18.646  0.00  0.00    +0.000 NA
ATOM     18  C   UNL     1       3.497   4.259  18.053  0.00  0.00    +0.000 C 
ATOM     19  C   UNL     1       4.124   5.271  19.052  0.00  0.00    +0.000 C 
BRANCH  17  20
ATOM     20  C   UNL     1       2.944   2.490  19.645  0.00  0.00    +0.000 C 
BRANCH  20  21
ATOM     21  C   UNL     1       4.255   1.815  19.205  0.00  0.00    +0.000 C 
BRANCH  21  22
ATOM     22  O   UNL     1       4.021   0.667  18.406  0.00  0.00    +0.000 OA
ATOM     23  H   UNL     1       4.478  -0.067  18.860  0.00  0.00    +0.000 HD
ENDBRANCH  21  22
ENDBRANCH  20  21
ENDBRANCH  17  20
ENDBRANCH  13  14
ENDBRANCH   1  13
TORSDOF 8
ENDMDL
MODEL 9
REMARK VINA RESULT:      -5.8      4.188      5.731
REMARK  Name = 
REMARK  8 active torsions:
REMARK  status: ('A' for Active; 'I' for Inactive)
REMARK    1  A    between atoms: S_2  and  C_4
REMARK    2  A    between atoms: S_2  and  C_16
REMARK    3  A    between atoms: C_4  and  C_5
REMARK    4  A    between atoms: C_5  and  C_6
REMARK    5  A    between atoms: C_6  and  N_7
REMARK    6  A    between atoms: N_10  and  C_11
REMARK    7  A    between atoms: C_11  and  C_12
REMARK    8  A    between atoms: C_12  and  O_13
REMARK                            x       y       z     vdW  Elec       q    Type
REMARK                         _______ _______ _______ _____ _____    ______ ____
ROOT
ATOM      1  C   UNL     1       4.579   3.670  19.833  0.00  0.00    +0.000 C 
ENDROOT
BRANCH   1   2
ATOM      2  C   UNL     1       3.185   3.392  19.283  0.00  0.00    +0.000 C 
BRANCH   2   4
ATOM      3  O   UNL     1       0.676   3.688  20.068  0.00  0.00    +0.000 OA
ATOM      4  S   UNL     1       1.997   4.256  20.300  0.00  0.00    +0.000 S 
ATOM      5  O   UNL     1       2.518   4.338  21.645  0.00  0.00    +0.000 OA
BRANCH   4   6
ATOM      6  C   UNL     1       1.954   5.900  19.645  0.00  0.00    +0.000 A 
ATOM      7  C   UNL     1       1.653   6.976  20.488  0.00  0.00    +0.000 A 
ATOM      8  C   UNL     1       1.691   8.275  19.980  0.00  0.00    +0.000 A 
ATOM      9  C   UNL     1       2.047   8.490  18.646  0.00  0.00    +0.000 A 
ATOM     10 CL   UNL     1       2.106  10.094  18.031  0.00  0.00    +0.000 Cl
ATOM     11  C   UNL     1       2.361   7.415  17.813  0.00  0.00    +0.000 A 
ATOM     12  C   UNL     1       2.320   6.113  18.311  0.00  0.00    +0.000 A 
ENDBRANCH   4   6
ENDBRANCH   2   4
ENDBRANCH   1   2
BRANCH   1  13
ATOM     13  C   UNL     1       5.424   4.596  18.956  0.00  0.00    +0.000 C 
BRANCH  13  14
ATOM     14  N   UNL     1       6.201   3.881  17.927  0.00  0.00    +0.000 NA
ATOM     15  C   UNL     1       5.392   3.618  16.716  0.00  0.00    +0.000 C 
ATOM     16  C   UNL     1       5.074   4.869  15.855  0.00  0.00    +0.000 C 
ATOM     17  N   UNL     1       6.246   5.690  15.482  0.00  0.00    +0.000 NA
ATOM     18  C   UNL     1       7.028   5.957  16.717  0.00  0.00    +0.000 C 
ATOM     19  C   UNL     1       7.390   4.670  17.509  0.00  0.00    +0.000 C 
BRANCH  17  20
ATOM     20  C   UNL     1       7.089   5.013  14.463  0.00  0.00    +0.000 C 
BRANCH  20  21
ATOM     21  C   UNL     1       6.308   4.028  13.576  0.00  0.00    +0.000 C 
BRANCH  21  22
ATOM     22  O   UNL     1       6.834   3.965  12.260  0.00  0.00    +0.000 OA
ATOM     23  H   UNL     1       6.798   4.879  11.919  0.00  0.00    +0.000 HD
ENDBRANCH  21  22
ENDBRANCH  20  21
ENDBRANCH  17  20
ENDBRANCH  13  14
ENDBRANCH   1  13
TORSDOF 8
ENDMDL
