MODEL 1
REMARK VINA RESULT:      -7.9      0.000      0.000
REMARK  Name = 
REMARK  3 active torsions:
REMARK  status: ('A' for Active; 'I' for Inactive)
REMARK    1  A    between atoms: C_4  and  C_5
REMARK    2  A    between atoms: N_10  and  C_11
REMARK    3  A    between atoms: C_14  and  N_15
REMARK                            x       y       z     vdW  Elec       q    Type
REMARK                         _______ _______ _______ _____ _____    ______ ____
ROOT
ATOM      1  C   UNL     1      -0.693  10.718  21.837  0.00  0.00    +0.000 A 
ATOM      2  C   UNL     1      -0.269  10.097  22.998  0.00  0.00    +0.000 A 
ATOM      3  C   UNL     1       0.681   9.126  22.854  0.00  0.00    +0.000 A 
ATOM      4  N   UNL     1       1.179   8.768  21.667  0.00  0.00    +0.000 NA
ATOM      5  C   UNL     1       0.714   9.392  20.572  0.00  0.00    +0.000 A 
ATOM      6  N   UNL     1       1.233   9.067  19.319  0.00  0.00    +0.000 N 
ATOM      7  N   UNL     1      -0.209  10.365  20.621  0.00  0.00    +0.000 NA
ATOM      8  H   UNL     1       0.892   9.697  18.609  0.00  0.00    +0.000 HD
ENDROOT
BRANCH   1  12
ATOM      9  C   UNL     1      -3.586  13.911  21.928  0.00  0.00    +0.000 A 
ATOM     10  C   UNL     1      -2.883  13.639  20.757  0.00  0.00    +0.000 A 
ATOM     11  C   UNL     1      -1.955  12.595  20.726  0.00  0.00    +0.000 A 
ATOM     12  C   UNL     1      -1.698  11.803  21.863  0.00  0.00    +0.000 A 
ATOM     13  C   UNL     1      -2.428  12.093  23.030  0.00  0.00    +0.000 A 
ATOM     14  C   UNL     1      -3.359  13.137  23.062  0.00  0.00    +0.000 A 
ENDBRANCH   1  12
BRANCH   6  15
ATOM     15  C   UNL     1       2.107   8.044  18.933  0.00  0.00    +0.000 A 
ATOM     16  C   UNL     1       2.336   6.912  19.718  0.00  0.00    +0.000 A 
ATOM     17  C   UNL     1       3.281   5.943  19.359  0.00  0.00    +0.000 A 
ATOM     18  C   UNL     1       4.050   6.063  18.202  0.00  0.00    +0.000 A 
ATOM     19  C   UNL     1       3.827   7.206  17.419  0.00  0.00    +0.000 A 
ATOM     20  C   UNL     1       2.873   8.176  17.773  0.00  0.00    +0.000 A 
BRANCH  18  21
ATOM     21  N   UNL     1       4.959   5.099  17.818  0.00  0.00    +0.000 N 
ATOM     22  C   UNL     1       6.071   4.675  18.684  0.00  0.00    +0.000 C 
ATOM     23  C   UNL     1       7.422   5.095  18.089  0.00  0.00    +0.000 C 
ATOM     24  O   UNL     1       7.571   4.619  16.741  0.00  0.00    +0.000 OA
ATOM     25  C   UNL     1       6.532   5.166  15.911  0.00  0.00    +0.000 C 
ATOM     26  C   UNL     1       5.128   4.757  16.396  0.00  0.00    +0.000 C 
ENDBRANCH  18  21
ENDBRANCH   6  15
TORSDOF 3
ENDMDL
MODEL 2
REMARK VINA RESULT:      -7.7      3.672      9.784
REMARK  Name = 
REMARK  3 active torsions:
REMARK  status: ('A' for Active; 'I' for Inactive)
REMARK    1  A    between atoms: C_4  and  C_5
REMARK    2  A    between atoms: N_10  and  C_11
REMARK    3  A    between atoms: C_14  and  N_15
REMARK                            x       y       z     vdW  Elec       q    Type
REMARK                         _______ _______ _______ _____ _____    ______ ____
ROOT
ATOM      1  C   UNL     1       3.765   6.436  18.161  0.00  0.00    +0.000 A 
ATOM      2  C   UNL     1       3.360   5.887  19.364  0.00  0.00    +0.000 A 
ATOM      3  C   UNL     1       2.361   6.545  20.025  0.00  0.00    +0.000 A 
ATOM      4  N   UNL     1       1.801   7.666  19.562  0.00  0.00    +0.000 NA
ATOM      5  C   UNL     1       2.250   8.164  18.399  0.00  0.00    +0.000 A 
ATOM      6  N   UNL     1       1.668   9.315  17.869  0.00  0.00    +0.000 N 
ATOM      7  N   UNL     1       3.218   7.577  17.676  0.00  0.00    +0.000 NA
ATOM      8  H   UNL     1       2.008   9.500  16.938  0.00  0.00    +0.000 HD
ENDROOT
BRANCH   1  12
ATOM      9  C   UNL     1       6.851   4.567  15.803  0.00  0.00    +0.000 A 
ATOM     10  C   UNL     1       5.601   3.965  15.920  0.00  0.00    +0.000 A 
ATOM     11  C   UNL     1       4.598   4.579  16.674  0.00  0.00    +0.000 A 
ATOM     12  C   UNL     1       4.818   5.803  17.338  0.00  0.00    +0.000 A 
ATOM     13  C   UNL     1       6.087   6.394  17.195  0.00  0.00    +0.000 A 
ATOM     14  C   UNL     1       7.092   5.781  16.439  0.00  0.00    +0.000 A 
ENDBRANCH   1  12
BRANCH   6  15
ATOM     15  C   UNL     1       0.733  10.199  18.421  0.00  0.00    +0.000 A 
ATOM     16  C   UNL     1      -0.630  10.140  18.122  0.00  0.00    +0.000 A 
ATOM     17  C   UNL     1      -1.535  11.087  18.613  0.00  0.00    +0.000 A 
ATOM     18  C   UNL     1      -1.121  12.147  19.420  0.00  0.00    +0.000 A 
ATOM     19  C   UNL     1       0.249  12.212  19.712  0.00  0.00    +0.000 A 
ATOM     20  C   UNL     1       1.160  11.257  19.227  0.00  0.00    +0.000 A 
BRANCH  18  21
ATOM     21  N   UNL     1      -2.008  13.068  19.940  0.00  0.00    +0.000 N 
ATOM     22  C   UNL     1      -1.566  14.346  20.521  0.00  0.00    +0.000 C 
ATOM     23  C   UNL     1      -1.829  14.382  22.032  0.00  0.00    +0.000 C 
ATOM     24  O   UNL     1      -3.205  14.096  22.331  0.00  0.00    +0.000 OA
ATOM     25  C   UNL     1      -3.548  12.784  21.854  0.00  0.00    +0.000 C 
ATOM     26  C   UNL     1      -3.367  12.658  20.329  0.00  0.00    +0.000 C 
ENDBRANCH  18  21
ENDBRANCH   6  15
TORSDOF 3
ENDMDL
MODEL 3
REMARK VINA RESULT:      -7.7      3.291      4.111
REMARK  Name = 
REMARK  3 active torsions:
REMARK  status: ('A' for Active; 'I' for Inactive)
REMARK    1  A    between atoms: C_4  and  C_5
REMARK    2  A    between atoms: N_10  and  C_11
REMARK    3  A    between atoms: C_14  and  N_15
REMARK                            x       y       z     vdW  Elec       q    Type
REMARK                         _______ _______ _______ _____ _____    ______ ____
ROOT
ATOM      1  C   UNL     1       0.308  12.446  18.712  0.00  0.00    +0.000 A 
ATOM      2  C   UNL     1      -1.014  12.059  18.589  0.00  0.00    +0.000 A 
ATOM      3  C   UNL     1      -1.270  10.724  18.717  0.00  0.00    +0.000 A 
ATOM      4  N   UNL     1      -0.312   9.819  18.938  0.00  0.00    +0.000 NA
ATOM      5  C   UNL     1       0.956  10.250  19.028  0.00  0.00    +0.000 A 
ATOM      6  N   UNL     1       1.980   9.340  19.289  0.00  0.00    +0.000 N 
ATOM      7  N   UNL     1       1.298  11.545  18.926  0.00  0.00    +0.000 NA
ATOM      8  H   UNL     1       2.854   9.813  19.460  0.00  0.00    +0.000 HD
ENDROOT
BRANCH   1  12
ATOM      9  C   UNL     1       1.487  16.585  18.491  0.00  0.00    +0.000 A 
ATOM     10  C   UNL     1       2.440  15.580  18.354  0.00  0.00    +0.000 A 
ATOM     11  C   UNL     1       2.054  14.238  18.414  0.00  0.00    +0.000 A 
ATOM     12  C   UNL     1       0.711  13.866  18.620  0.00  0.00    +0.000 A 
ATOM     13  C   UNL     1      -0.234  14.901  18.744  0.00  0.00    +0.000 A 
ATOM     14  C   UNL     1       0.152  16.245  18.684  0.00  0.00    +0.000 A 
ENDBRANCH   1  12
BRANCH   6  15
ATOM     15  C   UNL     1       1.962   7.940  19.339  0.00  0.00    +0.000 A 
ATOM     16  C   UNL     1       1.679   7.231  20.507  0.00  0.00    +0.000 A 
ATOM     17  C   UNL     1       1.754   5.834  20.560  0.00  0.00    +0.000 A 
ATOM     18  C   UNL     1       2.125   5.078  19.448  0.00  0.00    +0.000 A 
ATOM     19  C   UNL     1       2.419   5.792  18.277  0.00  0.00    +0.000 A 
ATOM     20  C   UNL     1       2.336   7.195  18.219  0.00  0.00    +0.000 A 
BRANCH  18  21
ATOM     21  N   UNL     1       2.169   3.699  19.475  0.00  0.00    +0.000 N 
ATOM     22  C   UNL     1       3.042   2.957  20.398  0.00  0.00    +0.000 C 
ATOM     23  C   UNL     1       4.145   2.214  19.633  0.00  0.00    +0.000 C 
ATOM     24  O   UNL     1       3.594   1.370  18.608  0.00  0.00    +0.000 OA
ATOM     25  C   UNL     1       2.857   2.164  17.663  0.00  0.00    +0.000 C 
ATOM     26  C   UNL     1       1.687   2.914  18.327  0.00  0.00    +0.000 C 
ENDBRANCH  18  21
ENDBRANCH   6  15
TORSDOF 3
ENDMDL
MODEL 4
REMARK VINA RESULT:      -7.7      3.589      9.761
REMARK  Name = 
REMARK  3 active torsions:
REMARK  status: ('A' for Active; 'I' for Inactive)
REMARK    1  A    between atoms: C_4  and  C_5
REMARK    2  A    between atoms: N_10  and  C_11
REMARK    3  A    between atoms: C_14  and  N_15
REMARK                            x       y       z     vdW  Elec       q    Type
REMARK                         _______ _______ _______ _____ _____    ______ ____
ROOT
ATOM      1  C   UNL     1       3.505   6.340  18.026  0.00  0.00    +0.000 A 
ATOM      2  C   UNL     1       3.254   5.750  19.251  0.00  0.00    +0.000 A 
ATOM      3  C   UNL     1       2.402   6.419  20.083  0.00  0.00    +0.000 A 
ATOM      4  N   UNL     1       1.839   7.587  19.759  0.00  0.00    +0.000 NA
ATOM      5  C   UNL     1       2.136   8.122  18.564  0.00  0.00    +0.000 A 
ATOM      6  N   UNL     1       1.544   9.324  18.178  0.00  0.00    +0.000 N 
ATOM      7  N   UNL     1       2.954   7.529  17.679  0.00  0.00    +0.000 NA
ATOM      8  H   UNL     1       1.752   9.540  17.215  0.00  0.00    +0.000 HD
ENDROOT
BRANCH   1  12
ATOM      9  C   UNL     1       6.120   4.487  15.145  0.00  0.00    +0.000 A 
ATOM     10  C   UNL     1       5.460   3.707  16.090  0.00  0.00    +0.000 A 
ATOM     11  C   UNL     1       4.602   4.309  17.015  0.00  0.00    +0.000 A 
ATOM     12  C   UNL     1       4.389   5.702  17.027  0.00  0.00    +0.000 A 
ATOM     13  C   UNL     1       5.062   6.465  16.054  0.00  0.00    +0.000 A 
ATOM     14  C   UNL     1       5.919   5.864  15.126  0.00  0.00    +0.000 A 
ENDBRANCH   1  12
BRANCH   6  15
ATOM     15  C   UNL     1       0.750  10.221  18.903  0.00  0.00    +0.000 A 
ATOM     16  C   UNL     1       1.242  10.964  19.978  0.00  0.00    +0.000 A 
ATOM     17  C   UNL     1       0.412  11.789  20.748  0.00  0.00    +0.000 A 
ATOM     18  C   UNL     1      -0.953  11.902  20.486  0.00  0.00    +0.000 A 
ATOM     19  C   UNL     1      -1.449  11.148  19.412  0.00  0.00    +0.000 A 
ATOM     20  C   UNL     1      -0.616  10.326  18.632  0.00  0.00    +0.000 A 
BRANCH  18  21
ATOM     21  N   UNL     1      -1.776  12.738  21.213  0.00  0.00    +0.000 N 
ATOM     22  C   UNL     1      -1.727  12.808  22.682  0.00  0.00    +0.000 C 
ATOM     23  C   UNL     1      -3.016  12.256  23.303  0.00  0.00    +0.000 C 
ATOM     24  O   UNL     1      -4.178  12.910  22.766  0.00  0.00    +0.000 OA
ATOM     25  C   UNL     1      -4.245  12.702  21.345  0.00  0.00    +0.000 C 
ATOM     26  C   UNL     1      -3.012  13.271  20.618  0.00  0.00    +0.000 C 
ENDBRANCH  18  21
ENDBRANCH   6  15
TORSDOF 3
ENDMDL
MODEL 5
REMARK VINA RESULT:      -7.6      3.342      9.776
REMARK  Name = 
REMARK  3 active torsions:
REMARK  status: ('A' for Active; 'I' for Inactive)
REMARK    1  A    between atoms: C_4  and  C_5
REMARK    2  A    between atoms: N_10  and  C_11
REMARK    3  A    between atoms: C_14  and  N_15
REMARK                            x       y       z     vdW  Elec       q    Type
REMARK                         _______ _______ _______ _____ _____    ______ ____
ROOT
ATOM      1  C   UNL     1       4.042   6.021  18.162  0.00  0.00    +0.000 A 
ATOM      2  C   UNL     1       3.676   5.256  19.254  0.00  0.00    +0.000 A 
ATOM      3  C   UNL     1       2.666   5.750  20.030  0.00  0.00    +0.000 A 
ATOM      4  N   UNL     1       2.059   6.912  19.776  0.00  0.00    +0.000 NA
ATOM      5  C   UNL     1       2.470   7.623  18.713  0.00  0.00    +0.000 A 
ATOM      6  N   UNL     1       1.839   8.826  18.398  0.00  0.00    +0.000 N 
ATOM      7  N   UNL     1       3.447   7.208  17.890  0.00  0.00    +0.000 NA
ATOM      8  H   UNL     1       2.158   9.183  17.511  0.00  0.00    +0.000 HD
ENDROOT
BRANCH   1  12
ATOM      9  C   UNL     1       7.115   4.696  15.446  0.00  0.00    +0.000 A 
ATOM     10  C   UNL     1       5.971   5.321  14.955  0.00  0.00    +0.000 A 
ATOM     11  C   UNL     1       4.982   5.761  15.838  0.00  0.00    +0.000 A 
ATOM     12  C   UNL     1       5.104   5.582  17.231  0.00  0.00    +0.000 A 
ATOM     13  C   UNL     1       6.274   4.958  17.700  0.00  0.00    +0.000 A 
ATOM     14  C   UNL     1       7.266   4.518  16.817  0.00  0.00    +0.000 A 
ENDBRANCH   1  12
BRANCH   6  15
ATOM     15  C   UNL     1       0.883   9.564  19.106  0.00  0.00    +0.000 A 
ATOM     16  C   UNL     1      -0.144  10.268  18.476  0.00  0.00    +0.000 A 
ATOM     17  C   UNL     1      -1.037  11.073  19.193  0.00  0.00    +0.000 A 
ATOM     18  C   UNL     1      -0.940  11.221  20.576  0.00  0.00    +0.000 A 
ATOM     19  C   UNL     1       0.098  10.521  21.209  0.00  0.00    +0.000 A 
ATOM     20  C   UNL     1       0.991   9.705  20.492  0.00  0.00    +0.000 A 
BRANCH  18  21
ATOM     21  N   UNL     1      -1.834  11.983  21.301  0.00  0.00    +0.000 N 
ATOM     22  C   UNL     1      -2.613  13.073  20.694  0.00  0.00    +0.000 C 
ATOM     23  C   UNL     1      -2.179  14.435  21.250  0.00  0.00    +0.000 C 
ATOM     24  O   UNL     1      -2.239  14.458  22.685  0.00  0.00    +0.000 OA
ATOM     25  C   UNL     1      -1.362  13.457  23.229  0.00  0.00    +0.000 C 
ATOM     26  C   UNL     1      -1.748  12.039  22.770  0.00  0.00    +0.000 C 
ENDBRANCH  18  21
ENDBRANCH   6  15
TORSDOF 3
ENDMDL
MODEL 6
REMARK VINA RESULT:      -7.6      3.658      9.755
REMARK  Name = 
REMARK  3 active torsions:
REMARK  status: ('A' for Active; 'I' for Inactive)
REMARK    1  A    between atoms: C_4  and  C_5
REMARK    2  A    between atoms: N_10  and  C_11
REMARK    3  A    between atoms: C_14  and  N_15
REMARK                            x       y       z     vdW  Elec       q    Type
REMARK                         _______ _______ _______ _____ _____    ______ ____
ROOT
ATOM      1  C   UNL     1       3.753   6.459  18.135  0.00  0.00    +0.000 A 
ATOM      2  C   UNL     1       3.306   5.957  19.344  0.00  0.00    +0.000 A 
ATOM      3  C   UNL     1       2.332   6.678  19.976  0.00  0.00    +0.000 A 
ATOM      4  N   UNL     1       1.833   7.814  19.481  0.00  0.00    +0.000 NA
ATOM      5  C   UNL     1       2.321   8.263  18.313  0.00  0.00    +0.000 A 
ATOM      6  N   UNL     1       1.803   9.429  17.750  0.00  0.00    +0.000 N 
ATOM      7  N   UNL     1       3.269   7.615  17.618  0.00  0.00    +0.000 NA
ATOM      8  H   UNL     1       2.164   9.576  16.820  0.00  0.00    +0.000 HD
ENDROOT
BRANCH   1  12
ATOM      9  C   UNL     1       6.742   4.435  15.781  0.00  0.00    +0.000 A 
ATOM     10  C   UNL     1       7.028   5.668  16.361  0.00  0.00    +0.000 A 
ATOM     11  C   UNL     1       6.062   6.317  17.135  0.00  0.00    +0.000 A 
ATOM     12  C   UNL     1       4.785   5.757  17.342  0.00  0.00    +0.000 A 
ATOM     13  C   UNL     1       4.526   4.506  16.752  0.00  0.00    +0.000 A 
ATOM     14  C   UNL     1       5.493   3.855  15.979  0.00  0.00    +0.000 A 
ENDBRANCH   1  12
BRANCH   6  15
ATOM     15  C   UNL     1       0.905  10.370  18.270  0.00  0.00    +0.000 A 
ATOM     16  C   UNL     1       1.323  11.530  18.924  0.00  0.00    +0.000 A 
ATOM     17  C   UNL     1       0.413  12.414  19.516  0.00  0.00    +0.000 A 
ATOM     18  C   UNL     1      -0.961  12.175  19.491  0.00  0.00    +0.000 A 
ATOM     19  C   UNL     1      -1.380  11.004  18.843  0.00  0.00    +0.000 A 
ATOM     20  C   UNL     1      -0.468  10.119  18.240  0.00  0.00    +0.000 A 
BRANCH  18  21
ATOM     21  N   UNL     1      -1.872  13.055  20.040  0.00  0.00    +0.000 N 
ATOM     22  C   UNL     1      -1.461  14.299  20.710  0.00  0.00    +0.000 C 
ATOM     23  C   UNL     1      -1.767  14.241  22.212  0.00  0.00    +0.000 C 
ATOM     24  O   UNL     1      -3.148  13.924  22.453  0.00  0.00    +0.000 OA
ATOM     25  C   UNL     1      -3.463  12.640  21.887  0.00  0.00    +0.000 C 
ATOM     26  C   UNL     1      -3.237  12.609  20.364  0.00  0.00    +0.000 C 
ENDBRANCH  18  21
ENDBRANCH   6  15
TORSDOF 3
ENDMDL
MODEL 7
REMARK VINA RESULT:      -7.6      3.876      9.930
REMARK  Name = 
REMARK  3 active torsions:
REMARK  status: ('A' for Active; 'I' for Inactive)
REMARK    1  A    between atoms: C_4  and  C_5
REMARK    2  A    between atoms: N_10  and  C_11
REMARK    3  A    between atoms: C_14  and  N_15
REMARK                            x       y       z     vdW  Elec       q    Type
REMARK                         _______ _______ _______ _____ _____    ______ ____
ROOT
ATOM      1  C   UNL     1       2.445   7.120  18.761  0.00  0.00    +0.000 A 
ATOM      2  C   UNL     1       2.421   8.002  17.696  0.00  0.00    +0.000 A 
ATOM      3  C   UNL     1       1.900   9.240  17.946  0.00  0.00    +0.000 A 
ATOM      4  N   UNL     1       1.422   9.598  19.141  0.00  0.00    +0.000 NA
ATOM      5  C   UNL     1       1.453   8.692  20.132  0.00  0.00    +0.000 A 
ATOM      6  N   UNL     1       0.991   9.040  21.401  0.00  0.00    +0.000 N 
ATOM      7  N   UNL     1       1.957   7.457  19.979  0.00  0.00    +0.000 NA
ATOM      8  H   UNL     1       1.193   8.316  22.073  0.00  0.00    +0.000 HD
ENDROOT
BRANCH   1  12
ATOM      9  C   UNL     1       4.067   3.143  18.408  0.00  0.00    +0.000 A 
ATOM     10  C   UNL     1       2.809   3.432  17.886  0.00  0.00    +0.000 A 
ATOM     11  C   UNL     1       2.291   4.725  17.990  0.00  0.00    +0.000 A 
ATOM     12  C   UNL     1       3.008   5.759  18.624  0.00  0.00    +0.000 A 
ATOM     13  C   UNL     1       4.281   5.442  19.134  0.00  0.00    +0.000 A 
ATOM     14  C   UNL     1       4.801   4.148  19.029  0.00  0.00    +0.000 A 
ENDBRANCH   1  12
BRANCH   6  15
ATOM     15  C   UNL     1       0.322  10.188  21.843  0.00  0.00    +0.000 A 
ATOM     16  C   UNL     1      -0.693  10.147  22.801  0.00  0.00    +0.000 A 
ATOM     17  C   UNL     1      -1.411  11.292  23.165  0.00  0.00    +0.000 A 
ATOM     18  C   UNL     1      -1.157  12.532  22.581  0.00  0.00    +0.000 A 
ATOM     19  C   UNL     1      -0.145  12.571  21.611  0.00  0.00    +0.000 A 
ATOM     20  C   UNL     1       0.585  11.424  21.250  0.00  0.00    +0.000 A 
BRANCH  18  21
ATOM     21  N   UNL     1      -1.834  13.676  22.955  0.00  0.00    +0.000 N 
ATOM     22  C   UNL     1      -1.145  14.854  23.505  0.00  0.00    +0.000 C 
ATOM     23  C   UNL     1      -1.518  15.072  24.977  0.00  0.00    +0.000 C 
ATOM     24  O   UNL     1      -2.943  15.145  25.150  0.00  0.00    +0.000 OA
ATOM     25  C   UNL     1      -3.553  13.918  24.716  0.00  0.00    +0.000 C 
ATOM     26  C   UNL     1      -3.280  13.632  23.227  0.00  0.00    +0.000 C 
ENDBRANCH  18  21
ENDBRANCH   6  15
TORSDOF 3
ENDMDL
MODEL 8
REMARK VINA RESULT:      -7.6      3.648      9.782
REMARK  Name = 
REMARK  3 active torsions:
REMARK  status: ('A' for Active; 'I' for Inactive)
REMARK    1  A    between atoms: C_4  and  C_5
REMARK    2  A    between atoms: N_10  and  C_11
REMARK    3  A    between atoms: C_14  and  N_15
REMARK                            x       y       z     vdW  Elec       q    Type
REMARK                         _______ _______ _______ _____ _____    ______ ____
ROOT
ATOM      1  C   UNL     1       2.993   6.167  18.808  0.00  0.00    +0.000 A 
ATOM      2  C   UNL     1       2.634   5.329  19.848  0.00  0.00    +0.000 A 
ATOM      3  C   UNL     1       1.838   5.873  20.816  0.00  0.00    +0.000 A 
ATOM      4  N   UNL     1       1.428   7.144  20.790  0.00  0.00    +0.000 NA
ATOM      5  C   UNL     1       1.826   7.916  19.766  0.00  0.00    +0.000 A 
ATOM      6  N   UNL     1       1.393   9.239  19.688  0.00  0.00    +0.000 N 
ATOM      7  N   UNL     1       2.598   7.463  18.765  0.00  0.00    +0.000 NA
ATOM      8  H   UNL     1       1.657   9.658  18.810  0.00  0.00    +0.000 HD
ENDROOT
BRANCH   1  12
ATOM      9  C   UNL     1       5.469   4.779  15.565  0.00  0.00    +0.000 A 
ATOM     10  C   UNL     1       4.807   3.863  16.379  0.00  0.00    +0.000 A 
ATOM     11  C   UNL     1       3.995   4.316  17.421  0.00  0.00    +0.000 A 
ATOM     12  C   UNL     1       3.829   5.691  17.685  0.00  0.00    +0.000 A 
ATOM     13  C   UNL     1       4.502   6.594  16.841  0.00  0.00    +0.000 A 
ATOM     14  C   UNL     1       5.314   6.142  15.796  0.00  0.00    +0.000 A 
ENDBRANCH   1  12
BRANCH   6  15
ATOM     15  C   UNL     1       0.686  10.021  20.610  0.00  0.00    +0.000 A 
ATOM     16  C   UNL     1      -0.014   9.471  21.685  0.00  0.00    +0.000 A 
ATOM     17  C   UNL     1      -0.788  10.259  22.544  0.00  0.00    +0.000 A 
ATOM     18  C   UNL     1      -0.908  11.637  22.364  0.00  0.00    +0.000 A 
ATOM     19  C   UNL     1      -0.213  12.188  21.278  0.00  0.00    +0.000 A 
ATOM     20  C   UNL     1       0.572  11.399  20.418  0.00  0.00    +0.000 A 
BRANCH  18  21
ATOM     21  N   UNL     1      -1.640  12.432  23.223  0.00  0.00    +0.000 N 
ATOM     22  C   UNL     1      -3.030  12.123  23.591  0.00  0.00    +0.000 C 
ATOM     23  C   UNL     1      -3.995  13.172  23.024  0.00  0.00    +0.000 C 
ATOM     24  O   UNL     1      -3.612  14.501  23.414  0.00  0.00    +0.000 OA
ATOM     25  C   UNL     1      -2.295  14.797  22.919  0.00  0.00    +0.000 C 
ATOM     26  C   UNL     1      -1.237  13.825  23.475  0.00  0.00    +0.000 C 
ENDBRANCH  18  21
ENDBRANCH   6  15
TORSDOF 3
ENDMDL
MODEL 9
REMARK VINA RESULT:      -7.6      3.637      9.723
REMARK  Name = 
REMARK  3 active torsions:
REMARK  status: ('A' for Active; 'I' for Inactive)
REMARK    1  A    between atoms: C_4  and  C_5
REMARK    2  A    between atoms: N_10  and  C_11
REMARK    3  A    between atoms: C_14  and  N_15
REMARK                            x       y       z     vdW  Elec       q    Type
REMARK                         _______ _______ _______ _____ _____    ______ ____
ROOT
ATOM      1  C   UNL     1       3.144   6.548  18.398  0.00  0.00    +0.000 A 
ATOM      2  C   UNL     1       2.865   5.978  19.627  0.00  0.00    +0.000 A 
ATOM      3  C   UNL     1       2.039   6.688  20.452  0.00  0.00    +0.000 A 
ATOM      4  N   UNL     1       1.526   7.876  20.118  0.00  0.00    +0.000 NA
ATOM      5  C   UNL     1       1.848   8.389  18.920  0.00  0.00    +0.000 A 
ATOM      6  N   UNL     1       1.308   9.612  18.524  0.00  0.00    +0.000 N 
ATOM      7  N   UNL     1       2.643   7.756  18.042  0.00  0.00    +0.000 NA
ATOM      8  H   UNL     1       1.527   9.813  17.560  0.00  0.00    +0.000 HD
ENDROOT
BRANCH   1  12
ATOM      9  C   UNL     1       5.686   4.564  15.539  0.00  0.00    +0.000 A 
ATOM     10  C   UNL     1       4.929   3.816  16.437  0.00  0.00    +0.000 A 
ATOM     11  C   UNL     1       4.096   4.461  17.355  0.00  0.00    +0.000 A 
ATOM     12  C   UNL     1       4.003   5.867  17.406  0.00  0.00    +0.000 A 
ATOM     13  C   UNL     1       4.771   6.598  16.481  0.00  0.00    +0.000 A 
ATOM     14  C   UNL     1       5.604   5.953  15.561  0.00  0.00    +0.000 A 
ENDBRANCH   1  12
BRANCH   6  15
ATOM     15  C   UNL     1       0.550  10.547  19.240  0.00  0.00    +0.000 A 
ATOM     16  C   UNL     1       1.073  11.287  20.302  0.00  0.00    +0.000 A 
ATOM     17  C   UNL     1       0.278  12.150  21.064  0.00  0.00    +0.000 A 
ATOM     18  C   UNL     1      -1.084  12.309  20.807  0.00  0.00    +0.000 A 
ATOM     19  C   UNL     1      -1.612  11.558  19.747  0.00  0.00    +0.000 A 
ATOM     20  C   UNL     1      -0.813  10.696  18.974  0.00  0.00    +0.000 A 
BRANCH  18  21
ATOM     21  N   UNL     1      -1.873  13.183  21.527  0.00  0.00    +0.000 N 
ATOM     22  C   UNL     1      -1.322  14.369  22.202  0.00  0.00    +0.000 C 
ATOM     23  C   UNL     1      -1.419  14.229  23.727  0.00  0.00    +0.000 C 
ATOM     24  O   UNL     1      -2.766  13.943  24.141  0.00  0.00    +0.000 OA
ATOM     25  C   UNL     1      -3.209  12.708  23.554  0.00  0.00    +0.000 C 
ATOM     26  C   UNL     1      -3.197  12.763  22.014  0.00  0.00    +0.000 C 
ENDBRANCH  18  21
ENDBRANCH   6  15
TORSDOF 3
ENDMDL
