MODEL 1
REMARK VINA RESULT:      -8.2      0.000      0.000
REMARK  Name = 
REMARK  8 active torsions:
REMARK  status: ('A' for Active; 'I' for Inactive)
REMARK    1  A    between atoms: C_1  and  C_2
REMARK    2  A    between atoms: C_2  and  C_3
REMARK    3  A    between atoms: C_2  and  C_4
REMARK    4  A    between atoms: C_2  and  C_5
REMARK    5  A    between atoms: C_8  and  O_9
REMARK    6  A    between atoms: C_10  and  N_11
REMARK    7  A    between atoms: C_12  and  C_13
REMARK    8  A    between atoms: C_14  and  O_15
REMARK                            x       y       z     vdW  Elec       q    Type
REMARK                         _______ _______ _______ _____ _____    ______ ____
ROOT
ATOM      1  N   UNL     1       2.149   7.088  18.699  0.00  0.00    +0.000 NA
ATOM      2  C   UNL     1       2.113   7.947  19.676  0.00  0.00    +0.000 C 
ENDROOT
BRANCH   2   3
ATOM      3  C   UNL     1       1.220   9.140  19.643  0.00  0.00    +0.000 A 
ATOM      4  C   UNL     1       1.148   9.908  18.470  0.00  0.00    +0.000 A 
ATOM      5  C   UNL     1       0.359  11.050  18.411  0.00  0.00    +0.000 A 
ATOM      6  C   UNL     1      -0.322  11.477  19.547  0.00  0.00    +0.000 A 
ATOM      7  C   UNL     1      -0.246  10.755  20.745  0.00  0.00    +0.000 A 
ATOM      8  C   UNL     1      -0.898  11.253  21.889  0.00  0.00    +0.000 A 
ATOM      9  C   UNL     1      -0.864  10.559  23.095  0.00  0.00    +0.000 A 
ATOM     10  C   UNL     1      -0.210   9.338  23.164  0.00  0.00    +0.000 A 
ATOM     11  C   UNL     1       0.454   8.837  22.039  0.00  0.00    +0.000 A 
ATOM     12  C   UNL     1       0.487   9.541  20.806  0.00  0.00    +0.000 A 
BRANCH   4  13
ATOM     13  O   UNL     1       1.840   9.603  17.326  0.00  0.00    +0.000 OA
ATOM     14  H   UNL     1       1.961  10.447  16.837  0.00  0.00    +0.000 HD
ENDBRANCH   4  13
ENDBRANCH   2   3
BRANCH   1  19
ATOM     15  C   UNL     1       5.464   5.374  18.505  0.00  0.00    +0.000 A 
ATOM     16  C   UNL     1       5.115   4.082  18.939  0.00  0.00    +0.000 A 
ATOM     17  C   UNL     1       3.802   3.761  19.286  0.00  0.00    +0.000 A 
ATOM     18  C   UNL     1       2.803   4.729  19.203  0.00  0.00    +0.000 A 
ATOM     19  C   UNL     1       3.091   6.030  18.757  0.00  0.00    +0.000 A 
ATOM     20  C   UNL     1       4.427   6.331  18.429  0.00  0.00    +0.000 A 
BRANCH  15  22
ATOM     21  C   UNL     1       7.449   4.560  17.197  0.00  0.00    +0.000 C 
ATOM     22  C   UNL     1       6.924   5.680  18.122  0.00  0.00    +0.000 C 
ATOM     23  C   UNL     1       7.817   5.740  19.384  0.00  0.00    +0.000 C 
ATOM     24  C   UNL     1       7.106   7.021  17.377  0.00  0.00    +0.000 C 
ENDBRANCH  15  22
BRANCH  18  25
ATOM     25  O   UNL     1       1.525   4.390  19.571  0.00  0.00    +0.000 OA
ATOM     26  H   UNL     1       1.159   3.785  18.907  0.00  0.00    +0.000 HD
ENDBRANCH  18  25
ENDBRANCH   1  19
TORSDOF 5
ENDMDL
MODEL 2
REMARK VINA RESULT:      -8.1      1.759      3.112
REMARK  Name = 
REMARK  8 active torsions:
REMARK  status: ('A' for Active; 'I' for Inactive)
REMARK    1  A    between atoms: C_1  and  C_2
REMARK    2  A    between atoms: C_2  and  C_3
REMARK    3  A    between atoms: C_2  and  C_4
REMARK    4  A    between atoms: C_2  and  C_5
REMARK    5  A    between atoms: C_8  and  O_9
REMARK    6  A    between atoms: C_10  and  N_11
REMARK    7  A    between atoms: C_12  and  C_13
REMARK    8  A    between atoms: C_14  and  O_15
REMARK                            x       y       z     vdW  Elec       q    Type
REMARK                         _______ _______ _______ _____ _____    ______ ____
ROOT
ATOM      1  N   UNL     1       2.055   7.606  18.211  0.00  0.00    +0.000 NA
ATOM      2  C   UNL     1       1.916   8.172  19.376  0.00  0.00    +0.000 C 
ENDROOT
BRANCH   2   3
ATOM      3  C   UNL     1       1.205   9.471  19.539  0.00  0.00    +0.000 A 
ATOM      4  C   UNL     1       1.335  10.452  18.543  0.00  0.00    +0.000 A 
ATOM      5  C   UNL     1       0.721  11.691  18.676  0.00  0.00    +0.000 A 
ATOM      6  C   UNL     1       0.020  11.992  19.839  0.00  0.00    +0.000 A 
ATOM      7  C   UNL     1      -0.101  11.052  20.870  0.00  0.00    +0.000 A 
ATOM      8  C   UNL     1      -0.764  11.415  22.057  0.00  0.00    +0.000 A 
ATOM      9  C   UNL     1      -0.923  10.506  23.099  0.00  0.00    +0.000 A 
ATOM     10  C   UNL     1      -0.455   9.208  22.953  0.00  0.00    +0.000 A 
ATOM     11  C   UNL     1       0.218   8.836  21.784  0.00  0.00    +0.000 A 
ATOM     12  C   UNL     1       0.447   9.750  20.721  0.00  0.00    +0.000 A 
BRANCH   4  13
ATOM     13  O   UNL     1       2.065  10.270  17.396  0.00  0.00    +0.000 OA
ATOM     14  H   UNL     1       2.068   9.304  17.215  0.00  0.00    +0.000 HD
ENDBRANCH   4  13
ENDBRANCH   2   3
BRANCH   1  19
ATOM     15  C   UNL     1       2.922   3.990  18.578  0.00  0.00    +0.000 A 
ATOM     16  C   UNL     1       4.160   3.950  17.912  0.00  0.00    +0.000 A 
ATOM     17  C   UNL     1       4.722   5.098  17.350  0.00  0.00    +0.000 A 
ATOM     18  C   UNL     1       4.056   6.318  17.447  0.00  0.00    +0.000 A 
ATOM     19  C   UNL     1       2.825   6.420  18.119  0.00  0.00    +0.000 A 
ATOM     20  C   UNL     1       2.274   5.243  18.661  0.00  0.00    +0.000 A 
BRANCH  15  22
ATOM     21  C   UNL     1       3.186   1.494  18.714  0.00  0.00    +0.000 C 
ATOM     22  C   UNL     1       2.346   2.700  19.192  0.00  0.00    +0.000 C 
ATOM     23  C   UNL     1       0.880   2.491  18.744  0.00  0.00    +0.000 C 
ATOM     24  C   UNL     1       2.352   2.686  20.736  0.00  0.00    +0.000 C 
ENDBRANCH  15  22
BRANCH  18  25
ATOM     25  O   UNL     1       4.622   7.425  16.867  0.00  0.00    +0.000 OA
ATOM     26  H   UNL     1       4.851   8.060  17.563  0.00  0.00    +0.000 HD
ENDBRANCH  18  25
ENDBRANCH   1  19
TORSDOF 5
ENDMDL
MODEL 3
REMARK VINA RESULT:      -8.1      1.908      3.182
REMARK  Name = 
REMARK  8 active torsions:
REMARK  status: ('A' for Active; 'I' for Inactive)
REMARK    1  A    between atoms: C_1  and  C_2
REMARK    2  A    between atoms: C_2  and  C_3
REMARK    3  A    between atoms: C_2  and  C_4
REMARK    4  A    between atoms: C_2  and  C_5
REMARK    5  A    between atoms: C_8  and  O_9
REMARK    6  A    between atoms: C_10  and  N_11
REMARK    7  A    between atoms: C_12  and  C_13
REMARK    8  A    between atoms: C_14  and  O_15
REMARK                            x       y       z     vdW  Elec       q    Type
REMARK                         _______ _______ _______ _____ _____    ______ ____
ROOT
ATOM      1  N   UNL     1       2.667   7.920  18.410  0.00  0.00    +0.000 NA
ATOM      2  C   UNL     1       1.592   8.140  19.109  0.00  0.00    +0.000 C 
ENDROOT
BRANCH   2   3
ATOM      3  C   UNL     1       1.116   9.521  19.408  0.00  0.00    +0.000 A 
ATOM      4  C   UNL     1       1.407  10.555  18.503  0.00  0.00    +0.000 A 
ATOM      5  C   UNL     1       1.017  11.863  18.763  0.00  0.00    +0.000 A 
ATOM      6  C   UNL     1       0.384  12.168  19.964  0.00  0.00    +0.000 A 
ATOM      7  C   UNL     1       0.110  11.168  20.907  0.00  0.00    +0.000 A 
ATOM      8  C   UNL     1      -0.474  11.526  22.136  0.00  0.00    +0.000 A 
ATOM      9  C   UNL     1      -0.781  10.563  23.093  0.00  0.00    +0.000 A 
ATOM     10  C   UNL     1      -0.545   9.224  22.818  0.00  0.00    +0.000 A 
ATOM     11  C   UNL     1       0.048   8.855  21.606  0.00  0.00    +0.000 A 
ATOM     12  C   UNL     1       0.424   9.812  20.626  0.00  0.00    +0.000 A 
BRANCH   4  13
ATOM     13  O   UNL     1       2.088  10.360  17.329  0.00  0.00    +0.000 OA
ATOM     14  H   UNL     1       2.632  11.165  17.181  0.00  0.00    +0.000 HD
ENDBRANCH   4  13
ENDBRANCH   2   3
BRANCH   1  19
ATOM     15  C   UNL     1       2.784   4.216  18.887  0.00  0.00    +0.000 A 
ATOM     16  C   UNL     1       3.779   3.864  17.956  0.00  0.00    +0.000 A 
ATOM     17  C   UNL     1       4.422   4.829  17.178  0.00  0.00    +0.000 A 
ATOM     18  C   UNL     1       4.084   6.174  17.318  0.00  0.00    +0.000 A 
ATOM     19  C   UNL     1       3.111   6.584  18.247  0.00  0.00    +0.000 A 
ATOM     20  C   UNL     1       2.468   5.588  19.006  0.00  0.00    +0.000 A 
BRANCH  15  22
ATOM     21  C   UNL     1       0.784   3.665  20.305  0.00  0.00    +0.000 C 
ATOM     22  C   UNL     1       2.110   3.118  19.731  0.00  0.00    +0.000 C 
ATOM     23  C   UNL     1       3.023   2.697  20.907  0.00  0.00    +0.000 C 
ATOM     24  C   UNL     1       1.777   1.836  18.936  0.00  0.00    +0.000 C 
ENDBRANCH  15  22
BRANCH  18  25
ATOM     25  O   UNL     1       4.717   7.098  16.525  0.00  0.00    +0.000 OA
ATOM     26  H   UNL     1       5.142   6.636  15.786  0.00  0.00    +0.000 HD
ENDBRANCH  18  25
ENDBRANCH   1  19
TORSDOF 5
ENDMDL
MODEL 4
REMARK VINA RESULT:      -8.0      0.653      1.199
REMARK  Name = 
REMARK  8 active torsions:
REMARK  status: ('A' for Active; 'I' for Inactive)
REMARK    1  A    between atoms: C_1  and  C_2
REMARK    2  A    between atoms: C_2  and  C_3
REMARK    3  A    between atoms: C_2  and  C_4
REMARK    4  A    between atoms: C_2  and  C_5
REMARK    5  A    between atoms: C_8  and  O_9
REMARK    6  A    between atoms: C_10  and  N_11
REMARK    7  A    between atoms: C_12  and  C_13
REMARK    8  A    between atoms: C_14  and  O_15
REMARK                            x       y       z     vdW  Elec       q    Type
REMARK                         _______ _______ _______ _____ _____    ______ ____
ROOT
ATOM      1  N   UNL     1       2.049   7.360  18.733  0.00  0.00    +0.000 NA
ATOM      2  C   UNL     1       1.965   8.183  19.738  0.00  0.00    +0.000 C 
ENDROOT
BRANCH   2   3
ATOM      3  C   UNL     1       1.060   9.367  19.712  0.00  0.00    +0.000 A 
ATOM      4  C   UNL     1       0.998  10.155  18.552  0.00  0.00    +0.000 A 
ATOM      5  C   UNL     1       0.197  11.289  18.501  0.00  0.00    +0.000 A 
ATOM      6  C   UNL     1      -0.506  11.689  19.633  0.00  0.00    +0.000 A 
ATOM      7  C   UNL     1      -0.440  10.947  20.820  0.00  0.00    +0.000 A 
ATOM      8  C   UNL     1      -1.114  11.417  21.961  0.00  0.00    +0.000 A 
ATOM      9  C   UNL     1      -1.092  10.702  23.155  0.00  0.00    +0.000 A 
ATOM     10  C   UNL     1      -0.426   9.487  23.213  0.00  0.00    +0.000 A 
ATOM     11  C   UNL     1       0.261   9.013  22.090  0.00  0.00    +0.000 A 
ATOM     12  C   UNL     1       0.305   9.739  20.870  0.00  0.00    +0.000 A 
BRANCH   4  13
ATOM     13  O   UNL     1       1.711   9.878  17.413  0.00  0.00    +0.000 OA
ATOM     14  H   UNL     1       2.188  10.703  17.172  0.00  0.00    +0.000 HD
ENDBRANCH   4  13
ENDBRANCH   2   3
BRANCH   1  19
ATOM     15  C   UNL     1       5.203   5.488  18.018  0.00  0.00    +0.000 A 
ATOM     16  C   UNL     1       5.051   4.384  18.877  0.00  0.00    +0.000 A 
ATOM     17  C   UNL     1       3.921   4.239  19.683  0.00  0.00    +0.000 A 
ATOM     18  C   UNL     1       2.910   5.198  19.644  0.00  0.00    +0.000 A 
ATOM     19  C   UNL     1       3.001   6.311  18.790  0.00  0.00    +0.000 A 
ATOM     20  C   UNL     1       4.159   6.440  18.001  0.00  0.00    +0.000 A 
BRANCH  15  22
ATOM     21  C   UNL     1       7.067   7.013  17.301  0.00  0.00    +0.000 C 
ATOM     22  C   UNL     1       6.463   5.601  17.139  0.00  0.00    +0.000 C 
ATOM     23  C   UNL     1       6.109   5.381  15.649  0.00  0.00    +0.000 C 
ATOM     24  C   UNL     1       7.567   4.581  17.496  0.00  0.00    +0.000 C 
ENDBRANCH  15  22
BRANCH  18  25
ATOM     25  O   UNL     1       1.821   5.040  20.464  0.00  0.00    +0.000 OA
ATOM     26  H   UNL     1       1.971   4.272  21.038  0.00  0.00    +0.000 HD
ENDBRANCH  18  25
ENDBRANCH   1  19
TORSDOF 5
ENDMDL
MODEL 5
REMARK VINA RESULT:      -7.5      1.240      1.363
REMARK  Name = 
REMARK  8 active torsions:
REMARK  status: ('A' for Active; 'I' for Inactive)
REMARK    1  A    between atoms: C_1  and  C_2
REMARK    2  A    between atoms: C_2  and  C_3
REMARK    3  A    between atoms: C_2  and  C_4
REMARK    4  A    between atoms: C_2  and  C_5
REMARK    5  A    between atoms: C_8  and  O_9
REMARK    6  A    between atoms: C_10  and  N_11
REMARK    7  A    between atoms: C_12  and  C_13
REMARK    8  A    between atoms: C_14  and  O_15
REMARK                            x       y       z     vdW  Elec       q    Type
REMARK                         _______ _______ _______ _____ _____    ______ ____
ROOT
ATOM      1  N   UNL     1       2.386   7.648  19.653  0.00  0.00    +0.000 NA
ATOM      2  C   UNL     1       1.736   8.454  18.863  0.00  0.00    +0.000 C 
ENDROOT
BRANCH   2   3
ATOM      3  C   UNL     1       1.196   9.758  19.342  0.00  0.00    +0.000 A 
ATOM      4  C   UNL     1       1.458  10.920  18.598  0.00  0.00    +0.000 A 
ATOM      5  C   UNL     1       1.008  12.162  19.030  0.00  0.00    +0.000 A 
ATOM      6  C   UNL     1       0.342  12.268  20.247  0.00  0.00    +0.000 A 
ATOM      7  C   UNL     1       0.094  11.135  21.033  0.00  0.00    +0.000 A 
ATOM      8  C   UNL     1      -0.526  11.292  22.286  0.00  0.00    +0.000 A 
ATOM      9  C   UNL     1      -0.809  10.192  23.091  0.00  0.00    +0.000 A 
ATOM     10  C   UNL     1      -0.510   8.916  22.637  0.00  0.00    +0.000 A 
ATOM     11  C   UNL     1       0.119   8.746  21.398  0.00  0.00    +0.000 A 
ATOM     12  C   UNL     1       0.471   9.846  20.572  0.00  0.00    +0.000 A 
BRANCH   4  13
ATOM     13  O   UNL     1       2.168  10.921  17.424  0.00  0.00    +0.000 OA
ATOM     14  H   UNL     1       2.783  10.155  17.467  0.00  0.00    +0.000 HD
ENDBRANCH   4  13
ENDBRANCH   2   3
BRANCH   1  19
ATOM     15  C   UNL     1       4.337   5.158  17.664  0.00  0.00    +0.000 A 
ATOM     16  C   UNL     1       3.793   3.954  18.148  0.00  0.00    +0.000 A 
ATOM     17  C   UNL     1       2.785   3.947  19.114  0.00  0.00    +0.000 A 
ATOM     18  C   UNL     1       2.294   5.151  19.616  0.00  0.00    +0.000 A 
ATOM     19  C   UNL     1       2.787   6.383  19.154  0.00  0.00    +0.000 A 
ATOM     20  C   UNL     1       3.815   6.360  18.191  0.00  0.00    +0.000 A 
BRANCH  15  22
ATOM     21  C   UNL     1       5.374   3.763  15.849  0.00  0.00    +0.000 C 
ATOM     22  C   UNL     1       5.441   5.117  16.590  0.00  0.00    +0.000 C 
ATOM     23  C   UNL     1       6.838   5.259  17.239  0.00  0.00    +0.000 C 
ATOM     24  C   UNL     1       5.320   6.232  15.528  0.00  0.00    +0.000 C 
ENDBRANCH  15  22
BRANCH  18  25
ATOM     25  O   UNL     1       1.318   5.113  20.580  0.00  0.00    +0.000 OA
ATOM     26  H   UNL     1       0.530   4.686  20.210  0.00  0.00    +0.000 HD
ENDBRANCH  18  25
ENDBRANCH   1  19
TORSDOF 5
ENDMDL
MODEL 6
REMARK VINA RESULT:      -7.4      2.033      7.391
REMARK  Name = 
REMARK  8 active torsions:
REMARK  status: ('A' for Active; 'I' for Inactive)
REMARK    1  A    between atoms: C_1  and  C_2
REMARK    2  A    between atoms: C_2  and  C_3
REMARK    3  A    between atoms: C_2  and  C_4
REMARK    4  A    between atoms: C_2  and  C_5
REMARK    5  A    between atoms: C_8  and  O_9
REMARK    6  A    between atoms: C_10  and  N_11
REMARK    7  A    between atoms: C_12  and  C_13
REMARK    8  A    between atoms: C_14  and  O_15
REMARK                            x       y       z     vdW  Elec       q    Type
REMARK                         _______ _______ _______ _____ _____    ______ ____
ROOT
ATOM      1  N   UNL     1       2.424   8.184  18.041  0.00  0.00    +0.000 NA
ATOM      2  C   UNL     1       2.743   7.123  18.725  0.00  0.00    +0.000 C 
ENDROOT
BRANCH   2   3
ATOM      3  C   UNL     1       3.270   5.893  18.068  0.00  0.00    +0.000 A 
ATOM      4  C   UNL     1       4.331   6.007  17.155  0.00  0.00    +0.000 A 
ATOM      5  C   UNL     1       4.825   4.891  16.491  0.00  0.00    +0.000 A 
ATOM      6  C   UNL     1       4.223   3.652  16.683  0.00  0.00    +0.000 A 
ATOM      7  C   UNL     1       3.139   3.506  17.558  0.00  0.00    +0.000 A 
ATOM      8  C   UNL     1       2.516   2.251  17.677  0.00  0.00    +0.000 A 
ATOM      9  C   UNL     1       1.449   2.057  18.549  0.00  0.00    +0.000 A 
ATOM     10  C   UNL     1       1.014   3.107  19.344  0.00  0.00    +0.000 A 
ATOM     11  C   UNL     1       1.615   4.366  19.227  0.00  0.00    +0.000 A 
ATOM     12  C   UNL     1       2.671   4.616  18.310  0.00  0.00    +0.000 A 
BRANCH   4  13
ATOM     13  O   UNL     1       4.939   7.198  16.851  0.00  0.00    +0.000 OA
ATOM     14  H   UNL     1       5.662   6.991  16.217  0.00  0.00    +0.000 HD
ENDBRANCH   4  13
ENDBRANCH   2   3
BRANCH   1  19
ATOM     15  C   UNL     1       0.657  10.045  20.757  0.00  0.00    +0.000 A 
ATOM     16  C   UNL     1       0.741  11.362  20.269  0.00  0.00    +0.000 A 
ATOM     17  C   UNL     1       1.363  11.648  19.052  0.00  0.00    +0.000 A 
ATOM     18  C   UNL     1       1.913  10.618  18.292  0.00  0.00    +0.000 A 
ATOM     19  C   UNL     1       1.840   9.281  18.723  0.00  0.00    +0.000 A 
ATOM     20  C   UNL     1       1.222   9.024  19.961  0.00  0.00    +0.000 A 
BRANCH  15  22
ATOM     21  C   UNL     1      -0.954   8.533  21.955  0.00  0.00    +0.000 C 
ATOM     22  C   UNL     1      -0.048   9.776  22.101  0.00  0.00    +0.000 C 
ATOM     23  C   UNL     1      -0.924  10.983  22.508  0.00  0.00    +0.000 C 
ATOM     24  C   UNL     1       0.923   9.506  23.272  0.00  0.00    +0.000 C 
ENDBRANCH  15  22
BRANCH  18  25
ATOM     25  O   UNL     1       2.536  10.932  17.111  0.00  0.00    +0.000 OA
ATOM     26  H   UNL     1       2.205  10.341  16.416  0.00  0.00    +0.000 HD
ENDBRANCH  18  25
ENDBRANCH   1  19
TORSDOF 5
ENDMDL
MODEL 7
REMARK VINA RESULT:      -7.4      2.069      7.584
REMARK  Name = 
REMARK  8 active torsions:
REMARK  status: ('A' for Active; 'I' for Inactive)
REMARK    1  A    between atoms: C_1  and  C_2
REMARK    2  A    between atoms: C_2  and  C_3
REMARK    3  A    between atoms: C_2  and  C_4
REMARK    4  A    between atoms: C_2  and  C_5
REMARK    5  A    between atoms: C_8  and  O_9
REMARK    6  A    between atoms: C_10  and  N_11
REMARK    7  A    between atoms: C_12  and  C_13
REMARK    8  A    between atoms: C_14  and  O_15
REMARK                            x       y       z     vdW  Elec       q    Type
REMARK                         _______ _______ _______ _____ _____    ______ ____
ROOT
ATOM      1  N   UNL     1       1.926   8.135  18.815  0.00  0.00    +0.000 NA
ATOM      2  C   UNL     1       2.192   6.975  19.343  0.00  0.00    +0.000 C 
ENDROOT
BRANCH   2   3
ATOM      3  C   UNL     1       2.850   5.888  18.564  0.00  0.00    +0.000 A 
ATOM      4  C   UNL     1       3.883   6.216  17.671  0.00  0.00    +0.000 A 
ATOM      5  C   UNL     1       4.495   5.239  16.896  0.00  0.00    +0.000 A 
ATOM      6  C   UNL     1       4.039   3.926  16.956  0.00  0.00    +0.000 A 
ATOM      7  C   UNL     1       2.987   3.567  17.809  0.00  0.00    +0.000 A 
ATOM      8  C   UNL     1       2.513   2.243  17.796  0.00  0.00    +0.000 A 
ATOM      9  C   UNL     1       1.483   1.840  18.640  0.00  0.00    +0.000 A 
ATOM     10  C   UNL     1       0.938   2.746  19.538  0.00  0.00    +0.000 A 
ATOM     11  C   UNL     1       1.390   4.070  19.554  0.00  0.00    +0.000 A 
ATOM     12  C   UNL     1       2.402   4.533  18.671  0.00  0.00    +0.000 A 
BRANCH   4  13
ATOM     13  O   UNL     1       4.348   7.494  17.493  0.00  0.00    +0.000 OA
ATOM     14  H   UNL     1       5.131   7.429  16.901  0.00  0.00    +0.000 HD
ENDBRANCH   4  13
ENDBRANCH   2   3
BRANCH   1  19
ATOM     15  C   UNL     1      -0.384  10.975  19.561  0.00  0.00    +0.000 A 
ATOM     16  C   UNL     1      -0.365  10.965  20.968  0.00  0.00    +0.000 A 
ATOM     17  C   UNL     1       0.406  10.043  21.679  0.00  0.00    +0.000 A 
ATOM     18  C   UNL     1       1.181   9.109  20.993  0.00  0.00    +0.000 A 
ATOM     19  C   UNL     1       1.214   9.087  19.588  0.00  0.00    +0.000 A 
ATOM     20  C   UNL     1       0.414  10.017  18.898  0.00  0.00    +0.000 A 
BRANCH  15  22
ATOM     21  C   UNL     1      -2.294  12.593  19.795  0.00  0.00    +0.000 C 
ATOM     22  C   UNL     1      -1.242  12.018  18.820  0.00  0.00    +0.000 C 
ATOM     23  C   UNL     1      -1.978  11.368  17.624  0.00  0.00    +0.000 C 
ATOM     24  C   UNL     1      -0.432  13.208  18.259  0.00  0.00    +0.000 C 
ENDBRANCH  15  22
BRANCH  18  25
ATOM     25  O   UNL     1       1.912   8.201  21.718  0.00  0.00    +0.000 OA
ATOM     26  H   UNL     1       1.691   8.301  22.657  0.00  0.00    +0.000 HD
ENDBRANCH  18  25
ENDBRANCH   1  19
TORSDOF 5
ENDMDL
MODEL 8
REMARK VINA RESULT:      -7.3      1.772      2.767
REMARK  Name = 
REMARK  8 active torsions:
REMARK  status: ('A' for Active; 'I' for Inactive)
REMARK    1  A    between atoms: C_1  and  C_2
REMARK    2  A    between atoms: C_2  and  C_3
REMARK    3  A    between atoms: C_2  and  C_4
REMARK    4  A    between atoms: C_2  and  C_5
REMARK    5  A    between atoms: C_8  and  O_9
REMARK    6  A    between atoms: C_10  and  N_11
REMARK    7  A    between atoms: C_12  and  C_13
REMARK    8  A    between atoms: C_14  and  O_15
REMARK                            x       y       z     vdW  Elec       q    Type
REMARK                         _______ _______ _______ _____ _____    ______ ____
ROOT
ATOM      1  N   UNL     1       1.780   6.973  20.385  0.00  0.00    +0.000 NA
ATOM      2  C   UNL     1       1.785   8.145  19.818  0.00  0.00    +0.000 C 
ENDROOT
BRANCH   2   3
ATOM      3  C   UNL     1       0.927   9.261  20.308  0.00  0.00    +0.000 A 
ATOM      4  C   UNL     1       1.024   9.658  21.652  0.00  0.00    +0.000 A 
ATOM      5  C   UNL     1       0.213  10.666  22.158  0.00  0.00    +0.000 A 
ATOM      6  C   UNL     1      -0.752  11.249  21.344  0.00  0.00    +0.000 A 
ATOM      7  C   UNL     1      -0.902  10.854  20.009  0.00  0.00    +0.000 A 
ATOM      8  C   UNL     1      -1.931  11.422  19.236  0.00  0.00    +0.000 A 
ATOM      9  C   UNL     1      -2.104  11.072  17.900  0.00  0.00    +0.000 A 
ATOM     10  C   UNL     1      -1.225  10.177  17.307  0.00  0.00    +0.000 A 
ATOM     11  C   UNL     1      -0.205   9.593  18.067  0.00  0.00    +0.000 A 
ATOM     12  C   UNL     1      -0.030   9.885  19.446  0.00  0.00    +0.000 A 
BRANCH   4  13
ATOM     13  O   UNL     1       1.896   9.090  22.545  0.00  0.00    +0.000 OA
ATOM     14  H   UNL     1       1.717   9.507  23.417  0.00  0.00    +0.000 HD
ENDBRANCH   4  13
ENDBRANCH   2   3
BRANCH   1  19
ATOM     15  C   UNL     1       4.283   5.340  18.142  0.00  0.00    +0.000 A 
ATOM     16  C   UNL     1       4.246   4.020  18.628  0.00  0.00    +0.000 A 
ATOM     17  C   UNL     1       3.402   3.654  19.678  0.00  0.00    +0.000 A 
ATOM     18  C   UNL     1       2.569   4.605  20.265  0.00  0.00    +0.000 A 
ATOM     19  C   UNL     1       2.551   5.934  19.807  0.00  0.00    +0.000 A 
ATOM     20  C   UNL     1       3.424   6.278  18.758  0.00  0.00    +0.000 A 
BRANCH  15  22
ATOM     21  C   UNL     1       5.283   4.504  15.994  0.00  0.00    +0.000 C 
ATOM     22  C   UNL     1       5.223   5.696  16.975  0.00  0.00    +0.000 C 
ATOM     23  C   UNL     1       6.652   5.983  17.493  0.00  0.00    +0.000 C 
ATOM     24  C   UNL     1       4.777   6.937  16.170  0.00  0.00    +0.000 C 
ENDBRANCH  15  22
BRANCH  18  25
ATOM     25  O   UNL     1       1.766   4.221  21.309  0.00  0.00    +0.000 OA
ATOM     26  H   UNL     1       1.471   5.013  21.784  0.00  0.00    +0.000 HD
ENDBRANCH  18  25
ENDBRANCH   1  19
TORSDOF 5
ENDMDL
MODEL 9
REMARK VINA RESULT:      -7.3      2.532      4.264
REMARK  Name = 
REMARK  8 active torsions:
REMARK  status: ('A' for Active; 'I' for Inactive)
REMARK    1  A    between atoms: C_1  and  C_2
REMARK    2  A    between atoms: C_2  and  C_3
REMARK    3  A    between atoms: C_2  and  C_4
REMARK    4  A    between atoms: C_2  and  C_5
REMARK    5  A    between atoms: C_8  and  O_9
REMARK    6  A    between atoms: C_10  and  N_11
REMARK    7  A    between atoms: C_12  and  C_13
REMARK    8  A    between atoms: C_14  and  O_15
REMARK                            x       y       z     vdW  Elec       q    Type
REMARK                         _______ _______ _______ _____ _____    ______ ____
ROOT
ATOM      1  N   UNL     1       1.668   8.202  20.750  0.00  0.00    +0.000 NA
ATOM      2  C   UNL     1       0.769   9.045  20.329  0.00  0.00    +0.000 C 
ENDROOT
BRANCH   2   3
ATOM      3  C   UNL     1       0.212  10.107  21.214  0.00  0.00    +0.000 A 
ATOM      4  C   UNL     1      -0.555   9.736  22.330  0.00  0.00    +0.000 A 
ATOM      5  C   UNL     1      -1.126  10.696  23.156  0.00  0.00    +0.000 A 
ATOM      6  C   UNL     1      -0.990  12.044  22.843  0.00  0.00    +0.000 A 
ATOM      7  C   UNL     1      -0.262  12.452  21.717  0.00  0.00    +0.000 A 
ATOM      8  C   UNL     1      -0.201  13.820  21.398  0.00  0.00    +0.000 A 
ATOM      9  C   UNL     1       0.526  14.271  20.300  0.00  0.00    +0.000 A 
ATOM     10  C   UNL     1       1.236  13.362  19.529  0.00  0.00    +0.000 A 
ATOM     11  C   UNL     1       1.173  11.996  19.826  0.00  0.00    +0.000 A 
ATOM     12  C   UNL     1       0.399  11.493  20.905  0.00  0.00    +0.000 A 
BRANCH   4  13
ATOM     13  O   UNL     1      -0.801   8.431  22.675  0.00  0.00    +0.000 OA
ATOM     14  H   UNL     1       0.075   7.994  22.766  0.00  0.00    +0.000 HD
ENDBRANCH   4  13
ENDBRANCH   2   3
BRANCH   1  19
ATOM     15  C   UNL     1       2.206   4.716  19.518  0.00  0.00    +0.000 A 
ATOM     16  C   UNL     1       2.727   4.969  18.237  0.00  0.00    +0.000 A 
ATOM     17  C   UNL     1       2.915   6.272  17.772  0.00  0.00    +0.000 A 
ATOM     18  C   UNL     1       2.587   7.355  18.585  0.00  0.00    +0.000 A 
ATOM     19  C   UNL     1       2.081   7.160  19.882  0.00  0.00    +0.000 A 
ATOM     20  C   UNL     1       1.887   5.835  20.318  0.00  0.00    +0.000 A 
BRANCH  15  22
ATOM     21  C   UNL     1       0.944   2.578  19.128  0.00  0.00    +0.000 C 
ATOM     22  C   UNL     1       2.026   3.261  19.993  0.00  0.00    +0.000 C 
ATOM     23  C   UNL     1       1.576   3.222  21.472  0.00  0.00    +0.000 C 
ATOM     24  C   UNL     1       3.309   2.407  19.889  0.00  0.00    +0.000 C 
ENDBRANCH  15  22
BRANCH  18  25
ATOM     25  O   UNL     1       2.762   8.624  18.094  0.00  0.00    +0.000 OA
ATOM     26  H   UNL     1       1.995   8.857  17.548  0.00  0.00    +0.000 HD
ENDBRANCH  18  25
ENDBRANCH   1  19
TORSDOF 5
ENDMDL
