MODEL 1
REMARK VINA RESULT:      -7.5      0.000      0.000
REMARK  Name = 
REMARK  2 active torsions:
REMARK  status: ('A' for Active; 'I' for Inactive)
REMARK    1  A    between atoms: C_2  and  N_3
REMARK    2  A    between atoms: C_2  and  C_12
REMARK                            x       y       z     vdW  Elec       q    Type
REMARK                         _______ _______ _______ _____ _____    ______ ____
ROOT
ATOM      1  O   UNL     1       2.842   8.676  17.331  0.00  0.00    +0.000 OA
ATOM      2  C   UNL     1       2.554   7.816  18.153  0.00  0.00    +0.000 C 
ENDROOT
BRANCH   2   3
ATOM      3  C   UNL     1       2.828   6.372  17.841  0.00  0.00    +0.000 A 
ATOM      4  C   UNL     1       1.770   5.463  18.027  0.00  0.00    +0.000 A 
ATOM      5  C   UNL     1       1.949   4.107  17.774  0.00  0.00    +0.000 A 
ATOM      6  C   UNL     1       3.185   3.645  17.332  0.00  0.00    +0.000 A 
ATOM      7  C   UNL     1       4.259   4.524  17.128  0.00  0.00    +0.000 A 
ATOM      8  C   UNL     1       5.493   4.012  16.688  0.00  0.00    +0.000 A 
ATOM      9  C   UNL     1       6.588   4.848  16.483  0.00  0.00    +0.000 A 
ATOM     10  C   UNL     1       6.464   6.207  16.718  0.00  0.00    +0.000 A 
ATOM     11  C   UNL     1       5.245   6.729  17.161  0.00  0.00    +0.000 A 
ATOM     12  C   UNL     1       4.102   5.914  17.376  0.00  0.00    +0.000 A 
ENDBRANCH   2   3
BRANCH   2  13
ATOM     13  N   UNL     1       2.049   8.059  19.413  0.00  0.00    +0.000 NA
ATOM     14  C   UNL     1       1.158   8.979  19.623  0.00  0.00    +0.000 C 
ATOM     15  S   UNL     1       0.327   9.967  18.380  0.00  0.00    +0.000 S 
ATOM     16  S   UNL     1      -0.728  11.181  19.682  0.00  0.00    +0.000 S 
ATOM     17  C   UNL     1      -0.207  10.328  21.098  0.00  0.00    +0.000 C 
ATOM     18  N   UNL     1      -0.591  10.577  22.315  0.00  0.00    +0.000 NA
ATOM     19  C   UNL     1       0.176   9.567  23.108  0.00  0.00    +0.000 C 
ATOM     20  C   UNL     1       1.002   8.708  22.121  0.00  0.00    +0.000 C 
ATOM     21  N   UNL     1       0.679   9.325  20.861  0.00  0.00    +0.000 N 
ENDBRANCH   2  13
TORSDOF 2
ENDMDL
MODEL 2
REMARK VINA RESULT:      -7.5      2.142      3.192
REMARK  Name = 
REMARK  2 active torsions:
REMARK  status: ('A' for Active; 'I' for Inactive)
REMARK    1  A    between atoms: C_2  and  N_3
REMARK    2  A    between atoms: C_2  and  C_12
REMARK                            x       y       z     vdW  Elec       q    Type
REMARK                         _______ _______ _______ _____ _____    ______ ____
ROOT
ATOM      1  O   UNL     1       2.382   4.705  18.049  0.00  0.00    +0.000 OA
ATOM      2  C   UNL     1       3.142   5.663  18.070  0.00  0.00    +0.000 C 
ENDROOT
BRANCH   2   3
ATOM      3  C   UNL     1       4.627   5.432  18.056  0.00  0.00    +0.000 A 
ATOM      4  C   UNL     1       5.307   5.559  19.281  0.00  0.00    +0.000 A 
ATOM      5  C   UNL     1       6.684   5.374  19.347  0.00  0.00    +0.000 A 
ATOM      6  C   UNL     1       7.395   5.060  18.193  0.00  0.00    +0.000 A 
ATOM      7  C   UNL     1       6.748   4.919  16.956  0.00  0.00    +0.000 A 
ATOM      8  C   UNL     1       7.507   4.607  15.814  0.00  0.00    +0.000 A 
ATOM      9  C   UNL     1       6.905   4.468  14.565  0.00  0.00    +0.000 A 
ATOM     10  C   UNL     1       5.536   4.640  14.443  0.00  0.00    +0.000 A 
ATOM     11  C   UNL     1       4.770   4.953  15.570  0.00  0.00    +0.000 A 
ATOM     12  C   UNL     1       5.341   5.099  16.862  0.00  0.00    +0.000 A 
ENDBRANCH   2   3
BRANCH   2  13
ATOM     13  N   UNL     1       2.754   6.986  18.031  0.00  0.00    +0.000 NA
ATOM     14  C   UNL     1       2.165   7.552  19.041  0.00  0.00    +0.000 C 
ATOM     15  S   UNL     1       1.886   6.832  20.657  0.00  0.00    +0.000 S 
ATOM     16  S   UNL     1       0.794   8.401  21.450  0.00  0.00    +0.000 S 
ATOM     17  C   UNL     1       1.010   9.418  20.063  0.00  0.00    +0.000 C 
ATOM     18  N   UNL     1       0.587  10.642  19.949  0.00  0.00    +0.000 NA
ATOM     19  C   UNL     1       1.028  11.008  18.567  0.00  0.00    +0.000 C 
ATOM     20  C   UNL     1       1.792   9.801  17.971  0.00  0.00    +0.000 C 
ATOM     21  N   UNL     1       1.681   8.836  19.034  0.00  0.00    +0.000 N 
ENDBRANCH   2  13
TORSDOF 2
ENDMDL
MODEL 3
REMARK VINA RESULT:      -7.4      3.409      7.171
REMARK  Name = 
REMARK  2 active torsions:
REMARK  status: ('A' for Active; 'I' for Inactive)
REMARK    1  A    between atoms: C_2  and  N_3
REMARK    2  A    between atoms: C_2  and  C_12
REMARK                            x       y       z     vdW  Elec       q    Type
REMARK                         _______ _______ _______ _____ _____    ______ ____
ROOT
ATOM      1  O   UNL     1       1.863   5.399  20.074  0.00  0.00    +0.000 OA
ATOM      2  C   UNL     1       2.625   6.268  19.672  0.00  0.00    +0.000 C 
ENDROOT
BRANCH   2   3
ATOM      3  C   UNL     1       2.081   7.621  19.313  0.00  0.00    +0.000 A 
ATOM      4  C   UNL     1       2.264   8.056  17.988  0.00  0.00    +0.000 A 
ATOM      5  C   UNL     1       1.803   9.304  17.582  0.00  0.00    +0.000 A 
ATOM      6  C   UNL     1       1.153  10.130  18.494  0.00  0.00    +0.000 A 
ATOM      7  C   UNL     1       0.946   9.725  19.822  0.00  0.00    +0.000 A 
ATOM      8  C   UNL     1       0.290  10.595  20.711  0.00  0.00    +0.000 A 
ATOM      9  C   UNL     1       0.074  10.237  22.040  0.00  0.00    +0.000 A 
ATOM     10  C   UNL     1       0.512   9.005  22.497  0.00  0.00    +0.000 A 
ATOM     11  C   UNL     1       1.169   8.132  21.624  0.00  0.00    +0.000 A 
ATOM     12  C   UNL     1       1.405   8.454  20.261  0.00  0.00    +0.000 A 
ENDBRANCH   2   3
BRANCH   2  13
ATOM     13  N   UNL     1       3.995   6.142  19.581  0.00  0.00    +0.000 NA
ATOM     14  C   UNL     1       4.557   5.519  18.590  0.00  0.00    +0.000 C 
ATOM     15  S   UNL     1       3.738   4.864  17.138  0.00  0.00    +0.000 S 
ATOM     16  S   UNL     1       5.402   3.972  16.288  0.00  0.00    +0.000 S 
ATOM     17  C   UNL     1       6.496   4.585  17.484  0.00  0.00    +0.000 C 
ATOM     18  N   UNL     1       7.786   4.419  17.484  0.00  0.00    +0.000 NA
ATOM     19  C   UNL     1       8.201   5.130  18.733  0.00  0.00    +0.000 C 
ATOM     20  C   UNL     1       6.936   5.740  19.383  0.00  0.00    +0.000 C 
ATOM     21  N   UNL     1       5.905   5.288  18.485  0.00  0.00    +0.000 N 
ENDBRANCH   2  13
TORSDOF 2
ENDMDL
MODEL 4
REMARK VINA RESULT:      -7.3      0.656      2.416
REMARK  Name = 
REMARK  2 active torsions:
REMARK  status: ('A' for Active; 'I' for Inactive)
REMARK    1  A    between atoms: C_2  and  N_3
REMARK    2  A    between atoms: C_2  and  C_12
REMARK                            x       y       z     vdW  Elec       q    Type
REMARK                         _______ _______ _______ _____ _____    ______ ____
ROOT
ATOM      1  O   UNL     1       2.488   8.637  17.001  0.00  0.00    +0.000 OA
ATOM      2  C   UNL     1       2.680   7.889  17.950  0.00  0.00    +0.000 C 
ENDROOT
BRANCH   2   3
ATOM      3  C   UNL     1       3.574   6.693  17.782  0.00  0.00    +0.000 A 
ATOM      4  C   UNL     1       4.939   6.940  17.551  0.00  0.00    +0.000 A 
ATOM      5  C   UNL     1       5.829   5.887  17.371  0.00  0.00    +0.000 A 
ATOM      6  C   UNL     1       5.365   4.575  17.420  0.00  0.00    +0.000 A 
ATOM      7  C   UNL     1       4.011   4.292  17.656  0.00  0.00    +0.000 A 
ATOM      8  C   UNL     1       3.585   2.952  17.691  0.00  0.00    +0.000 A 
ATOM      9  C   UNL     1       2.249   2.627  17.911  0.00  0.00    +0.000 A 
ATOM     10  C   UNL     1       1.321   3.638  18.099  0.00  0.00    +0.000 A 
ATOM     11  C   UNL     1       1.730   4.975  18.063  0.00  0.00    +0.000 A 
ATOM     12  C   UNL     1       3.083   5.350  17.847  0.00  0.00    +0.000 A 
ENDBRANCH   2   3
BRANCH   2  13
ATOM     13  N   UNL     1       2.194   8.084  19.226  0.00  0.00    +0.000 NA
ATOM     14  C   UNL     1       1.257   8.948  19.472  0.00  0.00    +0.000 C 
ATOM     15  S   UNL     1       0.341   9.904  18.266  0.00  0.00    +0.000 S 
ATOM     16  S   UNL     1      -0.749  11.036  19.613  0.00  0.00    +0.000 S 
ATOM     17  C   UNL     1      -0.145  10.194  21.002  0.00  0.00    +0.000 C 
ATOM     18  N   UNL     1      -0.512  10.403  22.231  0.00  0.00    +0.000 NA
ATOM     19  C   UNL     1       0.332   9.427  22.989  0.00  0.00    +0.000 C 
ATOM     20  C   UNL     1       1.180   8.631  21.969  0.00  0.00    +0.000 C 
ATOM     21  N   UNL     1       0.791   9.247  20.728  0.00  0.00    +0.000 N 
ENDBRANCH   2  13
TORSDOF 2
ENDMDL
MODEL 5
REMARK VINA RESULT:      -7.2      3.565      5.577
REMARK  Name = 
REMARK  2 active torsions:
REMARK  status: ('A' for Active; 'I' for Inactive)
REMARK    1  A    between atoms: C_2  and  N_3
REMARK    2  A    between atoms: C_2  and  C_12
REMARK                            x       y       z     vdW  Elec       q    Type
REMARK                         _______ _______ _______ _____ _____    ______ ____
ROOT
ATOM      1  O   UNL     1       0.851  12.699  19.691  0.00  0.00    +0.000 OA
ATOM      2  C   UNL     1       0.328  11.643  19.362  0.00  0.00    +0.000 C 
ENDROOT
BRANCH   2   3
ATOM      3  C   UNL     1       0.653  10.388  20.122  0.00  0.00    +0.000 A 
ATOM      4  C   UNL     1       0.258  10.334  21.471  0.00  0.00    +0.000 A 
ATOM      5  C   UNL     1       0.535   9.213  22.245  0.00  0.00    +0.000 A 
ATOM      6  C   UNL     1       1.207   8.133  21.681  0.00  0.00    +0.000 A 
ATOM      7  C   UNL     1       1.608   8.149  20.336  0.00  0.00    +0.000 A 
ATOM      8  C   UNL     1       2.291   7.038  19.809  0.00  0.00    +0.000 A 
ATOM      9  C   UNL     1       2.717   7.017  18.483  0.00  0.00    +0.000 A 
ATOM     10  C   UNL     1       2.465   8.108  17.667  0.00  0.00    +0.000 A 
ATOM     11  C   UNL     1       1.791   9.221  18.179  0.00  0.00    +0.000 A 
ATOM     12  C   UNL     1       1.335   9.281  19.523  0.00  0.00    +0.000 A 
ENDBRANCH   2   3
BRANCH   2  13
ATOM     13  N   UNL     1      -0.619  11.501  18.370  0.00  0.00    +0.000 NA
ATOM     14  C   UNL     1      -1.874  11.753  18.587  0.00  0.00    +0.000 C 
ATOM     15  S   UNL     1      -2.583  12.445  20.079  0.00  0.00    +0.000 S 
ATOM     16  S   UNL     1      -4.567  12.313  19.504  0.00  0.00    +0.000 S 
ATOM     17  C   UNL     1      -4.197  11.755  17.906  0.00  0.00    +0.000 C 
ATOM     18  N   UNL     1      -5.064  11.526  16.965  0.00  0.00    +0.000 NA
ATOM     19  C   UNL     1      -4.200  11.057  15.837  0.00  0.00    +0.000 C 
ATOM     20  C   UNL     1      -2.726  11.109  16.307  0.00  0.00    +0.000 C 
ATOM     21  N   UNL     1      -2.874  11.552  17.668  0.00  0.00    +0.000 N 
ENDBRANCH   2  13
TORSDOF 2
ENDMDL
MODEL 6
REMARK VINA RESULT:      -7.2      1.465      2.930
REMARK  Name = 
REMARK  2 active torsions:
REMARK  status: ('A' for Active; 'I' for Inactive)
REMARK    1  A    between atoms: C_2  and  N_3
REMARK    2  A    between atoms: C_2  and  C_12
REMARK                            x       y       z     vdW  Elec       q    Type
REMARK                         _______ _______ _______ _____ _____    ______ ____
ROOT
ATOM      1  O   UNL     1       3.649   7.812  17.459  0.00  0.00    +0.000 OA
ATOM      2  C   UNL     1       3.130   7.053  18.266  0.00  0.00    +0.000 C 
ENDROOT
BRANCH   2   3
ATOM      3  C   UNL     1       3.299   5.569  18.103  0.00  0.00    +0.000 A 
ATOM      4  C   UNL     1       4.162   5.129  17.083  0.00  0.00    +0.000 A 
ATOM      5  C   UNL     1       4.360   3.771  16.859  0.00  0.00    +0.000 A 
ATOM      6  C   UNL     1       3.699   2.837  17.652  0.00  0.00    +0.000 A 
ATOM      7  C   UNL     1       2.838   3.240  18.684  0.00  0.00    +0.000 A 
ATOM      8  C   UNL     1       2.186   2.262  19.456  0.00  0.00    +0.000 A 
ATOM      9  C   UNL     1       1.314   2.618  20.482  0.00  0.00    +0.000 A 
ATOM     10  C   UNL     1       1.083   3.958  20.749  0.00  0.00    +0.000 A 
ATOM     11  C   UNL     1       1.721   4.940  19.987  0.00  0.00    +0.000 A 
ATOM     12  C   UNL     1       2.621   4.621  18.935  0.00  0.00    +0.000 A 
ENDBRANCH   2   3
BRANCH   2  13
ATOM     13  N   UNL     1       2.439   7.444  19.394  0.00  0.00    +0.000 NA
ATOM     14  C   UNL     1       1.693   8.506  19.399  0.00  0.00    +0.000 C 
ATOM     15  S   UNL     1       1.298   9.543  17.993  0.00  0.00    +0.000 S 
ATOM     16  S   UNL     1       0.231  10.982  19.029  0.00  0.00    +0.000 S 
ATOM     17  C   UNL     1       0.315  10.138  20.540  0.00  0.00    +0.000 C 
ATOM     18  N   UNL     1      -0.250  10.514  21.648  0.00  0.00    +0.000 NA
ATOM     19  C   UNL     1       0.168   9.440  22.602  0.00  0.00    +0.000 C 
ATOM     20  C   UNL     1       1.012   8.405  21.821  0.00  0.00    +0.000 C 
ATOM     21  N   UNL     1       1.048   8.994  20.509  0.00  0.00    +0.000 N 
ENDBRANCH   2  13
TORSDOF 2
ENDMDL
MODEL 7
REMARK VINA RESULT:      -7.1      2.985      7.359
REMARK  Name = 
REMARK  2 active torsions:
REMARK  status: ('A' for Active; 'I' for Inactive)
REMARK    1  A    between atoms: C_2  and  N_3
REMARK    2  A    between atoms: C_2  and  C_12
REMARK                            x       y       z     vdW  Elec       q    Type
REMARK                         _______ _______ _______ _____ _____    ______ ____
ROOT
ATOM      1  O   UNL     1       1.634   6.363  20.872  0.00  0.00    +0.000 OA
ATOM      2  C   UNL     1       2.080   7.061  19.972  0.00  0.00    +0.000 C 
ENDROOT
BRANCH   2   3
ATOM      3  C   UNL     1       1.488   8.419  19.723  0.00  0.00    +0.000 A 
ATOM      4  C   UNL     1       1.643   8.961  18.434  0.00  0.00    +0.000 A 
ATOM      5  C   UNL     1       1.135  10.219  18.130  0.00  0.00    +0.000 A 
ATOM      6  C   UNL     1       0.467  10.950  19.108  0.00  0.00    +0.000 A 
ATOM      7  C   UNL     1       0.288  10.437  20.402  0.00  0.00    +0.000 A 
ATOM      8  C   UNL     1      -0.387  11.212  21.361  0.00  0.00    +0.000 A 
ATOM      9  C   UNL     1      -0.578  10.746  22.660  0.00  0.00    +0.000 A 
ATOM     10  C   UNL     1      -0.094   9.498  23.016  0.00  0.00    +0.000 A 
ATOM     11  C   UNL     1       0.583   8.718  22.074  0.00  0.00    +0.000 A 
ATOM     12  C   UNL     1       0.794   9.153  20.738  0.00  0.00    +0.000 A 
ENDBRANCH   2   3
BRANCH   2  13
ATOM     13  N   UNL     1       3.163   6.739  19.180  0.00  0.00    +0.000 NA
ATOM     14  C   UNL     1       3.188   5.651  18.472  0.00  0.00    +0.000 C 
ATOM     15  S   UNL     1       1.847   4.482  18.261  0.00  0.00    +0.000 S 
ATOM     16  S   UNL     1       2.894   3.093  17.139  0.00  0.00    +0.000 S 
ATOM     17  C   UNL     1       4.324   4.066  17.037  0.00  0.00    +0.000 C 
ATOM     18  N   UNL     1       5.399   3.764  16.372  0.00  0.00    +0.000 NA
ATOM     19  C   UNL     1       6.290   4.932  16.652  0.00  0.00    +0.000 C 
ATOM     20  C   UNL     1       5.509   5.931  17.539  0.00  0.00    +0.000 C 
ATOM     21  N   UNL     1       4.265   5.233  17.732  0.00  0.00    +0.000 N 
ENDBRANCH   2  13
TORSDOF 2
ENDMDL
MODEL 8
REMARK VINA RESULT:      -7.0      1.351      1.687
REMARK  Name = 
REMARK  2 active torsions:
REMARK  status: ('A' for Active; 'I' for Inactive)
REMARK    1  A    between atoms: C_2  and  N_3
REMARK    2  A    between atoms: C_2  and  C_12
REMARK                            x       y       z     vdW  Elec       q    Type
REMARK                         _______ _______ _______ _____ _____    ______ ____
ROOT
ATOM      1  O   UNL     1       2.833   8.147  18.522  0.00  0.00    +0.000 OA
ATOM      2  C   UNL     1       2.223   7.537  19.390  0.00  0.00    +0.000 C 
ENDROOT
BRANCH   2   3
ATOM      3  C   UNL     1       2.311   6.038  19.444  0.00  0.00    +0.000 A 
ATOM      4  C   UNL     1       1.571   5.388  20.448  0.00  0.00    +0.000 A 
ATOM      5  C   UNL     1       1.611   4.003  20.572  0.00  0.00    +0.000 A 
ATOM      6  C   UNL     1       2.389   3.254  19.695  0.00  0.00    +0.000 A 
ATOM      7  C   UNL     1       3.134   3.869  18.677  0.00  0.00    +0.000 A 
ATOM      8  C   UNL     1       3.912   3.073  17.817  0.00  0.00    +0.000 A 
ATOM      9  C   UNL     1       4.674   3.644  16.801  0.00  0.00    +0.000 A 
ATOM     10  C   UNL     1       4.669   5.019  16.631  0.00  0.00    +0.000 A 
ATOM     11  C   UNL     1       3.903   5.822  17.481  0.00  0.00    +0.000 A 
ATOM     12  C   UNL     1       3.108   5.281  18.526  0.00  0.00    +0.000 A 
ENDBRANCH   2   3
BRANCH   2  13
ATOM     13  N   UNL     1       1.494   8.120  20.405  0.00  0.00    +0.000 NA
ATOM     14  C   UNL     1       0.759   9.170  20.199  0.00  0.00    +0.000 C 
ATOM     15  S   UNL     1       0.430   9.951  18.621  0.00  0.00    +0.000 S 
ATOM     16  S   UNL     1      -0.660  11.552  19.351  0.00  0.00    +0.000 S 
ATOM     17  C   UNL     1      -0.643  10.979  20.986  0.00  0.00    +0.000 C 
ATOM     18  N   UNL     1      -1.246  11.542  21.991  0.00  0.00    +0.000 NA
ATOM     19  C   UNL     1      -0.877  10.647  23.131  0.00  0.00    +0.000 C 
ATOM     20  C   UNL     1      -0.014   9.489  22.573  0.00  0.00    +0.000 C 
ATOM     21  N   UNL     1       0.078   9.844  21.181  0.00  0.00    +0.000 N 
ENDBRANCH   2  13
TORSDOF 2
ENDMDL
MODEL 9
REMARK VINA RESULT:      -7.0      1.304      2.686
REMARK  Name = 
REMARK  2 active torsions:
REMARK  status: ('A' for Active; 'I' for Inactive)
REMARK    1  A    between atoms: C_2  and  N_3
REMARK    2  A    between atoms: C_2  and  C_12
REMARK                            x       y       z     vdW  Elec       q    Type
REMARK                         _______ _______ _______ _____ _____    ______ ____
ROOT
ATOM      1  O   UNL     1       2.378   8.695  17.413  0.00  0.00    +0.000 OA
ATOM      2  C   UNL     1       2.408   7.945  18.379  0.00  0.00    +0.000 C 
ENDROOT
BRANCH   2   3
ATOM      3  C   UNL     1       3.162   6.648  18.287  0.00  0.00    +0.000 A 
ATOM      4  C   UNL     1       4.248   6.599  17.394  0.00  0.00    +0.000 A 
ATOM      5  C   UNL     1       4.986   5.431  17.241  0.00  0.00    +0.000 A 
ATOM      6  C   UNL     1       4.649   4.300  17.979  0.00  0.00    +0.000 A 
ATOM      7  C   UNL     1       3.577   4.315  18.884  0.00  0.00    +0.000 A 
ATOM      8  C   UNL     1       3.268   3.147  19.603  0.00  0.00    +0.000 A 
ATOM      9  C   UNL     1       2.205   3.116  20.503  0.00  0.00    +0.000 A 
ATOM     10  C   UNL     1       1.438   4.253  20.695  0.00  0.00    +0.000 A 
ATOM     11  C   UNL     1       1.732   5.420  19.984  0.00  0.00    +0.000 A 
ATOM     12  C   UNL     1       2.809   5.497  19.061  0.00  0.00    +0.000 A 
ENDBRANCH   2   3
BRANCH   2  13
ATOM     13  N   UNL     1       1.857   8.217  19.614  0.00  0.00    +0.000 NA
ATOM     14  C   UNL     1       0.977   9.158  19.773  0.00  0.00    +0.000 C 
ATOM     15  S   UNL     1       0.219  10.143  18.483  0.00  0.00    +0.000 S 
ATOM     16  S   UNL     1      -0.864  11.397  19.723  0.00  0.00    +0.000 S 
ATOM     17  C   UNL     1      -0.420  10.556  21.171  0.00  0.00    +0.000 C 
ATOM     18  N   UNL     1      -0.849  10.831  22.367  0.00  0.00    +0.000 NA
ATOM     19  C   UNL     1      -0.135   9.818  23.206  0.00  0.00    +0.000 C 
ATOM     20  C   UNL     1       0.713   8.928  22.266  0.00  0.00    +0.000 C 
ATOM     21  N   UNL     1       0.454   9.532  20.986  0.00  0.00    +0.000 N 
ENDBRANCH   2  13
TORSDOF 2
ENDMDL
