MODEL 1
REMARK VINA RESULT:      -7.5      0.000      0.000
REMARK  Name = 
REMARK  3 active torsions:
REMARK  status: ('A' for Active; 'I' for Inactive)
REMARK    1  A    between atoms: C_1  and  C_2
REMARK    2  A    between atoms: C_5  and  N_6
REMARK    3  A    between atoms: C_8  and  C_9
REMARK                            x       y       z     vdW  Elec       q    Type
REMARK                         _______ _______ _______ _____ _____    ______ ____
ROOT
ATOM      1  N   UNL     1       3.657  14.497  20.374  0.00  0.00    +0.000 N 
ATOM      2  N   UNL     1       4.110  15.478  19.531  0.00  0.00    +0.000 NA
ATOM      3  C   UNL     1       5.301  15.817  20.056  0.00  0.00    +0.000 A 
ATOM      4  C   UNL     1       5.909  17.141  19.763  0.00  0.00    +0.000 C 
ATOM      5  C   UNL     1       5.704  14.902  21.059  0.00  0.00    +0.000 A 
ATOM      6  C   UNL     1       4.459  14.505  21.498  0.00  0.00    +0.000 A 
ATOM      7  O   UNL     1       4.087  14.289  22.762  0.00  0.00    +0.000 OA
ATOM      8  C   UNL     1       5.069  14.868  23.664  0.00  0.00    +0.000 C 
ATOM      9  C   UNL     1       6.469  14.285  23.351  0.00  0.00    +0.000 C 
ATOM     10  C   UNL     1       6.338  12.765  23.491  0.00  0.00    +0.000 C 
ATOM     11  S   UNL     1       7.905  11.943  23.236  0.00  0.00    +0.000 S 
ATOM     12  C   UNL     1       8.287  12.585  21.628  0.00  0.00    +0.000 A 
ATOM     13  N   UNL     1       9.104  11.750  20.928  0.00  0.00    +0.000 NA
ATOM     14  C   UNL     1       9.612  12.154  19.762  0.00  0.00    +0.000 A 
ATOM     15  C   UNL     1      10.448  11.303  19.045  0.00  0.00    +0.000 A 
ATOM     16  C   UNL     1      11.052  11.700  17.851  0.00  0.00    +0.000 A 
ATOM     17  C   UNL     1      10.817  12.976  17.353  0.00  0.00    +0.000 A 
ATOM     18  C   UNL     1       9.961  13.837  18.042  0.00  0.00    +0.000 A 
ATOM     19  C   UNL     1       9.345  13.431  19.238  0.00  0.00    +0.000 A 
ATOM     20  C   UNL     1       8.464  14.256  19.960  0.00  0.00    +0.000 A 
ATOM     21  C   UNL     1       7.881  13.836  21.172  0.00  0.00    +0.000 A 
ATOM     22  C   UNL     1       6.923  14.760  21.931  0.00  0.00    +0.000 C 
ENDROOT
BRANCH   1  27
ATOM     23  C   UNL     1      -0.403  10.631  19.154  0.00  0.00    +0.000 C 
ATOM     24  C   UNL     1       0.639  11.670  19.451  0.00  0.00    +0.000 A 
ATOM     25  C   UNL     1       1.632  11.987  18.515  0.00  0.00    +0.000 A 
ATOM     26  C   UNL     1       2.604  12.953  18.804  0.00  0.00    +0.000 A 
ATOM     27  C   UNL     1       2.597  13.612  20.041  0.00  0.00    +0.000 A 
ATOM     28  C   UNL     1       1.602  13.300  20.978  0.00  0.00    +0.000 A 
ATOM     29  C   UNL     1       0.629  12.339  20.679  0.00  0.00    +0.000 A 
ENDBRANCH   1  27
TORSDOF 1
ENDMDL
MODEL 2
REMARK VINA RESULT:      -6.9      0.939      1.256
REMARK  Name = 
REMARK  3 active torsions:
REMARK  status: ('A' for Active; 'I' for Inactive)
REMARK    1  A    between atoms: C_1  and  C_2
REMARK    2  A    between atoms: C_5  and  N_6
REMARK    3  A    between atoms: C_8  and  C_9
REMARK                            x       y       z     vdW  Elec       q    Type
REMARK                         _______ _______ _______ _____ _____    ______ ____
ROOT
ATOM      1  N   UNL     1       4.044  15.316  20.285  0.00  0.00    +0.000 N 
ATOM      2  N   UNL     1       4.673  16.287  19.552  0.00  0.00    +0.000 NA
ATOM      3  C   UNL     1       5.874  16.401  20.147  0.00  0.00    +0.000 A 
ATOM      4  C   UNL     1       6.680  17.640  19.996  0.00  0.00    +0.000 C 
ATOM      5  C   UNL     1       6.093  15.356  21.077  0.00  0.00    +0.000 A 
ATOM      6  C   UNL     1       4.783  15.110  21.433  0.00  0.00    +0.000 A 
ATOM      7  O   UNL     1       4.323  14.846  22.659  0.00  0.00    +0.000 OA
ATOM      8  C   UNL     1       5.333  15.196  23.644  0.00  0.00    +0.000 C 
ATOM      9  C   UNL     1       6.648  14.441  23.329  0.00  0.00    +0.000 C 
ATOM     10  C   UNL     1       6.294  12.951  23.327  0.00  0.00    +0.000 C 
ATOM     11  S   UNL     1       7.737  11.932  23.055  0.00  0.00    +0.000 S 
ATOM     12  C   UNL     1       8.285  12.644  21.526  0.00  0.00    +0.000 A 
ATOM     13  N   UNL     1       9.006  11.759  20.782  0.00  0.00    +0.000 NA
ATOM     14  C   UNL     1       9.623  12.180  19.677  0.00  0.00    +0.000 A 
ATOM     15  C   UNL     1      10.361  11.279  18.916  0.00  0.00    +0.000 A 
ATOM     16  C   UNL     1      11.074  11.682  17.785  0.00  0.00    +0.000 A 
ATOM     17  C   UNL     1      11.049  13.015  17.397  0.00  0.00    +0.000 A 
ATOM     18  C   UNL     1      10.293  13.933  18.129  0.00  0.00    +0.000 A 
ATOM     19  C   UNL     1       9.568  13.522  19.261  0.00  0.00    +0.000 A 
ATOM     20  C   UNL     1       8.780  14.404  20.023  0.00  0.00    +0.000 A 
ATOM     21  C   UNL     1       8.086  13.974  21.170  0.00  0.00    +0.000 A 
ATOM     22  C   UNL     1       7.234  14.962  21.975  0.00  0.00    +0.000 C 
ENDROOT
BRANCH   1  27
ATOM     23  C   UNL     1      -0.663  12.793  18.187  0.00  0.00    +0.000 C 
ATOM     24  C   UNL     1       0.564  13.432  18.770  0.00  0.00    +0.000 A 
ATOM     25  C   UNL     1       0.464  14.487  19.685  0.00  0.00    +0.000 A 
ATOM     26  C   UNL     1       1.615  15.081  20.219  0.00  0.00    +0.000 A 
ATOM     27  C   UNL     1       2.885  14.627  19.836  0.00  0.00    +0.000 A 
ATOM     28  C   UNL     1       2.987  13.567  18.925  0.00  0.00    +0.000 A 
ATOM     29  C   UNL     1       1.833  12.973  18.402  0.00  0.00    +0.000 A 
ENDBRANCH   1  27
TORSDOF 1
ENDMDL
MODEL 3
REMARK VINA RESULT:      -6.8      5.511     10.738
REMARK  Name = 
REMARK  3 active torsions:
REMARK  status: ('A' for Active; 'I' for Inactive)
REMARK    1  A    between atoms: C_1  and  C_2
REMARK    2  A    between atoms: C_5  and  N_6
REMARK    3  A    between atoms: C_8  and  C_9
REMARK                            x       y       z     vdW  Elec       q    Type
REMARK                         _______ _______ _______ _____ _____    ______ ____
ROOT
ATOM      1  N   UNL     1       0.280  13.570  21.650  0.00  0.00    +0.000 N 
ATOM      2  N   UNL     1       0.026  12.225  21.700  0.00  0.00    +0.000 NA
ATOM      3  C   UNL     1      -1.064  12.141  22.486  0.00  0.00    +0.000 A 
ATOM      4  C   UNL     1      -1.393  10.877  23.193  0.00  0.00    +0.000 C 
ATOM      5  C   UNL     1      -1.631  13.417  22.722  0.00  0.00    +0.000 A 
ATOM      6  C   UNL     1      -0.486  14.180  22.622  0.00  0.00    +0.000 A 
ATOM      7  O   UNL     1      -0.148  15.220  23.390  0.00  0.00    +0.000 OA
ATOM      8  C   UNL     1      -0.977  15.234  24.583  0.00  0.00    +0.000 C 
ATOM      9  C   UNL     1      -2.471  15.260  24.177  0.00  0.00    +0.000 C 
ATOM     10  C   UNL     1      -2.652  16.501  23.297  0.00  0.00    +0.000 C 
ATOM     11  S   UNL     1      -4.357  16.718  22.808  0.00  0.00    +0.000 S 
ATOM     12  C   UNL     1      -4.623  15.136  22.052  0.00  0.00    +0.000 A 
ATOM     13  N   UNL     1      -5.604  15.182  21.108  0.00  0.00    +0.000 NA
ATOM     14  C   UNL     1      -6.036  14.048  20.554  0.00  0.00    +0.000 A 
ATOM     15  C   UNL     1      -7.038  14.092  19.590  0.00  0.00    +0.000 A 
ATOM     16  C   UNL     1      -7.567  12.930  19.024  0.00  0.00    +0.000 A 
ATOM     17  C   UNL     1      -7.083  11.691  19.425  0.00  0.00    +0.000 A 
ATOM     18  C   UNL     1      -6.059  11.623  20.371  0.00  0.00    +0.000 A 
ATOM     19  C   UNL     1      -5.522  12.795  20.931  0.00  0.00    +0.000 A 
ATOM     20  C   UNL     1      -4.480  12.780  21.875  0.00  0.00    +0.000 A 
ATOM     21  C   UNL     1      -3.978  13.967  22.443  0.00  0.00    +0.000 A 
ATOM     22  C   UNL     1      -2.840  13.914  23.468  0.00  0.00    +0.000 C 
ENDROOT
BRANCH   1  27
ATOM     23  C   UNL     1       3.584  15.725  17.483  0.00  0.00    +0.000 C 
ATOM     24  C   UNL     1       2.742  15.182  18.600  0.00  0.00    +0.000 A 
ATOM     25  C   UNL     1       3.181  14.102  19.377  0.00  0.00    +0.000 A 
ATOM     26  C   UNL     1       2.384  13.597  20.413  0.00  0.00    +0.000 A 
ATOM     27  C   UNL     1       1.132  14.166  20.682  0.00  0.00    +0.000 A 
ATOM     28  C   UNL     1       0.693  15.250  19.909  0.00  0.00    +0.000 A 
ATOM     29  C   UNL     1       1.497  15.754  18.880  0.00  0.00    +0.000 A 
ENDBRANCH   1  27
TORSDOF 1
ENDMDL
MODEL 4
REMARK VINA RESULT:      -6.7      6.889     12.083
REMARK  Name = 
REMARK  3 active torsions:
REMARK  status: ('A' for Active; 'I' for Inactive)
REMARK    1  A    between atoms: C_1  and  C_2
REMARK    2  A    between atoms: C_5  and  N_6
REMARK    3  A    between atoms: C_8  and  C_9
REMARK                            x       y       z     vdW  Elec       q    Type
REMARK                         _______ _______ _______ _____ _____    ______ ____
ROOT
ATOM      1  N   UNL     1      -2.256  12.350  19.385  0.00  0.00    +0.000 N 
ATOM      2  N   UNL     1      -2.956  11.622  18.459  0.00  0.00    +0.000 NA
ATOM      3  C   UNL     1      -4.239  11.804  18.822  0.00  0.00    +0.000 A 
ATOM      4  C   UNL     1      -5.287  10.836  18.409  0.00  0.00    +0.000 C 
ATOM      5  C   UNL     1      -4.361  12.822  19.799  0.00  0.00    +0.000 A 
ATOM      6  C   UNL     1      -3.128  12.688  20.400  0.00  0.00    +0.000 A 
ATOM      7  O   UNL     1      -2.863  12.758  21.708  0.00  0.00    +0.000 OA
ATOM      8  C   UNL     1      -4.101  12.643  22.462  0.00  0.00    +0.000 C 
ATOM      9  C   UNL     1      -5.094  13.737  21.999  0.00  0.00    +0.000 C 
ATOM     10  C   UNL     1      -4.379  15.076  22.208  0.00  0.00    +0.000 C 
ATOM     11  S   UNL     1      -5.434  16.458  21.791  0.00  0.00    +0.000 S 
ATOM     12  C   UNL     1      -5.836  15.997  20.127  0.00  0.00    +0.000 A 
ATOM     13  N   UNL     1      -6.150  17.079  19.361  0.00  0.00    +0.000 NA
ATOM     14  C   UNL     1      -6.626  16.895  18.128  0.00  0.00    +0.000 A 
ATOM     15  C   UNL     1      -6.948  17.998  17.345  0.00  0.00    +0.000 A 
ATOM     16  C   UNL     1      -7.505  17.859  16.071  0.00  0.00    +0.000 A 
ATOM     17  C   UNL     1      -7.745  16.589  15.563  0.00  0.00    +0.000 A 
ATOM     18  C   UNL     1      -7.404  15.467  16.320  0.00  0.00    +0.000 A 
ATOM     19  C   UNL     1      -6.834  15.610  17.597  0.00  0.00    +0.000 A 
ATOM     20  C   UNL     1      -6.460  14.512  18.392  0.00  0.00    +0.000 A 
ATOM     21  C   UNL     1      -5.916  14.681  19.680  0.00  0.00    +0.000 A 
ATOM     22  C   UNL     1      -5.518  13.462  20.518  0.00  0.00    +0.000 C 
ENDROOT
BRANCH   1  27
ATOM     23  C   UNL     1       3.182  13.841  18.324  0.00  0.00    +0.000 C 
ATOM     24  C   UNL     1       1.769  13.444  18.640  0.00  0.00    +0.000 A 
ATOM     25  C   UNL     1       1.399  12.096  18.724  0.00  0.00    +0.000 A 
ATOM     26  C   UNL     1       0.077  11.735  19.013  0.00  0.00    +0.000 A 
ATOM     27  C   UNL     1      -0.896  12.724  19.216  0.00  0.00    +0.000 A 
ATOM     28  C   UNL     1      -0.526  14.074  19.138  0.00  0.00    +0.000 A 
ATOM     29  C   UNL     1       0.798  14.427  18.857  0.00  0.00    +0.000 A 
ENDBRANCH   1  27
TORSDOF 1
ENDMDL
MODEL 5
REMARK VINA RESULT:      -6.7      1.209      1.385
REMARK  Name = 
REMARK  3 active torsions:
REMARK  status: ('A' for Active; 'I' for Inactive)
REMARK    1  A    between atoms: C_1  and  C_2
REMARK    2  A    between atoms: C_5  and  N_6
REMARK    3  A    between atoms: C_8  and  C_9
REMARK                            x       y       z     vdW  Elec       q    Type
REMARK                         _______ _______ _______ _____ _____    ______ ____
ROOT
ATOM      1  N   UNL     1       3.984  15.185  21.718  0.00  0.00    +0.000 N 
ATOM      2  N   UNL     1       4.529  16.156  20.921  0.00  0.00    +0.000 NA
ATOM      3  C   UNL     1       5.810  16.216  21.332  0.00  0.00    +0.000 A 
ATOM      4  C   UNL     1       6.627  17.433  21.091  0.00  0.00    +0.000 C 
ATOM      5  C   UNL     1       6.128  15.138  22.193  0.00  0.00    +0.000 A 
ATOM      6  C   UNL     1       4.878  14.924  22.736  0.00  0.00    +0.000 A 
ATOM      7  O   UNL     1       4.597  14.639  24.011  0.00  0.00    +0.000 OA
ATOM      8  C   UNL     1       5.755  14.928  24.841  0.00  0.00    +0.000 C 
ATOM      9  C   UNL     1       6.981  14.142  24.314  0.00  0.00    +0.000 C 
ATOM     10  C   UNL     1       6.578  12.664  24.330  0.00  0.00    +0.000 C 
ATOM     11  S   UNL     1       7.927  11.609  23.820  0.00  0.00    +0.000 S 
ATOM     12  C   UNL     1       8.265  12.346  22.243  0.00  0.00    +0.000 A 
ATOM     13  N   UNL     1       8.835  11.462  21.379  0.00  0.00    +0.000 NA
ATOM     14  C   UNL     1       9.294  11.894  20.204  0.00  0.00    +0.000 A 
ATOM     15  C   UNL     1       9.879  10.993  19.320  0.00  0.00    +0.000 A 
ATOM     16  C   UNL     1      10.428  11.405  18.104  0.00  0.00    +0.000 A 
ATOM     17  C   UNL     1      10.392  12.749  17.756  0.00  0.00    +0.000 A 
ATOM     18  C   UNL     1       9.787  13.668  18.615  0.00  0.00    +0.000 A 
ATOM     19  C   UNL     1       9.225  13.249  19.833  0.00  0.00    +0.000 A 
ATOM     20  C   UNL     1       8.592  14.133  20.725  0.00  0.00    +0.000 A 
ATOM     21  C   UNL     1       8.062  13.692  21.953  0.00  0.00    +0.000 A 
ATOM     22  C   UNL     1       7.376  14.683  22.900  0.00  0.00    +0.000 C 
ENDROOT
BRANCH   1  27
ATOM     23  C   UNL     1      -0.942  12.370  20.861  0.00  0.00    +0.000 C 
ATOM     24  C   UNL     1       0.343  13.123  21.049  0.00  0.00    +0.000 A 
ATOM     25  C   UNL     1       1.534  12.679  20.461  0.00  0.00    +0.000 A 
ATOM     26  C   UNL     1       2.729  13.386  20.647  0.00  0.00    +0.000 A 
ATOM     27  C   UNL     1       2.747  14.546  21.433  0.00  0.00    +0.000 A 
ATOM     28  C   UNL     1       1.555  14.995  22.018  0.00  0.00    +0.000 A 
ATOM     29  C   UNL     1       0.363  14.289  21.821  0.00  0.00    +0.000 A 
ENDBRANCH   1  27
TORSDOF 1
ENDMDL
MODEL 6
REMARK VINA RESULT:      -6.5      2.212      7.251
REMARK  Name = 
REMARK  3 active torsions:
REMARK  status: ('A' for Active; 'I' for Inactive)
REMARK    1  A    between atoms: C_1  and  C_2
REMARK    2  A    between atoms: C_5  and  N_6
REMARK    3  A    between atoms: C_8  and  C_9
REMARK                            x       y       z     vdW  Elec       q    Type
REMARK                         _______ _______ _______ _____ _____    ______ ____
ROOT
ATOM      1  N   UNL     1       7.523  14.186  21.167  0.00  0.00    +0.000 N 
ATOM      2  N   UNL     1       7.036  13.655  22.332  0.00  0.00    +0.000 NA
ATOM      3  C   UNL     1       5.850  14.272  22.486  0.00  0.00    +0.000 A 
ATOM      4  C   UNL     1       5.213  14.366  23.824  0.00  0.00    +0.000 C 
ATOM      5  C   UNL     1       5.484  14.988  21.320  0.00  0.00    +0.000 A 
ATOM      6  C   UNL     1       6.746  15.279  20.845  0.00  0.00    +0.000 A 
ATOM      7  O   UNL     1       7.148  16.429  20.295  0.00  0.00    +0.000 OA
ATOM      8  C   UNL     1       6.176  17.471  20.579  0.00  0.00    +0.000 C 
ATOM      9  C   UNL     1       4.780  17.030  20.075  0.00  0.00    +0.000 C 
ATOM     10  C   UNL     1       4.940  16.741  18.579  0.00  0.00    +0.000 C 
ATOM     11  S   UNL     1       3.382  16.292  17.825  0.00  0.00    +0.000 S 
ATOM     12  C   UNL     1       2.955  14.931  18.878  0.00  0.00    +0.000 A 
ATOM     13  N   UNL     1       2.139  14.040  18.251  0.00  0.00    +0.000 NA
ATOM     14  C   UNL     1       1.599  13.040  18.951  0.00  0.00    +0.000 A 
ATOM     15  C   UNL     1       0.763  12.128  18.313  0.00  0.00    +0.000 A 
ATOM     16  C   UNL     1       0.127  11.100  19.011  0.00  0.00    +0.000 A 
ATOM     17  C   UNL     1       0.329  10.972  20.380  0.00  0.00    +0.000 A 
ATOM     18  C   UNL     1       1.185  11.859  21.036  0.00  0.00    +0.000 A 
ATOM     19  C   UNL     1       1.833  12.887  20.328  0.00  0.00    +0.000 A 
ATOM     20  C   UNL     1       2.714  13.795  20.940  0.00  0.00    +0.000 A 
ATOM     21  C   UNL     1       3.329  14.834  20.215  0.00  0.00    +0.000 A 
ATOM     22  C   UNL     1       4.287  15.804  20.914  0.00  0.00    +0.000 C 
ENDROOT
BRANCH   1  27
ATOM     23  C   UNL     1      11.643  11.505  18.207  0.00  0.00    +0.000 C 
ATOM     24  C   UNL     1      10.591  12.237  18.988  0.00  0.00    +0.000 A 
ATOM     25  C   UNL     1      10.589  12.222  20.389  0.00  0.00    +0.000 A 
ATOM     26  C   UNL     1       9.599  12.903  21.109  0.00  0.00    +0.000 A 
ATOM     27  C   UNL     1       8.592  13.604  20.433  0.00  0.00    +0.000 A 
ATOM     28  C   UNL     1       8.594  13.624  19.031  0.00  0.00    +0.000 A 
ATOM     29  C   UNL     1       9.591  12.949  18.318  0.00  0.00    +0.000 A 
ENDBRANCH   1  27
TORSDOF 1
ENDMDL
MODEL 7
REMARK VINA RESULT:      -6.5      1.581      1.892
REMARK  Name = 
REMARK  3 active torsions:
REMARK  status: ('A' for Active; 'I' for Inactive)
REMARK    1  A    between atoms: C_1  and  C_2
REMARK    2  A    between atoms: C_5  and  N_6
REMARK    3  A    between atoms: C_8  and  C_9
REMARK                            x       y       z     vdW  Elec       q    Type
REMARK                         _______ _______ _______ _____ _____    ______ ____
ROOT
ATOM      1  N   UNL     1       4.481  15.383  21.340  0.00  0.00    +0.000 N 
ATOM      2  N   UNL     1       5.150  16.479  20.864  0.00  0.00    +0.000 NA
ATOM      3  C   UNL     1       6.264  16.518  21.618  0.00  0.00    +0.000 A 
ATOM      4  C   UNL     1       7.025  17.784  21.778  0.00  0.00    +0.000 C 
ATOM      5  C   UNL     1       6.414  15.335  22.381  0.00  0.00    +0.000 A 
ATOM      6  C   UNL     1       5.083  15.002  22.522  0.00  0.00    +0.000 A 
ATOM      7  O   UNL     1       4.490  14.522  23.619  0.00  0.00    +0.000 OA
ATOM      8  C   UNL     1       5.357  14.722  24.768  0.00  0.00    +0.000 C 
ATOM      9  C   UNL     1       6.733  14.064  24.502  0.00  0.00    +0.000 C 
ATOM     10  C   UNL     1       6.448  12.588  24.207  0.00  0.00    +0.000 C 
ATOM     11  S   UNL     1       7.958  11.664  23.955  0.00  0.00    +0.000 S 
ATOM     12  C   UNL     1       8.655  12.639  22.648  0.00  0.00    +0.000 A 
ATOM     13  N   UNL     1       9.500  11.911  21.866  0.00  0.00    +0.000 NA
ATOM     14  C   UNL     1      10.226  12.529  20.933  0.00  0.00    +0.000 A 
ATOM     15  C   UNL     1      11.091  11.788  20.134  0.00  0.00    +0.000 A 
ATOM     16  C   UNL     1      11.917  12.394  19.185  0.00  0.00    +0.000 A 
ATOM     17  C   UNL     1      11.879  13.774  19.024  0.00  0.00    +0.000 A 
ATOM     18  C   UNL     1      11.000  14.535  19.796  0.00  0.00    +0.000 A 
ATOM     19  C   UNL     1      10.162  13.920  20.743  0.00  0.00    +0.000 A 
ATOM     20  C   UNL     1       9.249  14.641  21.534  0.00  0.00    +0.000 A 
ATOM     21  C   UNL     1       8.441  14.006  22.496  0.00  0.00    +0.000 A 
ATOM     22  C   UNL     1       7.455  14.822  23.339  0.00  0.00    +0.000 C 
ENDROOT
BRANCH   1  27
ATOM     23  C   UNL     1       0.084  13.189  18.376  0.00  0.00    +0.000 C 
ATOM     24  C   UNL     1       1.237  13.728  19.172  0.00  0.00    +0.000 A 
ATOM     25  C   UNL     1       1.053  14.218  20.471  0.00  0.00    +0.000 A 
ATOM     26  C   UNL     1       2.134  14.725  21.203  0.00  0.00    +0.000 A 
ATOM     27  C   UNL     1       3.416  14.754  20.639  0.00  0.00    +0.000 A 
ATOM     28  C   UNL     1       3.604  14.259  19.341  0.00  0.00    +0.000 A 
ATOM     29  C   UNL     1       2.521  13.747  18.618  0.00  0.00    +0.000 A 
ENDBRANCH   1  27
TORSDOF 1
ENDMDL
MODEL 8
REMARK VINA RESULT:      -6.4      5.902      9.318
REMARK  Name = 
REMARK  3 active torsions:
REMARK  status: ('A' for Active; 'I' for Inactive)
REMARK    1  A    between atoms: C_1  and  C_2
REMARK    2  A    between atoms: C_5  and  N_6
REMARK    3  A    between atoms: C_8  and  C_9
REMARK                            x       y       z     vdW  Elec       q    Type
REMARK                         _______ _______ _______ _____ _____    ______ ____
ROOT
ATOM      1  N   UNL     1      -0.920  10.899  19.291  0.00  0.00    +0.000 N 
ATOM      2  N   UNL     1      -1.096  10.241  20.479  0.00  0.00    +0.000 NA
ATOM      3  C   UNL     1      -0.379  10.973  21.352  0.00  0.00    +0.000 A 
ATOM      4  C   UNL     1       0.101  10.377  22.625  0.00  0.00    +0.000 C 
ATOM      5  C   UNL     1       0.036  12.200  20.780  0.00  0.00    +0.000 A 
ATOM      6  C   UNL     1       0.106  11.807  19.460  0.00  0.00    +0.000 A 
ATOM      7  O   UNL     1       1.044  12.148  18.572  0.00  0.00    +0.000 OA
ATOM      8  C   UNL     1       2.189  12.712  19.267  0.00  0.00    +0.000 C 
ATOM      9  C   UNL     1       1.733  13.910  20.135  0.00  0.00    +0.000 C 
ATOM     10  C   UNL     1       1.057  14.897  19.177  0.00  0.00    +0.000 C 
ATOM     11  S   UNL     1       0.540  16.385  20.023  0.00  0.00    +0.000 S 
ATOM     12  C   UNL     1      -0.470  15.644  21.277  0.00  0.00    +0.000 A 
ATOM     13  N   UNL     1      -1.433  16.497  21.724  0.00  0.00    +0.000 NA
ATOM     14  C   UNL     1      -2.179  16.152  22.775  0.00  0.00    +0.000 A 
ATOM     15  C   UNL     1      -3.163  17.022  23.234  0.00  0.00    +0.000 A 
ATOM     16  C   UNL     1      -3.930  16.735  24.366  0.00  0.00    +0.000 A 
ATOM     17  C   UNL     1      -3.714  15.550  25.058  0.00  0.00    +0.000 A 
ATOM     18  C   UNL     1      -2.750  14.649  24.600  0.00  0.00    +0.000 A 
ATOM     19  C   UNL     1      -1.988  14.936  23.454  0.00  0.00    +0.000 A 
ATOM     20  C   UNL     1      -1.017  14.056  22.945  0.00  0.00    +0.000 A 
ATOM     21  C   UNL     1      -0.246  14.378  21.812  0.00  0.00    +0.000 A 
ATOM     22  C   UNL     1       0.802  13.394  21.283  0.00  0.00    +0.000 C 
ENDROOT
BRANCH   1  27
ATOM     23  C   UNL     1      -4.044  10.316  14.514  0.00  0.00    +0.000 C 
ATOM     24  C   UNL     1      -3.255  10.448  15.784  0.00  0.00    +0.000 A 
ATOM     25  C   UNL     1      -3.591  11.407  16.748  0.00  0.00    +0.000 A 
ATOM     26  C   UNL     1      -2.844  11.526  17.927  0.00  0.00    +0.000 A 
ATOM     27  C   UNL     1      -1.744  10.688  18.153  0.00  0.00    +0.000 A 
ATOM     28  C   UNL     1      -1.409   9.724  17.192  0.00  0.00    +0.000 A 
ATOM     29  C   UNL     1      -2.164   9.605  16.020  0.00  0.00    +0.000 A 
ENDBRANCH   1  27
TORSDOF 1
ENDMDL
MODEL 9
REMARK VINA RESULT:      -6.4      1.964      2.418
REMARK  Name = 
REMARK  3 active torsions:
REMARK  status: ('A' for Active; 'I' for Inactive)
REMARK    1  A    between atoms: C_1  and  C_2
REMARK    2  A    between atoms: C_5  and  N_6
REMARK    3  A    between atoms: C_8  and  C_9
REMARK                            x       y       z     vdW  Elec       q    Type
REMARK                         _______ _______ _______ _____ _____    ______ ____
ROOT
ATOM      1  N   UNL     1       5.081  16.922  20.071  0.00  0.00    +0.000 N 
ATOM      2  N   UNL     1       5.932  17.666  19.296  0.00  0.00    +0.000 NA
ATOM      3  C   UNL     1       7.129  17.485  19.882  0.00  0.00    +0.000 A 
ATOM      4  C   UNL     1       8.229  18.463  19.679  0.00  0.00    +0.000 C 
ATOM      5  C   UNL     1       7.079  16.455  20.853  0.00  0.00    +0.000 A 
ATOM      6  C   UNL     1       5.756  16.575  21.223  0.00  0.00    +0.000 A 
ATOM      7  O   UNL     1       5.260  16.488  22.461  0.00  0.00    +0.000 OA
ATOM      8  C   UNL     1       6.340  16.598  23.427  0.00  0.00    +0.000 C 
ATOM      9  C   UNL     1       7.407  15.515  23.139  0.00  0.00    +0.000 C 
ATOM     10  C   UNL     1       6.676  14.170  23.199  0.00  0.00    +0.000 C 
ATOM     11  S   UNL     1       7.799  12.799  22.964  0.00  0.00    +0.000 S 
ATOM     12  C   UNL     1       8.492  13.283  21.405  0.00  0.00    +0.000 A 
ATOM     13  N   UNL     1       8.947  12.213  20.697  0.00  0.00    +0.000 NA
ATOM     14  C   UNL     1       9.637  12.415  19.573  0.00  0.00    +0.000 A 
ATOM     15  C   UNL     1      10.104  11.323  18.847  0.00  0.00    +0.000 A 
ATOM     16  C   UNL     1      10.881  11.481  17.698  0.00  0.00    +0.000 A 
ATOM     17  C   UNL     1      11.200  12.759  17.256  0.00  0.00    +0.000 A 
ATOM     18  C   UNL     1      10.720  13.870  17.953  0.00  0.00    +0.000 A 
ATOM     19  C   UNL     1       9.929  13.707  19.103  0.00  0.00    +0.000 A 
ATOM     20  C   UNL     1       9.410  14.793  19.831  0.00  0.00    +0.000 A 
ATOM     21  C   UNL     1       8.643  14.605  20.996  0.00  0.00    +0.000 A 
ATOM     22  C   UNL     1       8.091  15.811  21.763  0.00  0.00    +0.000 C 
ENDROOT
BRANCH   1  27
ATOM     23  C   UNL     1      -0.241  15.243  18.736  0.00  0.00    +0.000 C 
ATOM     24  C   UNL     1       1.159  15.689  19.046  0.00  0.00    +0.000 A 
ATOM     25  C   UNL     1       2.249  14.828  18.867  0.00  0.00    +0.000 A 
ATOM     26  C   UNL     1       3.550  15.251  19.165  0.00  0.00    +0.000 A 
ATOM     27  C   UNL     1       3.776  16.545  19.654  0.00  0.00    +0.000 A 
ATOM     28  C   UNL     1       2.688  17.410  19.830  0.00  0.00    +0.000 A 
ATOM     29  C   UNL     1       1.391  16.984  19.523  0.00  0.00    +0.000 A 
ENDBRANCH   1  27
TORSDOF 1
ENDMDL
