MODEL 1
REMARK VINA RESULT:      -7.4      0.000      0.000
REMARK  Name = 
REMARK  12 active torsions:
REMARK  status: ('A' for Active; 'I' for Inactive)
REMARK    1  A    between atoms: C_1  and  C_2
REMARK    2  A    between atoms: C_4  and  C_5
REMARK    3  A    between atoms: C_8  and  S_9
REMARK    4  A    between atoms: S_9  and  C_10
REMARK    5  A    between atoms: C_10  and  C_11
REMARK    6  A    between atoms: C_11  and  C_13
REMARK    7  A    between atoms: C_14  and  N_15
REMARK    8  A    between atoms: N_16  and  C_17
REMARK    9  A    between atoms: C_17  and  C_18
REMARK   10  A    between atoms: C_18  and  C_19
REMARK   11  A    between atoms: C_18  and  C_20
REMARK   12  A    between atoms: N_23  and  C_24
REMARK                            x       y       z     vdW  Elec       q    Type
REMARK                         _______ _______ _______ _____ _____    ______ ____
ROOT
ATOM      1  C   UNL     1       5.183   4.191  18.584  0.00  0.00    +0.000 A 
ATOM      2  C   UNL     1       4.906   4.247  17.255  0.00  0.00    +0.000 A 
ATOM      3  N   UNL     1       5.625   5.123  16.434  0.00  0.00    +0.000 N 
ATOM      4  C   UNL     1       6.544   6.047  16.935  0.00  0.00    +0.000 A 
ATOM      5  O   UNL     1       7.024   6.944  16.239  0.00  0.00    +0.000 OA
ATOM      6  N   UNL     1       6.904   5.886  18.258  0.00  0.00    +0.000 N 
ATOM      7  C   UNL     1       7.987   6.695  18.789  0.00  0.00    +0.000 C 
ATOM      8  C   UNL     1       6.290   5.009  19.120  0.00  0.00    +0.000 A 
ATOM      9  O   UNL     1       6.639   4.889  20.294  0.00  0.00    +0.000 OA
ENDROOT
BRANCH   2  10
ATOM     10  N   UNL     1       3.889   3.483  16.691  0.00  0.00    +0.000 N 
ATOM     11  H   UNL     1       3.685   2.635  17.240  0.00  0.00    +0.000 HD
ATOM     12  H   UNL     1       4.047   3.235  15.722  0.00  0.00    +0.000 HD
ENDBRANCH   2  10
BRANCH   1  13
ATOM     13  C   UNL     1       4.418   3.251  19.492  0.00  0.00    +0.000 C 
ATOM     14  O   UNL     1       5.060   2.396  20.117  0.00  0.00    +0.000 OA
BRANCH  13  15
ATOM     15  C   UNL     1       2.886   3.371  19.597  0.00  0.00    +0.000 C 
BRANCH  15  16
ATOM     16  S   UNL     1       2.452   4.343  21.070  0.00  0.00    +0.000 S 
BRANCH  16  24
ATOM     17  C   UNL     1       0.525  11.377  19.436  0.00  0.00    +0.000 C 
ATOM     18  C   UNL     1       1.107   9.984  19.362  0.00  0.00    +0.000 A 
ATOM     19  C   UNL     1       1.949   9.675  18.155  0.00  0.00    +0.000 A 
ATOM     20  C   UNL     1       2.461   8.437  18.093  0.00  0.00    +0.000 A 
ATOM     21  C   UNL     1       3.323   7.965  16.965  0.00  0.00    +0.000 C 
ATOM     22  N   UNL     1       2.191   7.546  19.130  0.00  0.00    +0.000 N 
ATOM     23  N   UNL     1       2.607   6.271  19.273  0.00  0.00    +0.000 NA
ATOM     24  C   UNL     1       2.085   5.923  20.448  0.00  0.00    +0.000 A 
ATOM     25  N   UNL     1       1.341   6.882  21.067  0.00  0.00    +0.000 NA
ATOM     26  C   UNL     1       1.404   7.902  20.234  0.00  0.00    +0.000 A 
ATOM     27  N   UNL     1       0.856   9.154  20.332  0.00  0.00    +0.000 NA
ENDBRANCH  16  24
ENDBRANCH  15  16
ENDBRANCH  13  15
ENDBRANCH   1  13
BRANCH   3  28
ATOM     28  C   UNL     1       5.403   5.161  14.970  0.00  0.00    +0.000 C 
BRANCH  28  29
ATOM     29  C   UNL     1       6.359   4.242  14.165  0.00  0.00    +0.000 C 
ATOM     30  C   UNL     1       5.590   3.530  13.043  0.00  0.00    +0.000 C 
ATOM     31  C   UNL     1       7.542   4.991  13.542  0.00  0.00    +0.000 C 
ENDBRANCH  28  29
ENDBRANCH   3  28
TORSDOF 7
ENDMDL
MODEL 2
REMARK VINA RESULT:      -7.1      1.040      1.775
REMARK  Name = 
REMARK  12 active torsions:
REMARK  status: ('A' for Active; 'I' for Inactive)
REMARK    1  A    between atoms: C_1  and  C_2
REMARK    2  A    between atoms: C_4  and  C_5
REMARK    3  A    between atoms: C_8  and  S_9
REMARK    4  A    between atoms: S_9  and  C_10
REMARK    5  A    between atoms: C_10  and  C_11
REMARK    6  A    between atoms: C_11  and  C_13
REMARK    7  A    between atoms: C_14  and  N_15
REMARK    8  A    between atoms: N_16  and  C_17
REMARK    9  A    between atoms: C_17  and  C_18
REMARK   10  A    between atoms: C_18  and  C_19
REMARK   11  A    between atoms: C_18  and  C_20
REMARK   12  A    between atoms: N_23  and  C_24
REMARK                            x       y       z     vdW  Elec       q    Type
REMARK                         _______ _______ _______ _____ _____    ______ ____
ROOT
ATOM      1  C   UNL     1       5.279   4.469  18.555  0.00  0.00    +0.000 A 
ATOM      2  C   UNL     1       5.035   4.540  17.220  0.00  0.00    +0.000 A 
ATOM      3  N   UNL     1       5.845   5.341  16.408  0.00  0.00    +0.000 N 
ATOM      4  C   UNL     1       6.833   6.182  16.923  0.00  0.00    +0.000 A 
ATOM      5  O   UNL     1       7.407   7.027  16.231  0.00  0.00    +0.000 OA
ATOM      6  N   UNL     1       7.152   6.000  18.253  0.00  0.00    +0.000 N 
ATOM      7  C   UNL     1       8.292   6.714  18.802  0.00  0.00    +0.000 C 
ATOM      8  C   UNL     1       6.444   5.189  19.108  0.00  0.00    +0.000 A 
ATOM      9  O   UNL     1       6.757   5.047  20.289  0.00  0.00    +0.000 OA
ENDROOT
BRANCH   2  10
ATOM     10  N   UNL     1       3.965   3.866  16.640  0.00  0.00    +0.000 N 
ATOM     11  H   UNL     1       4.258   3.004  16.156  0.00  0.00    +0.000 HD
ATOM     12  H   UNL     1       3.406   4.436  16.016  0.00  0.00    +0.000 HD
ENDBRANCH   2  10
BRANCH   1  13
ATOM     13  C   UNL     1       4.414   3.609  19.452  0.00  0.00    +0.000 C 
ATOM     14  O   UNL     1       4.509   2.379  19.345  0.00  0.00    +0.000 OA
BRANCH  13  15
ATOM     15  C   UNL     1       3.445   4.277  20.445  0.00  0.00    +0.000 C 
BRANCH  15  16
ATOM     16  S   UNL     1       1.879   4.657  19.605  0.00  0.00    +0.000 S 
BRANCH  16  24
ATOM     17  C   UNL     1       1.693  12.040  18.459  0.00  0.00    +0.000 C 
ATOM     18  C   UNL     1       1.588  10.673  19.098  0.00  0.00    +0.000 A 
ATOM     19  C   UNL     1       1.037  10.629  20.496  0.00  0.00    +0.000 A 
ATOM     20  C   UNL     1       0.948   9.415  21.058  0.00  0.00    +0.000 A 
ATOM     21  C   UNL     1       0.419   9.191  22.439  0.00  0.00    +0.000 C 
ATOM     22  N   UNL     1       1.357   8.304  20.323  0.00  0.00    +0.000 N 
ATOM     23  N   UNL     1       1.346   7.004  20.688  0.00  0.00    +0.000 NA
ATOM     24  C   UNL     1       1.806   6.391  19.598  0.00  0.00    +0.000 A 
ATOM     25  N   UNL     1       2.133   7.209  18.558  0.00  0.00    +0.000 NA
ATOM     26  C   UNL     1       1.854   8.414  19.018  0.00  0.00    +0.000 A 
ATOM     27  N   UNL     1       1.968   9.636  18.410  0.00  0.00    +0.000 NA
ENDBRANCH  16  24
ENDBRANCH  15  16
ENDBRANCH  13  15
ENDBRANCH   1  13
BRANCH   3  28
ATOM     28  C   UNL     1       5.657   5.387  14.940  0.00  0.00    +0.000 C 
BRANCH  28  29
ATOM     29  C   UNL     1       6.552   4.389  14.159  0.00  0.00    +0.000 C 
ATOM     30  C   UNL     1       5.705   3.581  13.167  0.00  0.00    +0.000 C 
ATOM     31  C   UNL     1       7.688   5.066  13.387  0.00  0.00    +0.000 C 
ENDBRANCH  28  29
ENDBRANCH   3  28
TORSDOF 7
ENDMDL
MODEL 3
REMARK VINA RESULT:      -7.0      4.028      6.319
REMARK  Name = 
REMARK  12 active torsions:
REMARK  status: ('A' for Active; 'I' for Inactive)
REMARK    1  A    between atoms: C_1  and  C_2
REMARK    2  A    between atoms: C_4  and  C_5
REMARK    3  A    between atoms: C_8  and  S_9
REMARK    4  A    between atoms: S_9  and  C_10
REMARK    5  A    between atoms: C_10  and  C_11
REMARK    6  A    between atoms: C_11  and  C_13
REMARK    7  A    between atoms: C_14  and  N_15
REMARK    8  A    between atoms: N_16  and  C_17
REMARK    9  A    between atoms: C_17  and  C_18
REMARK   10  A    between atoms: C_18  and  C_19
REMARK   11  A    between atoms: C_18  and  C_20
REMARK   12  A    between atoms: N_23  and  C_24
REMARK                            x       y       z     vdW  Elec       q    Type
REMARK                         _______ _______ _______ _____ _____    ______ ____
ROOT
ATOM      1  C   UNL     1       2.385   7.514  19.027  0.00  0.00    +0.000 A 
ATOM      2  C   UNL     1       2.348   6.374  19.766  0.00  0.00    +0.000 A 
ATOM      3  N   UNL     1       3.098   5.263  19.364  0.00  0.00    +0.000 N 
ATOM      4  C   UNL     1       3.799   5.221  18.158  0.00  0.00    +0.000 A 
ATOM      5  O   UNL     1       4.292   4.180  17.717  0.00  0.00    +0.000 OA
ATOM      6  N   UNL     1       3.931   6.422  17.491  0.00  0.00    +0.000 N 
ATOM      7  C   UNL     1       4.799   6.483  16.329  0.00  0.00    +0.000 C 
ATOM      8  C   UNL     1       3.275   7.576  17.850  0.00  0.00    +0.000 A 
ATOM      9  O   UNL     1       3.418   8.632  17.235  0.00  0.00    +0.000 OA
ENDROOT
BRANCH   2  10
ATOM     10  N   UNL     1       1.544   6.265  20.896  0.00  0.00    +0.000 N 
ATOM     11  H   UNL     1       1.478   7.152  21.418  0.00  0.00    +0.000 HD
ATOM     12  H   UNL     1       1.812   5.516  21.524  0.00  0.00    +0.000 HD
ENDBRANCH   2  10
BRANCH   1  13
ATOM     13  C   UNL     1       1.581   8.728  19.443  0.00  0.00    +0.000 C 
ATOM     14  O   UNL     1       1.534   9.009  20.648  0.00  0.00    +0.000 OA
BRANCH  13  15
ATOM     15  C   UNL     1       0.842   9.556  18.375  0.00  0.00    +0.000 C 
BRANCH  15  16
ATOM     16  S   UNL     1       0.486  11.214  19.029  0.00  0.00    +0.000 S 
BRANCH  16  24
ATOM     17  C   UNL     1      -6.833  12.724  18.893  0.00  0.00    +0.000 C 
ATOM     18  C   UNL     1      -5.446  12.258  18.512  0.00  0.00    +0.000 A 
ATOM     19  C   UNL     1      -5.283  11.714  17.119  0.00  0.00    +0.000 A 
ATOM     20  C   UNL     1      -4.051  11.301  16.787  0.00  0.00    +0.000 A 
ATOM     21  C   UNL     1      -3.714  10.738  15.443  0.00  0.00    +0.000 C 
ATOM     22  N   UNL     1      -3.030  11.408  17.729  0.00  0.00    +0.000 N 
ATOM     23  N   UNL     1      -1.731  11.063  17.604  0.00  0.00    +0.000 NA
ATOM     24  C   UNL     1      -1.222  11.413  18.785  0.00  0.00    +0.000 A 
ATOM     25  N   UNL     1      -2.108  11.942  19.673  0.00  0.00    +0.000 NA
ATOM     26  C   UNL     1      -3.248  11.933  19.010  0.00  0.00    +0.000 A 
ATOM     27  N   UNL     1      -4.493  12.360  19.392  0.00  0.00    +0.000 NA
ENDBRANCH  16  24
ENDBRANCH  15  16
ENDBRANCH  13  15
ENDBRANCH   1  13
BRANCH   3  28
ATOM     28  C   UNL     1       3.141   4.028  20.180  0.00  0.00    +0.000 C 
BRANCH  28  29
ATOM     29  C   UNL     1       1.800   3.249  20.213  0.00  0.00    +0.000 C 
ATOM     30  C   UNL     1       1.812   2.128  19.164  0.00  0.00    +0.000 C 
ATOM     31  C   UNL     1       1.488   2.631  21.579  0.00  0.00    +0.000 C 
ENDBRANCH  28  29
ENDBRANCH   3  28
TORSDOF 7
ENDMDL
MODEL 4
REMARK VINA RESULT:      -7.0      4.774      9.964
REMARK  Name = 
REMARK  12 active torsions:
REMARK  status: ('A' for Active; 'I' for Inactive)
REMARK    1  A    between atoms: C_1  and  C_2
REMARK    2  A    between atoms: C_4  and  C_5
REMARK    3  A    between atoms: C_8  and  S_9
REMARK    4  A    between atoms: S_9  and  C_10
REMARK    5  A    between atoms: C_10  and  C_11
REMARK    6  A    between atoms: C_11  and  C_13
REMARK    7  A    between atoms: C_14  and  N_15
REMARK    8  A    between atoms: N_16  and  C_17
REMARK    9  A    between atoms: C_17  and  C_18
REMARK   10  A    between atoms: C_18  and  C_19
REMARK   11  A    between atoms: C_18  and  C_20
REMARK   12  A    between atoms: N_23  and  C_24
REMARK                            x       y       z     vdW  Elec       q    Type
REMARK                         _______ _______ _______ _____ _____    ______ ____
ROOT
ATOM      1  C   UNL     1      -0.981  11.681  19.166  0.00  0.00    +0.000 A 
ATOM      2  C   UNL     1      -1.481  12.470  20.153  0.00  0.00    +0.000 A 
ATOM      3  N   UNL     1      -2.860  12.693  20.230  0.00  0.00    +0.000 N 
ATOM      4  C   UNL     1      -3.755  12.239  19.260  0.00  0.00    +0.000 A 
ATOM      5  O   UNL     1      -4.933  12.602  19.227  0.00  0.00    +0.000 OA
ATOM      6  N   UNL     1      -3.251  11.337  18.346  0.00  0.00    +0.000 N 
ATOM      7  C   UNL     1      -4.169  10.689  17.426  0.00  0.00    +0.000 C 
ATOM      8  C   UNL     1      -1.918  11.017  18.237  0.00  0.00    +0.000 A 
ATOM      9  O   UNL     1      -1.503  10.205  17.411  0.00  0.00    +0.000 OA
ENDROOT
BRANCH   2  10
ATOM     10  N   UNL     1      -0.648  13.104  21.069  0.00  0.00    +0.000 N 
ATOM     11  H   UNL     1      -0.935  14.076  21.255  0.00  0.00    +0.000 HD
ATOM     12  H   UNL     1       0.334  13.079  20.821  0.00  0.00    +0.000 HD
ENDBRANCH   2  10
BRANCH   1  13
ATOM     13  C   UNL     1       0.508  11.426  19.062  0.00  0.00    +0.000 C 
ATOM     14  O   UNL     1       1.215  12.310  18.561  0.00  0.00    +0.000 OA
BRANCH  13  15
ATOM     15  C   UNL     1       1.089  10.089  19.559  0.00  0.00    +0.000 C 
BRANCH  15  16
ATOM     16  S   UNL     1       1.919   9.238  18.184  0.00  0.00    +0.000 S 
BRANCH  16  24
ATOM     17  C   UNL     1       2.524   2.619  21.602  0.00  0.00    +0.000 C 
ATOM     18  C   UNL     1       2.643   3.743  20.598  0.00  0.00    +0.000 A 
ATOM     19  C   UNL     1       3.330   3.412  19.302  0.00  0.00    +0.000 A 
ATOM     20  C   UNL     1       3.433   4.414  18.417  0.00  0.00    +0.000 A 
ATOM     21  C   UNL     1       4.083   4.257  17.078  0.00  0.00    +0.000 C 
ATOM     22  N   UNL     1       2.905   5.660  18.747  0.00  0.00    +0.000 N 
ATOM     23  N   UNL     1       2.893   6.791  18.011  0.00  0.00    +0.000 NA
ATOM     24  C   UNL     1       2.238   7.645  18.796  0.00  0.00    +0.000 A 
ATOM     25  N   UNL     1       1.843   7.148  20.002  0.00  0.00    +0.000 NA
ATOM     26  C   UNL     1       2.268   5.900  19.972  0.00  0.00    +0.000 A 
ATOM     27  N   UNL     1       2.147   4.906  20.907  0.00  0.00    +0.000 NA
ENDBRANCH  16  24
ENDBRANCH  15  16
ENDBRANCH  13  15
ENDBRANCH   1  13
BRANCH   3  28
ATOM     28  C   UNL     1      -3.450  13.487  21.333  0.00  0.00    +0.000 C 
BRANCH  28  29
ATOM     29  C   UNL     1      -4.051  12.627  22.476  0.00  0.00    +0.000 C 
ATOM     30  C   UNL     1      -3.214  12.784  23.753  0.00  0.00    +0.000 C 
ATOM     31  C   UNL     1      -5.505  12.980  22.803  0.00  0.00    +0.000 C 
ENDBRANCH  28  29
ENDBRANCH   3  28
TORSDOF 7
ENDMDL
MODEL 5
REMARK VINA RESULT:      -6.9      1.466      3.274
REMARK  Name = 
REMARK  12 active torsions:
REMARK  status: ('A' for Active; 'I' for Inactive)
REMARK    1  A    between atoms: C_1  and  C_2
REMARK    2  A    between atoms: C_4  and  C_5
REMARK    3  A    between atoms: C_8  and  S_9
REMARK    4  A    between atoms: S_9  and  C_10
REMARK    5  A    between atoms: C_10  and  C_11
REMARK    6  A    between atoms: C_11  and  C_13
REMARK    7  A    between atoms: C_14  and  N_15
REMARK    8  A    between atoms: N_16  and  C_17
REMARK    9  A    between atoms: C_17  and  C_18
REMARK   10  A    between atoms: C_18  and  C_19
REMARK   11  A    between atoms: C_18  and  C_20
REMARK   12  A    between atoms: N_23  and  C_24
REMARK                            x       y       z     vdW  Elec       q    Type
REMARK                         _______ _______ _______ _____ _____    ______ ____
ROOT
ATOM      1  C   UNL     1       5.151   3.936  18.068  0.00  0.00    +0.000 A 
ATOM      2  C   UNL     1       6.114   4.811  18.460  0.00  0.00    +0.000 A 
ATOM      3  N   UNL     1       6.888   5.467  17.496  0.00  0.00    +0.000 N 
ATOM      4  C   UNL     1       6.805   5.176  16.133  0.00  0.00    +0.000 A 
ATOM      5  O   UNL     1       7.619   5.609  15.315  0.00  0.00    +0.000 OA
ATOM      6  N   UNL     1       5.740   4.388  15.746  0.00  0.00    +0.000 N 
ATOM      7  C   UNL     1       5.493   4.198  14.328  0.00  0.00    +0.000 C 
ATOM      8  C   UNL     1       4.896   3.751  16.625  0.00  0.00    +0.000 A 
ATOM      9  O   UNL     1       3.954   3.057  16.245  0.00  0.00    +0.000 OA
ENDROOT
BRANCH   2  10
ATOM     10  N   UNL     1       6.384   5.041  19.805  0.00  0.00    +0.000 N 
ATOM     11  H   UNL     1       6.195   4.214  20.391  0.00  0.00    +0.000 HD
ATOM     12  H   UNL     1       5.909   5.849  20.189  0.00  0.00    +0.000 HD
ENDBRANCH   2  10
BRANCH   1  13
ATOM     13  C   UNL     1       4.302   3.214  19.093  0.00  0.00    +0.000 C 
ATOM     14  O   UNL     1       4.870   2.446  19.881  0.00  0.00    +0.000 OA
BRANCH  13  15
ATOM     15  C   UNL     1       2.779   3.438  19.116  0.00  0.00    +0.000 C 
BRANCH  15  16
ATOM     16  S   UNL     1       2.302   4.218  20.687  0.00  0.00    +0.000 S 
BRANCH  16  24
ATOM     17  C   UNL     1       1.770  11.151  17.946  0.00  0.00    +0.000 C 
ATOM     18  C   UNL     1       1.642   9.934  18.835  0.00  0.00    +0.000 A 
ATOM     19  C   UNL     1       0.812  10.099  20.078  0.00  0.00    +0.000 A 
ATOM     20  C   UNL     1       0.704   9.018  20.863  0.00  0.00    +0.000 A 
ATOM     21  C   UNL     1      -0.087   9.006  22.133  0.00  0.00    +0.000 C 
ATOM     22  N   UNL     1       1.347   7.842  20.480  0.00  0.00    +0.000 N 
ATOM     23  N   UNL     1       1.365   6.649  21.110  0.00  0.00    +0.000 NA
ATOM     24  C   UNL     1       2.093   5.895  20.288  0.00  0.00    +0.000 A 
ATOM     25  N   UNL     1       2.566   6.526  19.177  0.00  0.00    +0.000 NA
ATOM     26  C   UNL     1       2.100   7.754  19.302  0.00  0.00    +0.000 A 
ATOM     27  N   UNL     1       2.242   8.837  18.475  0.00  0.00    +0.000 NA
ENDBRANCH  16  24
ENDBRANCH  15  16
ENDBRANCH  13  15
ENDBRANCH   1  13
BRANCH   3  28
ATOM     28  C   UNL     1       7.896   6.481  17.880  0.00  0.00    +0.000 C 
BRANCH  28  29
ATOM     29  C   UNL     1       7.557   7.918  17.402  0.00  0.00    +0.000 C 
ATOM     30  C   UNL     1       6.054   8.188  17.556  0.00  0.00    +0.000 C 
ATOM     31  C   UNL     1       8.324   9.008  18.158  0.00  0.00    +0.000 C 
ENDBRANCH  28  29
ENDBRANCH   3  28
TORSDOF 7
ENDMDL
MODEL 6
REMARK VINA RESULT:      -6.9      4.154      9.317
REMARK  Name = 
REMARK  12 active torsions:
REMARK  status: ('A' for Active; 'I' for Inactive)
REMARK    1  A    between atoms: C_1  and  C_2
REMARK    2  A    between atoms: C_4  and  C_5
REMARK    3  A    between atoms: C_8  and  S_9
REMARK    4  A    between atoms: S_9  and  C_10
REMARK    5  A    between atoms: C_10  and  C_11
REMARK    6  A    between atoms: C_11  and  C_13
REMARK    7  A    between atoms: C_14  and  N_15
REMARK    8  A    between atoms: N_16  and  C_17
REMARK    9  A    between atoms: C_17  and  C_18
REMARK   10  A    between atoms: C_18  and  C_19
REMARK   11  A    between atoms: C_18  and  C_20
REMARK   12  A    between atoms: N_23  and  C_24
REMARK                            x       y       z     vdW  Elec       q    Type
REMARK                         _______ _______ _______ _____ _____    ______ ____
ROOT
ATOM      1  C   UNL     1      -0.239  10.211  21.091  0.00  0.00    +0.000 A 
ATOM      2  C   UNL     1      -0.753  10.878  22.157  0.00  0.00    +0.000 A 
ATOM      3  N   UNL     1      -1.049  12.241  22.044  0.00  0.00    +0.000 N 
ATOM      4  C   UNL     1      -0.725  12.994  20.914  0.00  0.00    +0.000 A 
ATOM      5  O   UNL     1      -0.807  14.224  20.895  0.00  0.00    +0.000 OA
ATOM      6  N   UNL     1      -0.328  12.279  19.803  0.00  0.00    +0.000 N 
ATOM      7  C   UNL     1      -0.153  12.983  18.545  0.00  0.00    +0.000 C 
ATOM      8  C   UNL     1      -0.070  10.928  19.811  0.00  0.00    +0.000 A 
ATOM      9  O   UNL     1       0.280  10.320  18.800  0.00  0.00    +0.000 OA
ENDROOT
BRANCH   2  10
ATOM     10  N   UNL     1      -0.953  10.249  23.381  0.00  0.00    +0.000 N 
ATOM     11  H   UNL     1      -1.703  10.691  23.933  0.00  0.00    +0.000 HD
ATOM     12  H   UNL     1      -0.116  10.166  23.945  0.00  0.00    +0.000 HD
ENDBRANCH   2  10
BRANCH   1  13
ATOM     13  C   UNL     1       0.089   8.736  21.190  0.00  0.00    +0.000 C 
ATOM     14  O   UNL     1      -0.774   7.978  21.654  0.00  0.00    +0.000 OA
BRANCH  13  15
ATOM     15  C   UNL     1       1.471   8.230  20.735  0.00  0.00    +0.000 C 
BRANCH  15  16
ATOM     16  S   UNL     1       1.529   6.418  20.866  0.00  0.00    +0.000 S 
BRANCH  16  24
ATOM     17  C   UNL     1       6.025   5.314  14.999  0.00  0.00    +0.000 C 
ATOM     18  C   UNL     1       5.082   5.091  16.160  0.00  0.00    +0.000 A 
ATOM     19  C   UNL     1       4.764   3.660  16.496  0.00  0.00    +0.000 A 
ATOM     20  C   UNL     1       3.926   3.467  17.525  0.00  0.00    +0.000 A 
ATOM     21  C   UNL     1       3.508   2.110  17.995  0.00  0.00    +0.000 C 
ATOM     22  N   UNL     1       3.425   4.579  18.200  0.00  0.00    +0.000 N 
ATOM     23  N   UNL     1       2.585   4.614  19.255  0.00  0.00    +0.000 NA
ATOM     24  C   UNL     1       2.478   5.919  19.501  0.00  0.00    +0.000 A 
ATOM     25  N   UNL     1       3.178   6.733  18.662  0.00  0.00    +0.000 NA
ATOM     26  C   UNL     1       3.769   5.888  17.840  0.00  0.00    +0.000 A 
ATOM     27  N   UNL     1       4.617   6.129  16.790  0.00  0.00    +0.000 NA
ENDBRANCH  16  24
ENDBRANCH  15  16
ENDBRANCH  13  15
ENDBRANCH   1  13
BRANCH   3  28
ATOM     28  C   UNL     1      -1.677  12.986  23.159  0.00  0.00    +0.000 C 
BRANCH  28  29
ATOM     29  C   UNL     1      -3.222  13.079  23.062  0.00  0.00    +0.000 C 
ATOM     30  C   UNL     1      -3.870  12.455  24.306  0.00  0.00    +0.000 C 
ATOM     31  C   UNL     1      -3.739  14.513  22.915  0.00  0.00    +0.000 C 
ENDBRANCH  28  29
ENDBRANCH   3  28
TORSDOF 7
ENDMDL
MODEL 7
REMARK VINA RESULT:      -6.9      3.435      5.136
REMARK  Name = 
REMARK  12 active torsions:
REMARK  status: ('A' for Active; 'I' for Inactive)
REMARK    1  A    between atoms: C_1  and  C_2
REMARK    2  A    between atoms: C_4  and  C_5
REMARK    3  A    between atoms: C_8  and  S_9
REMARK    4  A    between atoms: S_9  and  C_10
REMARK    5  A    between atoms: C_10  and  C_11
REMARK    6  A    between atoms: C_11  and  C_13
REMARK    7  A    between atoms: C_14  and  N_15
REMARK    8  A    between atoms: N_16  and  C_17
REMARK    9  A    between atoms: C_17  and  C_18
REMARK   10  A    between atoms: C_18  and  C_19
REMARK   11  A    between atoms: C_18  and  C_20
REMARK   12  A    between atoms: N_23  and  C_24
REMARK                            x       y       z     vdW  Elec       q    Type
REMARK                         _______ _______ _______ _____ _____    ______ ____
ROOT
ATOM      1  C   UNL     1       3.157   6.382  18.020  0.00  0.00    +0.000 A 
ATOM      2  C   UNL     1       2.642   5.126  17.968  0.00  0.00    +0.000 A 
ATOM      3  N   UNL     1       3.385   4.096  17.380  0.00  0.00    +0.000 N 
ATOM      4  C   UNL     1       4.597   4.318  16.724  0.00  0.00    +0.000 A 
ATOM      5  O   UNL     1       5.147   3.449  16.042  0.00  0.00    +0.000 OA
ATOM      6  N   UNL     1       5.162   5.564  16.900  0.00  0.00    +0.000 N 
ATOM      7  C   UNL     1       6.504   5.799  16.397  0.00  0.00    +0.000 C 
ATOM      8  C   UNL     1       4.525   6.616  17.515  0.00  0.00    +0.000 A 
ATOM      9  O   UNL     1       5.060   7.715  17.658  0.00  0.00    +0.000 OA
ENDROOT
BRANCH   2  10
ATOM     10  N   UNL     1       1.367   4.842  18.447  0.00  0.00    +0.000 N 
ATOM     11  H   UNL     1       1.069   3.880  18.227  0.00  0.00    +0.000 HD
ATOM     12  H   UNL     1       0.657   5.499  18.146  0.00  0.00    +0.000 HD
ENDBRANCH   2  10
BRANCH   1  13
ATOM     13  C   UNL     1       2.371   7.512  18.650  0.00  0.00    +0.000 C 
ATOM     14  O   UNL     1       2.234   7.509  19.881  0.00  0.00    +0.000 OA
BRANCH  13  15
ATOM     15  C   UNL     1       1.759   8.607  17.757  0.00  0.00    +0.000 C 
BRANCH  15  16
ATOM     16  S   UNL     1       1.499  10.117  18.734  0.00  0.00    +0.000 S 
BRANCH  16  24
ATOM     17  C   UNL     1      -5.610  12.422  18.664  0.00  0.00    +0.000 C 
ATOM     18  C   UNL     1      -4.302  11.759  18.295  0.00  0.00    +0.000 A 
ATOM     19  C   UNL     1      -4.266  11.037  16.977  0.00  0.00    +0.000 A 
ATOM     20  C   UNL     1      -3.104  10.450  16.656  0.00  0.00    +0.000 A 
ATOM     21  C   UNL     1      -2.895   9.695  15.382  0.00  0.00    +0.000 C 
ATOM     22  N   UNL     1      -2.033  10.552  17.542  0.00  0.00    +0.000 N 
ATOM     23  N   UNL     1      -0.787  10.050  17.417  0.00  0.00    +0.000 NA
ATOM     24  C   UNL     1      -0.186  10.478  18.526  0.00  0.00    +0.000 A 
ATOM     25  N   UNL     1      -0.966  11.207  19.372  0.00  0.00    +0.000 NA
ATOM     26  C   UNL     1      -2.131  11.249  18.754  0.00  0.00    +0.000 A 
ATOM     27  N   UNL     1      -3.302  11.857  19.123  0.00  0.00    +0.000 NA
ENDBRANCH  16  24
ENDBRANCH  15  16
ENDBRANCH  13  15
ENDBRANCH   1  13
BRANCH   3  28
ATOM     28  C   UNL     1       2.890   2.700  17.369  0.00  0.00    +0.000 C 
BRANCH  28  29
ATOM     29  C   UNL     1       3.134   1.936  18.697  0.00  0.00    +0.000 C 
ATOM     30  C   UNL     1       4.251   2.614  19.503  0.00  0.00    +0.000 C 
ATOM     31  C   UNL     1       1.888   1.839  19.582  0.00  0.00    +0.000 C 
ENDBRANCH  28  29
ENDBRANCH   3  28
TORSDOF 7
ENDMDL
MODEL 8
REMARK VINA RESULT:      -6.9      4.090      9.374
REMARK  Name = 
REMARK  12 active torsions:
REMARK  status: ('A' for Active; 'I' for Inactive)
REMARK    1  A    between atoms: C_1  and  C_2
REMARK    2  A    between atoms: C_4  and  C_5
REMARK    3  A    between atoms: C_8  and  S_9
REMARK    4  A    between atoms: S_9  and  C_10
REMARK    5  A    between atoms: C_10  and  C_11
REMARK    6  A    between atoms: C_11  and  C_13
REMARK    7  A    between atoms: C_14  and  N_15
REMARK    8  A    between atoms: N_16  and  C_17
REMARK    9  A    between atoms: C_17  and  C_18
REMARK   10  A    between atoms: C_18  and  C_19
REMARK   11  A    between atoms: C_18  and  C_20
REMARK   12  A    between atoms: N_23  and  C_24
REMARK                            x       y       z     vdW  Elec       q    Type
REMARK                         _______ _______ _______ _____ _____    ______ ____
ROOT
ATOM      1  C   UNL     1      -0.053  11.037  18.911  0.00  0.00    +0.000 A 
ATOM      2  C   UNL     1       0.024  11.732  20.076  0.00  0.00    +0.000 A 
ATOM      3  N   UNL     1      -1.126  12.330  20.604  0.00  0.00    +0.000 N 
ATOM      4  C   UNL     1      -2.345  12.354  19.924  0.00  0.00    +0.000 A 
ATOM      5  O   UNL     1      -3.295  13.045  20.297  0.00  0.00    +0.000 OA
ATOM      6  N   UNL     1      -2.436  11.538  18.815  0.00  0.00    +0.000 N 
ATOM      7  C   UNL     1      -3.728  11.378  18.171  0.00  0.00    +0.000 C 
ATOM      8  C   UNL     1      -1.369  10.869  18.263  0.00  0.00    +0.000 A 
ATOM      9  O   UNL     1      -1.486  10.147  17.274  0.00  0.00    +0.000 OA
ENDROOT
BRANCH   2  10
ATOM     10  N   UNL     1       1.234  11.905  20.742  0.00  0.00    +0.000 N 
ATOM     11  H   UNL     1       2.030  11.514  20.217  0.00  0.00    +0.000 HD
ATOM     12  H   UNL     1       1.239  11.547  21.690  0.00  0.00    +0.000 HD
ENDBRANCH   2  10
BRANCH   1  13
ATOM     13  C   UNL     1       1.179  10.383  18.321  0.00  0.00    +0.000 C 
ATOM     14  O   UNL     1       2.187  11.084  18.155  0.00  0.00    +0.000 OA
BRANCH  13  15
ATOM     15  C   UNL     1       1.140   8.892  17.935  0.00  0.00    +0.000 C 
BRANCH  15  16
ATOM     16  S   UNL     1       2.187   7.940  19.075  0.00  0.00    +0.000 S 
BRANCH  16  24
ATOM     17  C   UNL     1       7.130   4.806  14.427  0.00  0.00    +0.000 C 
ATOM     18  C   UNL     1       6.027   5.009  15.441  0.00  0.00    +0.000 A 
ATOM     19  C   UNL     1       5.438   3.765  16.046  0.00  0.00    +0.000 A 
ATOM     20  C   UNL     1       4.459   3.951  16.943  0.00  0.00    +0.000 A 
ATOM     21  C   UNL     1       3.767   2.824  17.643  0.00  0.00    +0.000 C 
ATOM     22  N   UNL     1       4.069   5.253  17.251  0.00  0.00    +0.000 N 
ATOM     23  N   UNL     1       3.121   5.664  18.120  0.00  0.00    +0.000 NA
ATOM     24  C   UNL     1       3.202   6.991  18.034  0.00  0.00    +0.000 A 
ATOM     25  N   UNL     1       4.125   7.467  17.152  0.00  0.00    +0.000 NA
ATOM     26  C   UNL     1       4.666   6.372  16.656  0.00  0.00    +0.000 A 
ATOM     27  N   UNL     1       5.665   6.225  15.729  0.00  0.00    +0.000 NA
ENDBRANCH  16  24
ENDBRANCH  15  16
ENDBRANCH  13  15
ENDBRANCH   1  13
BRANCH   3  28
ATOM     28  C   UNL     1      -1.098  13.033  21.907  0.00  0.00    +0.000 C 
BRANCH  28  29
ATOM     29  C   UNL     1      -1.433  12.125  23.119  0.00  0.00    +0.000 C 
ATOM     30  C   UNL     1      -2.931  12.204  23.445  0.00  0.00    +0.000 C 
ATOM     31  C   UNL     1      -1.063  10.654  22.899  0.00  0.00    +0.000 C 
ENDBRANCH  28  29
ENDBRANCH   3  28
TORSDOF 7
ENDMDL
MODEL 9
REMARK VINA RESULT:      -6.8      3.540      5.086
REMARK  Name = 
REMARK  12 active torsions:
REMARK  status: ('A' for Active; 'I' for Inactive)
REMARK    1  A    between atoms: C_1  and  C_2
REMARK    2  A    between atoms: C_4  and  C_5
REMARK    3  A    between atoms: C_8  and  S_9
REMARK    4  A    between atoms: S_9  and  C_10
REMARK    5  A    between atoms: C_10  and  C_11
REMARK    6  A    between atoms: C_11  and  C_13
REMARK    7  A    between atoms: C_14  and  N_15
REMARK    8  A    between atoms: N_16  and  C_17
REMARK    9  A    between atoms: C_17  and  C_18
REMARK   10  A    between atoms: C_18  and  C_19
REMARK   11  A    between atoms: C_18  and  C_20
REMARK   12  A    between atoms: N_23  and  C_24
REMARK                            x       y       z     vdW  Elec       q    Type
REMARK                         _______ _______ _______ _____ _____    ______ ____
ROOT
ATOM      1  C   UNL     1       2.771   6.385  19.379  0.00  0.00    +0.000 A 
ATOM      2  C   UNL     1       3.859   6.311  18.569  0.00  0.00    +0.000 A 
ATOM      3  N   UNL     1       4.556   5.103  18.454  0.00  0.00    +0.000 N 
ATOM      4  C   UNL     1       4.262   3.983  19.233  0.00  0.00    +0.000 A 
ATOM      5  O   UNL     1       4.997   2.994  19.271  0.00  0.00    +0.000 OA
ATOM      6  N   UNL     1       3.083   4.035  19.948  0.00  0.00    +0.000 N 
ATOM      7  C   UNL     1       2.628   2.838  20.633  0.00  0.00    +0.000 C 
ATOM      8  C   UNL     1       2.307   5.164  20.069  0.00  0.00    +0.000 A 
ATOM      9  O   UNL     1       1.258   5.175  20.712  0.00  0.00    +0.000 OA
ENDROOT
BRANCH   2  10
ATOM     10  N   UNL     1       4.329   7.424  17.879  0.00  0.00    +0.000 N 
ATOM     11  H   UNL     1       4.295   7.296  16.857  0.00  0.00    +0.000 HD
ATOM     12  H   UNL     1       5.258   7.720  18.156  0.00  0.00    +0.000 HD
ENDBRANCH   2  10
BRANCH   1  13
ATOM     13  C   UNL     1       2.002   7.682  19.520  0.00  0.00    +0.000 C 
ATOM     14  O   UNL     1       1.798   8.116  20.662  0.00  0.00    +0.000 OA
BRANCH  13  15
ATOM     15  C   UNL     1       1.488   8.404  18.261  0.00  0.00    +0.000 C 
BRANCH  15  16
ATOM     16  S   UNL     1       1.390  10.191  18.581  0.00  0.00    +0.000 S 
BRANCH  16  24
ATOM     17  C   UNL     1      -5.709  12.511  18.863  0.00  0.00    +0.000 C 
ATOM     18  C   UNL     1      -4.422  11.847  18.430  0.00  0.00    +0.000 A 
ATOM     19  C   UNL     1      -4.452  11.128  17.109  0.00  0.00    +0.000 A 
ATOM     20  C   UNL     1      -3.309  10.539  16.731  0.00  0.00    +0.000 A 
ATOM     21  C   UNL     1      -3.163   9.786  15.446  0.00  0.00    +0.000 C 
ATOM     22  N   UNL     1      -2.196  10.636  17.564  0.00  0.00    +0.000 N 
ATOM     23  N   UNL     1      -0.958  10.132  17.377  0.00  0.00    +0.000 NA
ATOM     24  C   UNL     1      -0.303  10.556  18.456  0.00  0.00    +0.000 A 
ATOM     25  N   UNL     1      -1.039  11.285  19.341  0.00  0.00    +0.000 NA
ATOM     26  C   UNL     1      -2.232  11.330  18.781  0.00  0.00    +0.000 A 
ATOM     27  N   UNL     1      -3.382  11.940  19.207  0.00  0.00    +0.000 NA
ENDBRANCH  16  24
ENDBRANCH  15  16
ENDBRANCH  13  15
ENDBRANCH   1  13
BRANCH   3  28
ATOM     28  C   UNL     1       5.702   4.962  17.526  0.00  0.00    +0.000 C 
BRANCH  28  29
ATOM     29  C   UNL     1       5.292   4.658  16.061  0.00  0.00    +0.000 C 
ATOM     30  C   UNL     1       5.395   5.929  15.206  0.00  0.00    +0.000 C 
ATOM     31  C   UNL     1       6.139   3.563  15.406  0.00  0.00    +0.000 C 
ENDBRANCH  28  29
ENDBRANCH   3  28
TORSDOF 7
ENDMDL
