MODEL 1
REMARK VINA RESULT:      -7.2      0.000      0.000
REMARK  Name = 
REMARK  8 active torsions:
REMARK  status: ('A' for Active; 'I' for Inactive)
REMARK    1  A    between atoms: C_2  and  C_3
REMARK    2  A    between atoms: C_2  and  C_18
REMARK    3  A    between atoms: C_3  and  N_4
REMARK    4  A    between atoms: N_7  and  C_8
REMARK    5  A    between atoms: C_8  and  C_9
REMARK    6  A    between atoms: C_18  and  O_19
REMARK    7  A    between atoms: C_18  and  C_20
REMARK    8  A    between atoms: C_18  and  C_26
REMARK                            x       y       z     vdW  Elec       q    Type
REMARK                         _______ _______ _______ _____ _____    ______ ____
ROOT
ATOM      1  O   UNL     1       2.731   7.700  18.208  0.00  0.00    +0.000 OA
ATOM      2  C   UNL     1       2.438   7.080  19.243  0.00  0.00    +0.000 C 
ENDROOT
BRANCH   2   3
ATOM      3  C   UNL     1       1.899   7.764  20.525  0.00  0.00    +0.000 C 
BRANCH   3   4
ATOM      4  N   UNL     1       0.538   8.350  20.354  0.00  0.00    +0.000 NA
ATOM      5  C   UNL     1      -0.240   8.398  21.607  0.00  0.00    +0.000 C 
ATOM      6  C   UNL     1       0.430   9.297  22.673  0.00  0.00    +0.000 C 
ATOM      7  N   UNL     1       0.397  10.728  22.282  0.00  0.00    +0.000 NA
ATOM      8  C   UNL     1       0.944  10.857  20.908  0.00  0.00    +0.000 C 
ATOM      9  C   UNL     1       0.579   9.754  19.858  0.00  0.00    +0.000 C 
BRANCH   7  10
ATOM     10  C   UNL     1      -0.998  11.181  22.458  0.00  0.00    +0.000 C 
BRANCH  10  11
ATOM     11  C   UNL     1      -1.301  12.639  22.237  0.00  0.00    +0.000 A 
ATOM     12  C   UNL     1      -1.074  13.548  23.284  0.00  0.00    +0.000 A 
ATOM     13  C   UNL     1      -1.500  14.873  23.173  0.00  0.00    +0.000 A 
ATOM     14  C   UNL     1      -2.143  15.303  22.014  0.00  0.00    +0.000 A 
ATOM     15  C   UNL     1      -2.366  14.420  20.966  0.00  0.00    +0.000 A 
ATOM     16  C   UNL     1      -1.943  13.092  21.070  0.00  0.00    +0.000 A 
ATOM     17 CL   UNL     1      -2.307  12.054  19.735  0.00  0.00    +0.000 Cl
ENDBRANCH  10  11
ENDBRANCH   7  10
ENDBRANCH   3   4
ENDBRANCH   2   3
BRANCH   2  18
ATOM     18  C   UNL     1       2.581   5.550  19.185  0.00  0.00    +0.000 C 
BRANCH  18  19
ATOM     19  C   UNL     1       3.963   5.132  18.673  0.00  0.00    +0.000 A 
ATOM     20  C   UNL     1       5.150   5.483  19.342  0.00  0.00    +0.000 A 
ATOM     21  C   UNL     1       6.398   5.295  18.740  0.00  0.00    +0.000 A 
ATOM     22  C   UNL     1       6.489   4.730  17.473  0.00  0.00    +0.000 A 
ATOM     23  C   UNL     1       5.333   4.313  16.821  0.00  0.00    +0.000 A 
ATOM     24  C   UNL     1       4.086   4.499  17.421  0.00  0.00    +0.000 A 
ENDBRANCH  18  19
BRANCH  18  25
ATOM     25  C   UNL     1       2.146   4.794  20.439  0.00  0.00    +0.000 C 
ATOM     26  C   UNL     1       0.787   4.020  20.358  0.00  0.00    +0.000 C 
ATOM     27  C   UNL     1       1.421   2.943  21.258  0.00  0.00    +0.000 C 
ATOM     28  C   UNL     1       2.788   3.392  20.710  0.00  0.00    +0.000 C 
ENDBRANCH  18  25
BRANCH  18  29
ATOM     29  O   UNL     1       1.639   5.200  18.131  0.00  0.00    +0.000 OA
ATOM     30  H   UNL     1       2.187   4.775  17.436  0.00  0.00    +0.000 HD
ENDBRANCH  18  29
ENDBRANCH   2  18
TORSDOF 8
ENDMDL
MODEL 2
REMARK VINA RESULT:      -7.1      1.071      1.176
REMARK  Name = 
REMARK  8 active torsions:
REMARK  status: ('A' for Active; 'I' for Inactive)
REMARK    1  A    between atoms: C_2  and  C_3
REMARK    2  A    between atoms: C_2  and  C_18
REMARK    3  A    between atoms: C_3  and  N_4
REMARK    4  A    between atoms: N_7  and  C_8
REMARK    5  A    between atoms: C_8  and  C_9
REMARK    6  A    between atoms: C_18  and  O_19
REMARK    7  A    between atoms: C_18  and  C_20
REMARK    8  A    between atoms: C_18  and  C_26
REMARK                            x       y       z     vdW  Elec       q    Type
REMARK                         _______ _______ _______ _____ _____    ______ ____
ROOT
ATOM      1  O   UNL     1       2.886   7.707  18.214  0.00  0.00    +0.000 OA
ATOM      2  C   UNL     1       2.531   7.081  19.226  0.00  0.00    +0.000 C 
ENDROOT
BRANCH   2   3
ATOM      3  C   UNL     1       1.946   7.761  20.489  0.00  0.00    +0.000 C 
BRANCH   3   4
ATOM      4  N   UNL     1       0.590   8.344  20.271  0.00  0.00    +0.000 NA
ATOM      5  C   UNL     1      -0.168   8.545  21.521  0.00  0.00    +0.000 C 
ATOM      6  C   UNL     1       0.530   9.549  22.469  0.00  0.00    +0.000 C 
ATOM      7  N   UNL     1       0.510  10.927  21.919  0.00  0.00    +0.000 NA
ATOM      8  C   UNL     1       1.037  10.891  20.531  0.00  0.00    +0.000 C 
ATOM      9  C   UNL     1       0.642   9.682  19.618  0.00  0.00    +0.000 C 
BRANCH   7  10
ATOM     10  C   UNL     1      -0.876  11.417  22.061  0.00  0.00    +0.000 C 
BRANCH  10  11
ATOM     11  C   UNL     1      -1.080  12.841  22.508  0.00  0.00    +0.000 A 
ATOM     12  C   UNL     1      -0.097  13.798  22.204  0.00  0.00    +0.000 A 
ATOM     13  C   UNL     1      -0.171  15.082  22.744  0.00  0.00    +0.000 A 
ATOM     14  C   UNL     1      -1.232  15.426  23.581  0.00  0.00    +0.000 A 
ATOM     15  C   UNL     1      -2.218  14.496  23.883  0.00  0.00    +0.000 A 
ATOM     16  C   UNL     1      -2.150  13.207  23.345  0.00  0.00    +0.000 A 
ATOM     17 CL   UNL     1      -3.395  12.103  23.815  0.00  0.00    +0.000 Cl
ENDBRANCH  10  11
ENDBRANCH   7  10
ENDBRANCH   3   4
ENDBRANCH   2   3
BRANCH   2  18
ATOM     18  C   UNL     1       2.646   5.549  19.155  0.00  0.00    +0.000 C 
BRANCH  18  19
ATOM     19  C   UNL     1       4.021   5.110  18.642  0.00  0.00    +0.000 A 
ATOM     20  C   UNL     1       5.214   5.443  19.309  0.00  0.00    +0.000 A 
ATOM     21  C   UNL     1       6.459   5.236  18.706  0.00  0.00    +0.000 A 
ATOM     22  C   UNL     1       6.539   4.667  17.440  0.00  0.00    +0.000 A 
ATOM     23  C   UNL     1       5.376   4.268  16.789  0.00  0.00    +0.000 A 
ATOM     24  C   UNL     1       4.133   4.474  17.390  0.00  0.00    +0.000 A 
ENDBRANCH  18  19
BRANCH  18  25
ATOM     25  C   UNL     1       2.195   4.791  20.402  0.00  0.00    +0.000 C 
ATOM     26  C   UNL     1       0.800   4.081  20.327  0.00  0.00    +0.000 C 
ATOM     27  C   UNL     1       1.396   2.960  21.199  0.00  0.00    +0.000 C 
ATOM     28  C   UNL     1       2.775   3.357  20.638  0.00  0.00    +0.000 C 
ENDBRANCH  18  25
BRANCH  18  29
ATOM     29  O   UNL     1       1.700   5.226  18.097  0.00  0.00    +0.000 OA
ATOM     30  H   UNL     1       2.164   5.462  17.264  0.00  0.00    +0.000 HD
ENDBRANCH  18  29
ENDBRANCH   2  18
TORSDOF 8
ENDMDL
MODEL 3
REMARK VINA RESULT:      -7.0      1.023      2.907
REMARK  Name = 
REMARK  8 active torsions:
REMARK  status: ('A' for Active; 'I' for Inactive)
REMARK    1  A    between atoms: C_2  and  C_3
REMARK    2  A    between atoms: C_2  and  C_18
REMARK    3  A    between atoms: C_3  and  N_4
REMARK    4  A    between atoms: N_7  and  C_8
REMARK    5  A    between atoms: C_8  and  C_9
REMARK    6  A    between atoms: C_18  and  O_19
REMARK    7  A    between atoms: C_18  and  C_20
REMARK    8  A    between atoms: C_18  and  C_26
REMARK                            x       y       z     vdW  Elec       q    Type
REMARK                         _______ _______ _______ _____ _____    ______ ____
ROOT
ATOM      1  O   UNL     1       2.049   7.969  17.781  0.00  0.00    +0.000 OA
ATOM      2  C   UNL     1       2.295   7.446  18.881  0.00  0.00    +0.000 C 
ENDROOT
BRANCH   2   3
ATOM      3  C   UNL     1       1.834   8.048  20.233  0.00  0.00    +0.000 C 
BRANCH   3   4
ATOM      4  N   UNL     1       0.450   8.604  20.190  0.00  0.00    +0.000 NA
ATOM      5  C   UNL     1      -0.234   8.574  21.497  0.00  0.00    +0.000 C 
ATOM      6  C   UNL     1       0.493   9.440  22.553  0.00  0.00    +0.000 C 
ATOM      7  N   UNL     1       0.399  10.886  22.236  0.00  0.00    +0.000 NA
ATOM      8  C   UNL     1       0.839  11.093  20.833  0.00  0.00    +0.000 C 
ATOM      9  C   UNL     1       0.422  10.031  19.760  0.00  0.00    +0.000 C 
BRANCH   7  10
ATOM     10  C   UNL     1      -0.990  11.293  22.535  0.00  0.00    +0.000 C 
BRANCH  10  11
ATOM     11  C   UNL     1      -1.356  12.743  22.355  0.00  0.00    +0.000 A 
ATOM     12  C   UNL     1      -1.077  13.649  23.392  0.00  0.00    +0.000 A 
ATOM     13  C   UNL     1      -1.552  14.960  23.330  0.00  0.00    +0.000 A 
ATOM     14  C   UNL     1      -2.297  15.380  22.229  0.00  0.00    +0.000 A 
ATOM     15  C   UNL     1      -2.572  14.500  21.191  0.00  0.00    +0.000 A 
ATOM     16  C   UNL     1      -2.100  13.185  21.246  0.00  0.00    +0.000 A 
ATOM     17 CL   UNL     1      -2.533  12.149  19.931  0.00  0.00    +0.000 Cl
ENDBRANCH  10  11
ENDBRANCH   7  10
ENDBRANCH   3   4
ENDBRANCH   2   3
BRANCH   2  18
ATOM     18  C   UNL     1       3.051   6.108  18.847  0.00  0.00    +0.000 C 
BRANCH  18  19
ATOM     19  C   UNL     1       2.239   4.985  19.497  0.00  0.00    +0.000 A 
ATOM     20  C   UNL     1       2.368   4.654  20.859  0.00  0.00    +0.000 A 
ATOM     21  C   UNL     1       1.797   3.486  21.374  0.00  0.00    +0.000 A 
ATOM     22  C   UNL     1       1.066   2.640  20.549  0.00  0.00    +0.000 A 
ATOM     23  C   UNL     1       0.869   2.979  19.215  0.00  0.00    +0.000 A 
ATOM     24  C   UNL     1       1.437   4.146  18.699  0.00  0.00    +0.000 A 
ENDBRANCH  18  19
BRANCH  18  25
ATOM     25  C   UNL     1       3.652   5.718  17.498  0.00  0.00    +0.000 C 
ATOM     26  C   UNL     1       4.867   6.570  16.996  0.00  0.00    +0.000 C 
ATOM     27  C   UNL     1       5.440   5.275  16.389  0.00  0.00    +0.000 C 
ATOM     28  C   UNL     1       4.641   4.506  17.458  0.00  0.00    +0.000 C 
ENDBRANCH  18  25
BRANCH  18  29
ATOM     29  O   UNL     1       4.166   6.372  19.746  0.00  0.00    +0.000 OA
ATOM     30  H   UNL     1       4.425   7.300  19.559  0.00  0.00    +0.000 HD
ENDBRANCH  18  29
ENDBRANCH   2  18
TORSDOF 8
ENDMDL
MODEL 4
REMARK VINA RESULT:      -6.9      1.329      1.987
REMARK  Name = 
REMARK  8 active torsions:
REMARK  status: ('A' for Active; 'I' for Inactive)
REMARK    1  A    between atoms: C_2  and  C_3
REMARK    2  A    between atoms: C_2  and  C_18
REMARK    3  A    between atoms: C_3  and  N_4
REMARK    4  A    between atoms: N_7  and  C_8
REMARK    5  A    between atoms: C_8  and  C_9
REMARK    6  A    between atoms: C_18  and  O_19
REMARK    7  A    between atoms: C_18  and  C_20
REMARK    8  A    between atoms: C_18  and  C_26
REMARK                            x       y       z     vdW  Elec       q    Type
REMARK                         _______ _______ _______ _____ _____    ______ ____
ROOT
ATOM      1  O   UNL     1       2.821   7.890  18.222  0.00  0.00    +0.000 OA
ATOM      2  C   UNL     1       2.330   7.170  19.106  0.00  0.00    +0.000 C 
ENDROOT
BRANCH   2   3
ATOM      3  C   UNL     1       1.388   7.703  20.216  0.00  0.00    +0.000 C 
BRANCH   3   4
ATOM      4  N   UNL     1       1.825   9.012  20.782  0.00  0.00    +0.000 NA
ATOM      5  C   UNL     1       1.135  10.170  20.181  0.00  0.00    +0.000 C 
ATOM      6  C   UNL     1      -0.391  10.134  20.438  0.00  0.00    +0.000 C 
ATOM      7  N   UNL     1      -0.711  10.345  21.871  0.00  0.00    +0.000 NA
ATOM      8  C   UNL     1       0.092   9.395  22.682  0.00  0.00    +0.000 C 
ATOM      9  C   UNL     1       1.570   9.114  22.247  0.00  0.00    +0.000 C 
BRANCH   7  10
ATOM     10  C   UNL     1      -0.475  11.777  22.149  0.00  0.00    +0.000 C 
BRANCH  10  11
ATOM     11  C   UNL     1      -1.514  12.524  22.942  0.00  0.00    +0.000 A 
ATOM     12  C   UNL     1      -2.649  11.833  23.399  0.00  0.00    +0.000 A 
ATOM     13  C   UNL     1      -3.708  12.526  23.988  0.00  0.00    +0.000 A 
ATOM     14  C   UNL     1      -3.637  13.910  24.137  0.00  0.00    +0.000 A 
ATOM     15  C   UNL     1      -2.518  14.608  23.700  0.00  0.00    +0.000 A 
ATOM     16  C   UNL     1      -1.454  13.920  23.108  0.00  0.00    +0.000 A 
ATOM     17 CL   UNL     1      -0.125  14.876  22.552  0.00  0.00    +0.000 Cl
ENDBRANCH  10  11
ENDBRANCH   7  10
ENDBRANCH   3   4
ENDBRANCH   2   3
BRANCH   2  18
ATOM     18  C   UNL     1       2.658   5.670  19.025  0.00  0.00    +0.000 C 
BRANCH  18  19
ATOM     19  C   UNL     1       4.068   5.429  18.477  0.00  0.00    +0.000 A 
ATOM     20  C   UNL     1       4.296   4.846  17.218  0.00  0.00    +0.000 A 
ATOM     21  C   UNL     1       5.575   4.424  16.840  0.00  0.00    +0.000 A 
ATOM     22  C   UNL     1       6.654   4.601  17.698  0.00  0.00    +0.000 A 
ATOM     23  C   UNL     1       6.465   5.236  18.921  0.00  0.00    +0.000 A 
ATOM     24  C   UNL     1       5.189   5.658  19.300  0.00  0.00    +0.000 A 
ENDBRANCH  18  19
BRANCH  18  25
ATOM     25  C   UNL     1       2.348   4.853  20.278  0.00  0.00    +0.000 C 
ATOM     26  C   UNL     1       0.946   4.156  20.335  0.00  0.00    +0.000 C 
ATOM     27  C   UNL     1       1.628   2.990  21.074  0.00  0.00    +0.000 C 
ATOM     28  C   UNL     1       2.935   3.406  20.374  0.00  0.00    +0.000 C 
ENDBRANCH  18  25
BRANCH  18  29
ATOM     29  O   UNL     1       1.741   5.219  17.988  0.00  0.00    +0.000 OA
ATOM     30  H   UNL     1       2.302   5.105  17.189  0.00  0.00    +0.000 HD
ENDBRANCH  18  29
ENDBRANCH   2  18
TORSDOF 8
ENDMDL
MODEL 5
REMARK VINA RESULT:      -6.8      2.063      4.198
REMARK  Name = 
REMARK  8 active torsions:
REMARK  status: ('A' for Active; 'I' for Inactive)
REMARK    1  A    between atoms: C_2  and  C_3
REMARK    2  A    between atoms: C_2  and  C_18
REMARK    3  A    between atoms: C_3  and  N_4
REMARK    4  A    between atoms: N_7  and  C_8
REMARK    5  A    between atoms: C_8  and  C_9
REMARK    6  A    between atoms: C_18  and  O_19
REMARK    7  A    between atoms: C_18  and  C_20
REMARK    8  A    between atoms: C_18  and  C_26
REMARK                            x       y       z     vdW  Elec       q    Type
REMARK                         _______ _______ _______ _____ _____    ______ ____
ROOT
ATOM      1  O   UNL     1       5.646   5.668  19.651  0.00  0.00    +0.000 OA
ATOM      2  C   UNL     1       4.794   5.690  18.748  0.00  0.00    +0.000 C 
ENDROOT
BRANCH   2   3
ATOM      3  C   UNL     1       4.019   6.968  18.339  0.00  0.00    +0.000 C 
BRANCH   3   4
ATOM      4  N   UNL     1       2.537   6.808  18.410  0.00  0.00    +0.000 NA
ATOM      5  C   UNL     1       2.009   6.857  19.787  0.00  0.00    +0.000 C 
ATOM      6  C   UNL     1       2.277   8.223  20.463  0.00  0.00    +0.000 C 
ATOM      7  N   UNL     1       1.488   9.311  19.834  0.00  0.00    +0.000 NA
ATOM      8  C   UNL     1       1.714   9.274  18.368  0.00  0.00    +0.000 C 
ATOM      9  C   UNL     1       1.811   7.877  17.667  0.00  0.00    +0.000 C 
BRANCH   7  10
ATOM     10  C   UNL     1       0.089   9.122  20.269  0.00  0.00    +0.000 C 
BRANCH  10  11
ATOM     11  C   UNL     1      -0.623  10.293  20.892  0.00  0.00    +0.000 A 
ATOM     12  C   UNL     1      -1.193  11.268  20.057  0.00  0.00    +0.000 A 
ATOM     13  C   UNL     1      -1.709  12.446  20.596  0.00  0.00    +0.000 A 
ATOM     14  C   UNL     1      -1.673  12.656  21.974  0.00  0.00    +0.000 A 
ATOM     15  C   UNL     1      -1.123  11.698  22.816  0.00  0.00    +0.000 A 
ATOM     16  C   UNL     1      -0.603  10.515  22.282  0.00  0.00    +0.000 A 
ATOM     17 CL   UNL     1       0.104   9.402  23.401  0.00  0.00    +0.000 Cl
ENDBRANCH  10  11
ENDBRANCH   7  10
ENDBRANCH   3   4
ENDBRANCH   2   3
BRANCH   2  18
ATOM     18  C   UNL     1       4.569   4.372  17.988  0.00  0.00    +0.000 C 
BRANCH  18  19
ATOM     19  C   UNL     1       3.358   3.608  18.532  0.00  0.00    +0.000 A 
ATOM     20  C   UNL     1       2.200   3.390  17.763  0.00  0.00    +0.000 A 
ATOM     21  C   UNL     1       1.028   2.901  18.349  0.00  0.00    +0.000 A 
ATOM     22  C   UNL     1       0.997   2.594  19.705  0.00  0.00    +0.000 A 
ATOM     23  C   UNL     1       2.149   2.738  20.470  0.00  0.00    +0.000 A 
ATOM     24  C   UNL     1       3.320   3.226  19.887  0.00  0.00    +0.000 A 
ENDBRANCH  18  19
BRANCH  18  25
ATOM     25  C   UNL     1       4.587   4.473  16.464  0.00  0.00    +0.000 C 
ATOM     26  C   UNL     1       5.499   5.585  15.843  0.00  0.00    +0.000 C 
ATOM     27  C   UNL     1       5.792   4.609  14.688  0.00  0.00    +0.000 C 
ATOM     28  C   UNL     1       5.487   3.465  15.674  0.00  0.00    +0.000 C 
ENDBRANCH  18  25
BRANCH  18  29
ATOM     29  O   UNL     1       5.740   3.600  18.376  0.00  0.00    +0.000 OA
ATOM     30  H   UNL     1       6.416   3.810  17.696  0.00  0.00    +0.000 HD
ENDBRANCH  18  29
ENDBRANCH   2  18
TORSDOF 8
ENDMDL
MODEL 6
REMARK VINA RESULT:      -6.8      1.538      3.266
REMARK  Name = 
REMARK  8 active torsions:
REMARK  status: ('A' for Active; 'I' for Inactive)
REMARK    1  A    between atoms: C_2  and  C_3
REMARK    2  A    between atoms: C_2  and  C_18
REMARK    3  A    between atoms: C_3  and  N_4
REMARK    4  A    between atoms: N_7  and  C_8
REMARK    5  A    between atoms: C_8  and  C_9
REMARK    6  A    between atoms: C_18  and  O_19
REMARK    7  A    between atoms: C_18  and  C_20
REMARK    8  A    between atoms: C_18  and  C_26
REMARK                            x       y       z     vdW  Elec       q    Type
REMARK                         _______ _______ _______ _____ _____    ______ ____
ROOT
ATOM      1  O   UNL     1       2.426   7.997  17.956  0.00  0.00    +0.000 OA
ATOM      2  C   UNL     1       2.394   7.233  18.934  0.00  0.00    +0.000 C 
ENDROOT
BRANCH   2   3
ATOM      3  C   UNL     1       1.595   7.535  20.227  0.00  0.00    +0.000 C 
BRANCH   3   4
ATOM      4  N   UNL     1       1.826   8.911  20.756  0.00  0.00    +0.000 NA
ATOM      5  C   UNL     1       1.051   9.948  20.049  0.00  0.00    +0.000 C 
ATOM      6  C   UNL     1      -0.474   9.735  20.197  0.00  0.00    +0.000 C 
ATOM      7  N   UNL     1      -0.928   9.965  21.590  0.00  0.00    +0.000 NA
ATOM      8  C   UNL     1      -0.083   9.156  22.504  0.00  0.00    +0.000 C 
ATOM      9  C   UNL     1       1.447   9.041  22.192  0.00  0.00    +0.000 C 
BRANCH   7  10
ATOM     10  C   UNL     1      -0.888  11.425  21.810  0.00  0.00    +0.000 C 
BRANCH  10  11
ATOM     11  C   UNL     1      -2.176  12.124  22.158  0.00  0.00    +0.000 A 
ATOM     12  C   UNL     1      -2.546  12.239  23.508  0.00  0.00    +0.000 A 
ATOM     13  C   UNL     1      -3.806  12.727  23.856  0.00  0.00    +0.000 A 
ATOM     14  C   UNL     1      -4.701  13.116  22.861  0.00  0.00    +0.000 A 
ATOM     15  C   UNL     1      -4.348  13.020  21.521  0.00  0.00    +0.000 A 
ATOM     16  C   UNL     1      -3.087  12.531  21.165  0.00  0.00    +0.000 A 
ATOM     17 CL   UNL     1      -2.753  12.401  19.474  0.00  0.00    +0.000 Cl
ENDBRANCH  10  11
ENDBRANCH   7  10
ENDBRANCH   3   4
ENDBRANCH   2   3
BRANCH   2  18
ATOM     18  C   UNL     1       3.157   5.906  18.789  0.00  0.00    +0.000 C 
BRANCH  18  19
ATOM     19  C   UNL     1       2.316   4.717  19.261  0.00  0.00    +0.000 A 
ATOM     20  C   UNL     1       2.463   4.154  20.542  0.00  0.00    +0.000 A 
ATOM     21  C   UNL     1       1.858   2.935  20.867  0.00  0.00    +0.000 A 
ATOM     22  C   UNL     1       1.075   2.269  19.931  0.00  0.00    +0.000 A 
ATOM     23  C   UNL     1       0.861   2.839  18.681  0.00  0.00    +0.000 A 
ATOM     24  C   UNL     1       1.463   4.056  18.355  0.00  0.00    +0.000 A 
ENDBRANCH  18  19
BRANCH  18  25
ATOM     25  C   UNL     1       3.831   5.672  17.438  0.00  0.00    +0.000 C 
ATOM     26  C   UNL     1       5.183   6.423  17.187  0.00  0.00    +0.000 C 
ATOM     27  C   UNL     1       5.650   5.183  16.400  0.00  0.00    +0.000 C 
ATOM     28  C   UNL     1       4.666   4.361  17.252  0.00  0.00    +0.000 C 
ENDBRANCH  18  25
BRANCH  18  29
ATOM     29  O   UNL     1       4.220   6.063  19.771  0.00  0.00    +0.000 OA
ATOM     30  H   UNL     1       4.675   6.896  19.518  0.00  0.00    +0.000 HD
ENDBRANCH  18  29
ENDBRANCH   2  18
TORSDOF 8
ENDMDL
MODEL 7
REMARK VINA RESULT:      -6.8      1.138      1.488
REMARK  Name = 
REMARK  8 active torsions:
REMARK  status: ('A' for Active; 'I' for Inactive)
REMARK    1  A    between atoms: C_2  and  C_3
REMARK    2  A    between atoms: C_2  and  C_18
REMARK    3  A    between atoms: C_3  and  N_4
REMARK    4  A    between atoms: N_7  and  C_8
REMARK    5  A    between atoms: C_8  and  C_9
REMARK    6  A    between atoms: C_18  and  O_19
REMARK    7  A    between atoms: C_18  and  C_20
REMARK    8  A    between atoms: C_18  and  C_26
REMARK                            x       y       z     vdW  Elec       q    Type
REMARK                         _______ _______ _______ _____ _____    ______ ____
ROOT
ATOM      1  O   UNL     1       3.146   7.533  18.434  0.00  0.00    +0.000 OA
ATOM      2  C   UNL     1       2.549   6.820  19.257  0.00  0.00    +0.000 C 
ENDROOT
BRANCH   2   3
ATOM      3  C   UNL     1       1.502   7.370  20.260  0.00  0.00    +0.000 C 
BRANCH   3   4
ATOM      4  N   UNL     1       1.797   8.758  20.720  0.00  0.00    +0.000 NA
ATOM      5  C   UNL     1       1.034   9.790  19.993  0.00  0.00    +0.000 C 
ATOM      6  C   UNL     1      -0.492   9.637  20.198  0.00  0.00    +0.000 C 
ATOM      7  N   UNL     1      -0.891   9.943  21.594  0.00  0.00    +0.000 NA
ATOM      8  C   UNL     1      -0.043   9.144  22.515  0.00  0.00    +0.000 C 
ATOM      9  C   UNL     1       1.471   8.963  22.160  0.00  0.00    +0.000 C 
BRANCH   7  10
ATOM     10  C   UNL     1      -0.794  11.409  21.748  0.00  0.00    +0.000 C 
BRANCH  10  11
ATOM     11  C   UNL     1      -2.068  12.183  21.962  0.00  0.00    +0.000 A 
ATOM     12  C   UNL     1      -2.566  12.327  23.268  0.00  0.00    +0.000 A 
ATOM     13  C   UNL     1      -3.825  12.889  23.486  0.00  0.00    +0.000 A 
ATOM     14  C   UNL     1      -4.590  13.324  22.405  0.00  0.00    +0.000 A 
ATOM     15  C   UNL     1      -4.108  13.198  21.108  0.00  0.00    +0.000 A 
ATOM     16  C   UNL     1      -2.848  12.635  20.882  0.00  0.00    +0.000 A 
ATOM     17 CL   UNL     1      -2.353  12.476  19.234  0.00  0.00    +0.000 Cl
ENDBRANCH  10  11
ENDBRANCH   7  10
ENDBRANCH   3   4
ENDBRANCH   2   3
BRANCH   2  18
ATOM     18  C   UNL     1       2.857   5.315  19.208  0.00  0.00    +0.000 C 
BRANCH  18  19
ATOM     19  C   UNL     1       4.268   5.045  18.677  0.00  0.00    +0.000 A 
ATOM     20  C   UNL     1       5.422   5.494  19.346  0.00  0.00    +0.000 A 
ATOM     21  C   UNL     1       6.677   5.442  18.732  0.00  0.00    +0.000 A 
ATOM     22  C   UNL     1       6.810   4.917  17.451  0.00  0.00    +0.000 A 
ATOM     23  C   UNL     1       5.695   4.406  16.797  0.00  0.00    +0.000 A 
ATOM     24  C   UNL     1       4.441   4.457  17.409  0.00  0.00    +0.000 A 
ENDBRANCH  18  19
BRANCH  18  25
ATOM     25  C   UNL     1       2.526   4.527  20.474  0.00  0.00    +0.000 C 
ATOM     26  C   UNL     1       1.072   3.953  20.585  0.00  0.00    +0.000 C 
ATOM     27  C   UNL     1       1.679   2.732  21.301  0.00  0.00    +0.000 C 
ATOM     28  C   UNL     1       2.990   3.035  20.551  0.00  0.00    +0.000 C 
ENDBRANCH  18  25
BRANCH  18  29
ATOM     29  O   UNL     1       1.943   4.856  18.172  0.00  0.00    +0.000 OA
ATOM     30  H   UNL     1       1.047   5.061  18.519  0.00  0.00    +0.000 HD
ENDBRANCH  18  29
ENDBRANCH   2  18
TORSDOF 8
ENDMDL
MODEL 8
REMARK VINA RESULT:      -6.8      2.487      4.152
REMARK  Name = 
REMARK  8 active torsions:
REMARK  status: ('A' for Active; 'I' for Inactive)
REMARK    1  A    between atoms: C_2  and  C_3
REMARK    2  A    between atoms: C_2  and  C_18
REMARK    3  A    between atoms: C_3  and  N_4
REMARK    4  A    between atoms: N_7  and  C_8
REMARK    5  A    between atoms: C_8  and  C_9
REMARK    6  A    between atoms: C_18  and  O_19
REMARK    7  A    between atoms: C_18  and  C_20
REMARK    8  A    between atoms: C_18  and  C_26
REMARK                            x       y       z     vdW  Elec       q    Type
REMARK                         _______ _______ _______ _____ _____    ______ ____
ROOT
ATOM      1  O   UNL     1       3.541   7.894  17.274  0.00  0.00    +0.000 OA
ATOM      2  C   UNL     1       3.057   7.237  18.210  0.00  0.00    +0.000 C 
ENDROOT
BRANCH   2   3
ATOM      3  C   UNL     1       1.974   7.792  19.171  0.00  0.00    +0.000 C 
BRANCH   3   4
ATOM      4  N   UNL     1       1.851   9.278  19.127  0.00  0.00    +0.000 NA
ATOM      5  C   UNL     1       1.111   9.768  17.948  0.00  0.00    +0.000 C 
ATOM      6  C   UNL     1      -0.352   9.264  17.929  0.00  0.00    +0.000 C 
ATOM      7  N   UNL     1      -1.154   9.869  19.021  0.00  0.00    +0.000 NA
ATOM      8  C   UNL     1      -0.433   9.675  20.304  0.00  0.00    +0.000 C 
ATOM      9  C   UNL     1       1.126   9.825  20.308  0.00  0.00    +0.000 C 
BRANCH   7  10
ATOM     10  C   UNL     1      -1.401  11.273  18.634  0.00  0.00    +0.000 C 
BRANCH  10  11
ATOM     11  C   UNL     1      -2.825  11.701  18.396  0.00  0.00    +0.000 A 
ATOM     12  C   UNL     1      -3.575  12.200  19.474  0.00  0.00    +0.000 A 
ATOM     13  C   UNL     1      -4.941  12.447  19.329  0.00  0.00    +0.000 A 
ATOM     14  C   UNL     1      -5.566  12.210  18.105  0.00  0.00    +0.000 A 
ATOM     15  C   UNL     1      -4.837  11.727  17.026  0.00  0.00    +0.000 A 
ATOM     16  C   UNL     1      -3.468  11.477  17.164  0.00  0.00    +0.000 A 
ATOM     17 CL   UNL     1      -2.653  10.832  15.783  0.00  0.00    +0.000 Cl
ENDBRANCH  10  11
ENDBRANCH   7  10
ENDBRANCH   3   4
ENDBRANCH   2   3
BRANCH   2  18
ATOM     18  C   UNL     1       3.548   5.787  18.352  0.00  0.00    +0.000 C 
BRANCH  18  19
ATOM     19  C   UNL     1       2.556   4.931  19.145  0.00  0.00    +0.000 A 
ATOM     20  C   UNL     1       2.688   4.714  20.528  0.00  0.00    +0.000 A 
ATOM     21  C   UNL     1       1.916   3.750  21.184  0.00  0.00    +0.000 A 
ATOM     22  C   UNL     1       0.980   3.003  20.478  0.00  0.00    +0.000 A 
ATOM     23  C   UNL     1       0.784   3.246  19.123  0.00  0.00    +0.000 A 
ATOM     24  C   UNL     1       1.554   4.209  18.467  0.00  0.00    +0.000 A 
ENDBRANCH  18  19
BRANCH  18  25
ATOM     25  C   UNL     1       4.030   5.120  17.065  0.00  0.00    +0.000 C 
ATOM     26  C   UNL     1       5.514   5.393  16.644  0.00  0.00    +0.000 C 
ATOM     27  C   UNL     1       5.562   3.947  16.116  0.00  0.00    +0.000 C 
ATOM     28  C   UNL     1       4.455   3.615  17.134  0.00  0.00    +0.000 C 
ENDBRANCH  18  25
BRANCH  18  29
ATOM     29  O   UNL     1       4.715   5.949  19.208  0.00  0.00    +0.000 OA
ATOM     30  H   UNL     1       4.406   6.515  19.949  0.00  0.00    +0.000 HD
ENDBRANCH  18  29
ENDBRANCH   2  18
TORSDOF 8
ENDMDL
MODEL 9
REMARK VINA RESULT:      -6.7      2.209      4.188
REMARK  Name = 
REMARK  8 active torsions:
REMARK  status: ('A' for Active; 'I' for Inactive)
REMARK    1  A    between atoms: C_2  and  C_3
REMARK    2  A    between atoms: C_2  and  C_18
REMARK    3  A    between atoms: C_3  and  N_4
REMARK    4  A    between atoms: N_7  and  C_8
REMARK    5  A    between atoms: C_8  and  C_9
REMARK    6  A    between atoms: C_18  and  O_19
REMARK    7  A    between atoms: C_18  and  C_20
REMARK    8  A    between atoms: C_18  and  C_26
REMARK                            x       y       z     vdW  Elec       q    Type
REMARK                         _______ _______ _______ _____ _____    ______ ____
ROOT
ATOM      1  O   UNL     1       6.005   5.360  19.785  0.00  0.00    +0.000 OA
ATOM      2  C   UNL     1       4.975   5.515  19.109  0.00  0.00    +0.000 C 
ENDROOT
BRANCH   2   3
ATOM      3  C   UNL     1       4.173   6.840  19.070  0.00  0.00    +0.000 C 
BRANCH   3   4
ATOM      4  N   UNL     1       2.719   6.642  18.800  0.00  0.00    +0.000 NA
ATOM      5  C   UNL     1       1.861   6.952  19.959  0.00  0.00    +0.000 C 
ATOM      6  C   UNL     1       1.970   8.436  20.382  0.00  0.00    +0.000 C 
ATOM      7  N   UNL     1       1.383   9.342  19.365  0.00  0.00    +0.000 NA
ATOM      8  C   UNL     1       1.972   9.014  18.042  0.00  0.00    +0.000 C 
ATOM      9  C   UNL     1       2.221   7.508  17.693  0.00  0.00    +0.000 C 
BRANCH   7  10
ATOM     10  C   UNL     1      -0.083   9.193  19.464  0.00  0.00    +0.000 C 
BRANCH  10  11
ATOM     11  C   UNL     1      -0.917  10.444  19.543  0.00  0.00    +0.000 A 
ATOM     12  C   UNL     1      -0.858  11.230  20.706  0.00  0.00    +0.000 A 
ATOM     13  C   UNL     1      -1.739  12.298  20.883  0.00  0.00    +0.000 A 
ATOM     14  C   UNL     1      -2.676  12.599  19.895  0.00  0.00    +0.000 A 
ATOM     15  C   UNL     1      -2.740  11.839  18.734  0.00  0.00    +0.000 A 
ATOM     16  C   UNL     1      -1.862  10.767  18.551  0.00  0.00    +0.000 A 
ATOM     17 CL   UNL     1      -2.048   9.849  17.097  0.00  0.00    +0.000 Cl
ENDBRANCH  10  11
ENDBRANCH   7  10
ENDBRANCH   3   4
ENDBRANCH   2   3
BRANCH   2  18
ATOM     18  C   UNL     1       4.542   4.322  18.241  0.00  0.00    +0.000 C 
BRANCH  18  19
ATOM     19  C   UNL     1       3.261   3.673  18.773  0.00  0.00    +0.000 A 
ATOM     20  C   UNL     1       2.140   3.441  17.955  0.00  0.00    +0.000 A 
ATOM     21  C   UNL     1       0.911   3.067  18.506  0.00  0.00    +0.000 A 
ATOM     22  C   UNL     1       0.783   2.891  19.880  0.00  0.00    +0.000 A 
ATOM     23  C   UNL     1       1.893   3.049  20.701  0.00  0.00    +0.000 A 
ATOM     24  C   UNL     1       3.122   3.422  20.152  0.00  0.00    +0.000 A 
ENDBRANCH  18  19
BRANCH  18  25
ATOM     25  C   UNL     1       4.513   4.573  16.734  0.00  0.00    +0.000 C 
ATOM     26  C   UNL     1       5.273   5.842  16.217  0.00  0.00    +0.000 C 
ATOM     27  C   UNL     1       5.651   5.025  14.967  0.00  0.00    +0.000 C 
ATOM     28  C   UNL     1       5.505   3.763  15.836  0.00  0.00    +0.000 C 
ENDBRANCH  18  25
BRANCH  18  29
ATOM     29  O   UNL     1       5.612   3.366  18.490  0.00  0.00    +0.000 OA
ATOM     30  H   UNL     1       6.344   3.650  17.901  0.00  0.00    +0.000 HD
ENDBRANCH  18  29
ENDBRANCH   2  18
TORSDOF 8
ENDMDL
