MODEL 1
REMARK VINA RESULT:      -9.0      0.000      0.000
REMARK  Name = 
REMARK  4 active torsions:
REMARK  status: ('A' for Active; 'I' for Inactive)
REMARK    1  A    between atoms: C_1  and  C_2
REMARK    2  A    between atoms: C_8  and  C_9
REMARK    3  A    between atoms: N_20  and  C_21
REMARK    4  A    between atoms: C_21  and  C_22
REMARK                            x       y       z     vdW  Elec       q    Type
REMARK                         _______ _______ _______ _____ _____    ______ ____
ROOT
ATOM      1  C   UNL     1       2.172   7.988  19.394  0.00  0.00    +0.000 A 
ATOM      2  C   UNL     1       2.780   8.573  18.268  0.00  0.00    +0.000 A 
ATOM      3  C   UNL     1       3.591   7.828  17.398  0.00  0.00    +0.000 A 
ATOM      4  C   UNL     1       3.808   6.473  17.645  0.00  0.00    +0.000 A 
ATOM      5  C   UNL     1       4.493   5.585  16.728  0.00  0.00    +0.000 A 
ATOM      6  N   UNL     1       5.355   5.826  15.706  0.00  0.00    +0.000 N 
ATOM      7  N   UNL     1       5.675   4.713  15.014  0.00  0.00    +0.000 NA
ATOM      8  C   UNL     1       5.066   3.729  15.690  0.00  0.00    +0.000 A 
ATOM      9  C   UNL     1       4.377   4.217  16.806  0.00  0.00    +0.000 A 
ATOM     10  C   UNL     1       3.682   3.573  17.896  0.00  0.00    +0.000 A 
ATOM     11  O   UNL     1       3.442   2.370  17.913  0.00  0.00    +0.000 OA
ATOM     12  N   UNL     1       3.375   4.432  18.972  0.00  0.00    +0.000 N 
ATOM     13  C   UNL     1       3.230   5.854  18.775  0.00  0.00    +0.000 A 
ATOM     14  C   UNL     1       2.423   6.623  19.624  0.00  0.00    +0.000 A 
ATOM     15  H   UNL     1       5.781   6.703  15.427  0.00  0.00    +0.000 HD
ENDROOT
BRANCH   1  23
ATOM     16  C   UNL     1       0.058   9.955  18.256  0.00  0.00    +0.000 C 
ATOM     17  C   UNL     1       0.238   9.652  19.723  0.00  0.00    +0.000 A 
ATOM     18  C   UNL     1      -0.559  10.367  20.631  0.00  0.00    +0.000 A 
ATOM     19  C   UNL     1      -0.439  10.098  21.982  0.00  0.00    +0.000 A 
ATOM     20 CL   UNL     1      -1.388  10.951  23.131  0.00  0.00    +0.000 Cl
ATOM     21  N   UNL     1       0.407   9.207  22.504  0.00  0.00    +0.000 NA
ATOM     22  C   UNL     1       1.190   8.541  21.618  0.00  0.00    +0.000 A 
ATOM     23  C   UNL     1       1.180   8.716  20.227  0.00  0.00    +0.000 A 
ENDBRANCH   1  23
BRANCH  12  24
ATOM     24  C   UNL     1       3.091   3.809  20.272  0.00  0.00    +0.000 C 
BRANCH  24  25
ATOM     25  C   UNL     1       1.668   3.244  20.461  0.00  0.00    +0.000 C 
ATOM     26  F   UNL     1       1.576   1.915  20.246  0.00  0.00    +0.000 F 
ATOM     27  F   UNL     1       1.263   3.449  21.742  0.00  0.00    +0.000 F 
ATOM     28  F   UNL     1       0.777   3.873  19.664  0.00  0.00    +0.000 F 
ENDBRANCH  24  25
ENDBRANCH  12  24
TORSDOF 3
ENDMDL
MODEL 2
REMARK VINA RESULT:      -8.6      1.464      1.973
REMARK  Name = 
REMARK  4 active torsions:
REMARK  status: ('A' for Active; 'I' for Inactive)
REMARK    1  A    between atoms: C_1  and  C_2
REMARK    2  A    between atoms: C_8  and  C_9
REMARK    3  A    between atoms: N_20  and  C_21
REMARK    4  A    between atoms: C_21  and  C_22
REMARK                            x       y       z     vdW  Elec       q    Type
REMARK                         _______ _______ _______ _____ _____    ______ ____
ROOT
ATOM      1  C   UNL     1       2.114   8.115  18.615  0.00  0.00    +0.000 A 
ATOM      2  C   UNL     1       3.250   8.470  17.863  0.00  0.00    +0.000 A 
ATOM      3  C   UNL     1       4.115   7.499  17.333  0.00  0.00    +0.000 A 
ATOM      4  C   UNL     1       3.854   6.147  17.552  0.00  0.00    +0.000 A 
ATOM      5  C   UNL     1       4.589   5.072  16.919  0.00  0.00    +0.000 A 
ATOM      6  N   UNL     1       5.818   5.031  16.339  0.00  0.00    +0.000 N 
ATOM      7  N   UNL     1       6.084   3.845  15.754  0.00  0.00    +0.000 NA
ATOM      8  C   UNL     1       5.022   3.088  16.064  0.00  0.00    +0.000 A 
ATOM      9  C   UNL     1       4.099   3.788  16.849  0.00  0.00    +0.000 A 
ATOM     10  C   UNL     1       2.886   3.399  17.529  0.00  0.00    +0.000 A 
ATOM     11  O   UNL     1       2.355   2.306  17.366  0.00  0.00    +0.000 OA
ATOM     12  N   UNL     1       2.411   4.353  18.454  0.00  0.00    +0.000 N 
ATOM     13  C   UNL     1       2.734   5.753  18.316  0.00  0.00    +0.000 A 
ATOM     14  C   UNL     1       1.887   6.744  18.830  0.00  0.00    +0.000 A 
ATOM     15  H   UNL     1       6.532   5.750  16.313  0.00  0.00    +0.000 HD
ENDROOT
BRANCH   1  23
ATOM     16  C   UNL     1       1.321   8.645  21.568  0.00  0.00    +0.000 C 
ATOM     17  C   UNL     1       0.697   9.335  20.381  0.00  0.00    +0.000 A 
ATOM     18  C   UNL     1      -0.364  10.220  20.635  0.00  0.00    +0.000 A 
ATOM     19  C   UNL     1      -0.945  10.889  19.574  0.00  0.00    +0.000 A 
ATOM     20 CL   UNL     1      -2.248  11.976  19.833  0.00  0.00    +0.000 Cl
ATOM     21  N   UNL     1      -0.583  10.743  18.297  0.00  0.00    +0.000 NA
ATOM     22  C   UNL     1       0.426   9.866  18.062  0.00  0.00    +0.000 A 
ATOM     23  C   UNL     1       1.100   9.116  19.037  0.00  0.00    +0.000 A 
ENDBRANCH   1  23
BRANCH  12  24
ATOM     24  C   UNL     1       1.482   3.883  19.490  0.00  0.00    +0.000 C 
BRANCH  24  25
ATOM     25  C   UNL     1       2.081   3.659  20.893  0.00  0.00    +0.000 C 
ATOM     26  F   UNL     1       2.335   4.800  21.566  0.00  0.00    +0.000 F 
ATOM     27  F   UNL     1       1.203   2.957  21.657  0.00  0.00    +0.000 F 
ATOM     28  F   UNL     1       3.217   2.930  20.834  0.00  0.00    +0.000 F 
ENDBRANCH  24  25
ENDBRANCH  12  24
TORSDOF 3
ENDMDL
MODEL 3
REMARK VINA RESULT:      -8.4      1.287      1.772
REMARK  Name = 
REMARK  4 active torsions:
REMARK  status: ('A' for Active; 'I' for Inactive)
REMARK    1  A    between atoms: C_1  and  C_2
REMARK    2  A    between atoms: C_8  and  C_9
REMARK    3  A    between atoms: N_20  and  C_21
REMARK    4  A    between atoms: C_21  and  C_22
REMARK                            x       y       z     vdW  Elec       q    Type
REMARK                         _______ _______ _______ _____ _____    ______ ____
ROOT
ATOM      1  C   UNL     1       2.381   8.119  18.537  0.00  0.00    +0.000 A 
ATOM      2  C   UNL     1       3.256   8.491  17.500  0.00  0.00    +0.000 A 
ATOM      3  C   UNL     1       4.153   7.575  16.929  0.00  0.00    +0.000 A 
ATOM      4  C   UNL     1       4.189   6.261  17.393  0.00  0.00    +0.000 A 
ATOM      5  C   UNL     1       4.959   5.206  16.768  0.00  0.00    +0.000 A 
ATOM      6  N   UNL     1       6.030   5.238  15.931  0.00  0.00    +0.000 N 
ATOM      7  N   UNL     1       6.378   4.016  15.476  0.00  0.00    +0.000 NA
ATOM      8  C   UNL     1       5.555   3.184  16.129  0.00  0.00    +0.000 A 
ATOM      9  C   UNL     1       4.703   3.874  16.998  0.00  0.00    +0.000 A 
ATOM     10  C   UNL     1       3.745   3.443  17.988  0.00  0.00    +0.000 A 
ATOM     11  O   UNL     1       3.395   2.275  18.111  0.00  0.00    +0.000 OA
ATOM     12  N   UNL     1       3.307   4.470  18.852  0.00  0.00    +0.000 N 
ATOM     13  C   UNL     1       3.339   5.854  18.444  0.00  0.00    +0.000 A 
ATOM     14  C   UNL     1       2.451   6.790  18.993  0.00  0.00    +0.000 A 
ATOM     15  H   UNL     1       6.583   6.035  15.637  0.00  0.00    +0.000 HD
ENDROOT
BRANCH   1  23
ATOM     16  C   UNL     1       1.486   8.283  21.505  0.00  0.00    +0.000 C 
ATOM     17  C   UNL     1       0.864   9.075  20.382  0.00  0.00    +0.000 A 
ATOM     18  C   UNL     1      -0.241   9.881  20.699  0.00  0.00    +0.000 A 
ATOM     19  C   UNL     1      -0.822  10.641  19.700  0.00  0.00    +0.000 A 
ATOM     20 CL   UNL     1      -2.178  11.638  20.037  0.00  0.00    +0.000 Cl
ATOM     21  N   UNL     1      -0.420  10.653  18.427  0.00  0.00    +0.000 NA
ATOM     22  C   UNL     1       0.632   9.849  18.128  0.00  0.00    +0.000 A 
ATOM     23  C   UNL     1       1.312   9.023  19.035  0.00  0.00    +0.000 A 
ENDBRANCH   1  23
BRANCH  12  24
ATOM     24  C   UNL     1       2.708   4.065  20.131  0.00  0.00    +0.000 C 
BRANCH  24  25
ATOM     25  C   UNL     1       1.186   3.817  20.124  0.00  0.00    +0.000 C 
ATOM     26  F   UNL     1       0.676   3.594  18.894  0.00  0.00    +0.000 F 
ATOM     27  F   UNL     1       0.901   2.710  20.859  0.00  0.00    +0.000 F 
ATOM     28  F   UNL     1       0.516   4.845  20.689  0.00  0.00    +0.000 F 
ENDBRANCH  24  25
ENDBRANCH  12  24
TORSDOF 3
ENDMDL
MODEL 4
REMARK VINA RESULT:      -8.3      1.221      1.311
REMARK  Name = 
REMARK  4 active torsions:
REMARK  status: ('A' for Active; 'I' for Inactive)
REMARK    1  A    between atoms: C_1  and  C_2
REMARK    2  A    between atoms: C_8  and  C_9
REMARK    3  A    between atoms: N_20  and  C_21
REMARK    4  A    between atoms: C_21  and  C_22
REMARK                            x       y       z     vdW  Elec       q    Type
REMARK                         _______ _______ _______ _____ _____    ______ ____
ROOT
ATOM      1  C   UNL     1       1.710   8.138  19.803  0.00  0.00    +0.000 A 
ATOM      2  C   UNL     1       2.698   8.535  18.884  0.00  0.00    +0.000 A 
ATOM      3  C   UNL     1       3.414   7.599  18.121  0.00  0.00    +0.000 A 
ATOM      4  C   UNL     1       3.149   6.239  18.270  0.00  0.00    +0.000 A 
ATOM      5  C   UNL     1       3.714   5.210  17.422  0.00  0.00    +0.000 A 
ATOM      6  N   UNL     1       4.811   5.197  16.620  0.00  0.00    +0.000 N 
ATOM      7  N   UNL     1       4.921   4.063  15.897  0.00  0.00    +0.000 NA
ATOM      8  C   UNL     1       3.909   3.303  16.337  0.00  0.00    +0.000 A 
ATOM      9  C   UNL     1       3.174   3.948  17.337  0.00  0.00    +0.000 A 
ATOM     10  C   UNL     1       2.094   3.523  18.198  0.00  0.00    +0.000 A 
ATOM     11  O   UNL     1       1.503   2.460  18.047  0.00  0.00    +0.000 OA
ATOM     12  N   UNL     1       1.835   4.400  19.273  0.00  0.00    +0.000 N 
ATOM     13  C   UNL     1       2.177   5.800  19.195  0.00  0.00    +0.000 A 
ATOM     14  C   UNL     1       1.477   6.758  19.941  0.00  0.00    +0.000 A 
ATOM     15  H   UNL     1       5.534   5.901  16.520  0.00  0.00    +0.000 HD
ENDROOT
BRANCH   1  23
ATOM     16  C   UNL     1      -0.299   9.998  18.340  0.00  0.00    +0.000 C 
ATOM     17  C   UNL     1      -0.062  10.003  19.830  0.00  0.00    +0.000 A 
ATOM     18  C   UNL     1      -0.745  10.968  20.587  0.00  0.00    +0.000 A 
ATOM     19  C   UNL     1      -0.571  10.988  21.959  0.00  0.00    +0.000 A 
ATOM     20 CL   UNL     1      -1.381  12.151  22.926  0.00  0.00    +0.000 Cl
ATOM     21  N   UNL     1       0.228  10.156  22.633  0.00  0.00    +0.000 NA
ATOM     22  C   UNL     1       0.902   9.246  21.886  0.00  0.00    +0.000 A 
ATOM     23  C   UNL     1       0.828   9.116  20.492  0.00  0.00    +0.000 A 
ENDBRANCH   1  23
BRANCH  12  24
ATOM     24  C   UNL     1       1.097   3.858  20.422  0.00  0.00    +0.000 C 
BRANCH  24  25
ATOM     25  C   UNL     1       1.944   3.172  21.514  0.00  0.00    +0.000 C 
ATOM     26  F   UNL     1       2.958   2.425  21.029  0.00  0.00    +0.000 F 
ATOM     27  F   UNL     1       2.516   4.116  22.307  0.00  0.00    +0.000 F 
ATOM     28  F   UNL     1       1.181   2.397  22.316  0.00  0.00    +0.000 F 
ENDBRANCH  24  25
ENDBRANCH  12  24
TORSDOF 3
ENDMDL
MODEL 5
REMARK VINA RESULT:      -8.2      4.247      6.558
REMARK  Name = 
REMARK  4 active torsions:
REMARK  status: ('A' for Active; 'I' for Inactive)
REMARK    1  A    between atoms: C_1  and  C_2
REMARK    2  A    between atoms: C_8  and  C_9
REMARK    3  A    between atoms: N_20  and  C_21
REMARK    4  A    between atoms: C_21  and  C_22
REMARK                            x       y       z     vdW  Elec       q    Type
REMARK                         _______ _______ _______ _____ _____    ______ ____
ROOT
ATOM      1  C   UNL     1      -1.104  11.287  22.342  0.00  0.00    +0.000 A 
ATOM      2  C   UNL     1      -0.617  10.230  23.133  0.00  0.00    +0.000 A 
ATOM      3  C   UNL     1       0.101   9.162  22.575  0.00  0.00    +0.000 A 
ATOM      4  C   UNL     1       0.344   9.135  21.202  0.00  0.00    +0.000 A 
ATOM      5  C   UNL     1       1.206   8.167  20.555  0.00  0.00    +0.000 A 
ATOM      6  N   UNL     1       1.645   6.941  20.943  0.00  0.00    +0.000 N 
ATOM      7  N   UNL     1       2.543   6.409  20.088  0.00  0.00    +0.000 NA
ATOM      8  C   UNL     1       2.592   7.293  19.082  0.00  0.00    +0.000 A 
ATOM      9  C   UNL     1       1.722   8.369  19.296  0.00  0.00    +0.000 A 
ATOM     10  C   UNL     1       1.322   9.491  18.481  0.00  0.00    +0.000 A 
ATOM     11  O   UNL     1       1.871   9.772  17.421  0.00  0.00    +0.000 OA
ATOM     12  N   UNL     1       0.196  10.188  18.970  0.00  0.00    +0.000 N 
ATOM     13  C   UNL     1      -0.143  10.167  20.372  0.00  0.00    +0.000 A 
ATOM     14  C   UNL     1      -0.855  11.223  20.959  0.00  0.00    +0.000 A 
ATOM     15  H   UNL     1       1.374   6.396  21.754  0.00  0.00    +0.000 HD
ENDROOT
BRANCH   1  23
ATOM     16  C   UNL     1       0.180  14.110  22.226  0.00  0.00    +0.000 C 
ATOM     17  C   UNL     1      -1.117  13.792  22.926  0.00  0.00    +0.000 A 
ATOM     18  C   UNL     1      -1.739  14.834  23.633  0.00  0.00    +0.000 A 
ATOM     19  C   UNL     1      -2.943  14.586  24.268  0.00  0.00    +0.000 A 
ATOM     20 CL   UNL     1      -3.739  15.825  25.148  0.00  0.00    +0.000 Cl
ATOM     21  N   UNL     1      -3.563  13.403  24.278  0.00  0.00    +0.000 NA
ATOM     22  C   UNL     1      -2.938  12.398  23.614  0.00  0.00    +0.000 A 
ATOM     23  C   UNL     1      -1.716  12.504  22.934  0.00  0.00    +0.000 A 
ENDBRANCH   1  23
BRANCH  12  24
ATOM     24  C   UNL     1      -0.542  11.028  18.018  0.00  0.00    +0.000 C 
BRANCH  24  25
ATOM     25  C   UNL     1      -1.816  10.407  17.407  0.00  0.00    +0.000 C 
ATOM     26  F   UNL     1      -2.786  10.155  18.310  0.00  0.00    +0.000 F 
ATOM     27  F   UNL     1      -2.354  11.269  16.504  0.00  0.00    +0.000 F 
ATOM     28  F   UNL     1      -1.538   9.266  16.741  0.00  0.00    +0.000 F 
ENDBRANCH  24  25
ENDBRANCH  12  24
TORSDOF 3
ENDMDL
MODEL 6
REMARK VINA RESULT:      -7.9      4.747      8.170
REMARK  Name = 
REMARK  4 active torsions:
REMARK  status: ('A' for Active; 'I' for Inactive)
REMARK    1  A    between atoms: C_1  and  C_2
REMARK    2  A    between atoms: C_8  and  C_9
REMARK    3  A    between atoms: N_20  and  C_21
REMARK    4  A    between atoms: C_21  and  C_22
REMARK                            x       y       z     vdW  Elec       q    Type
REMARK                         _______ _______ _______ _____ _____    ______ ____
ROOT
ATOM      1  C   UNL     1       2.565   7.079  19.086  0.00  0.00    +0.000 A 
ATOM      2  C   UNL     1       2.159   6.611  20.350  0.00  0.00    +0.000 A 
ATOM      3  C   UNL     1       1.406   7.411  21.224  0.00  0.00    +0.000 A 
ATOM      4  C   UNL     1       1.047   8.703  20.843  0.00  0.00    +0.000 A 
ATOM      5  C   UNL     1       0.143   9.545  21.599  0.00  0.00    +0.000 A 
ATOM      6  N   UNL     1      -0.249   9.516  22.900  0.00  0.00    +0.000 N 
ATOM      7  N   UNL     1      -1.211  10.420  23.180  0.00  0.00    +0.000 NA
ATOM      8  C   UNL     1      -1.354  11.101  22.035  0.00  0.00    +0.000 A 
ATOM      9  C   UNL     1      -0.481  10.638  21.044  0.00  0.00    +0.000 A 
ATOM     10  C   UNL     1      -0.163  11.102  19.714  0.00  0.00    +0.000 A 
ATOM     11  O   UNL     1      -0.803  11.979  19.146  0.00  0.00    +0.000 OA
ATOM     12  N   UNL     1       0.993  10.513  19.159  0.00  0.00    +0.000 N 
ATOM     13  C   UNL     1       1.451   9.214  19.591  0.00  0.00    +0.000 A 
ATOM     14  C   UNL     1       2.200   8.392  18.738  0.00  0.00    +0.000 A 
ATOM     15  H   UNL     1       0.096   8.934  23.655  0.00  0.00    +0.000 HD
ENDROOT
BRANCH   1  23
ATOM     16  C   UNL     1       1.556   4.232  18.373  0.00  0.00    +0.000 C 
ATOM     17  C   UNL     1       2.787   4.872  17.783  0.00  0.00    +0.000 A 
ATOM     18  C   UNL     1       3.562   4.093  16.909  0.00  0.00    +0.000 A 
ATOM     19  C   UNL     1       4.685   4.655  16.329  0.00  0.00    +0.000 A 
ATOM     20 CL   UNL     1       5.667   3.740  15.259  0.00  0.00    +0.000 Cl
ATOM     21  N   UNL     1       5.110   5.901  16.554  0.00  0.00    +0.000 NA
ATOM     22  C   UNL     1       4.367   6.635  17.421  0.00  0.00    +0.000 A 
ATOM     23  C   UNL     1       3.213   6.193  18.085  0.00  0.00    +0.000 A 
ENDBRANCH   1  23
BRANCH  12  24
ATOM     24  C   UNL     1       1.639  11.218  18.044  0.00  0.00    +0.000 C 
BRANCH  24  25
ATOM     25  C   UNL     1       2.355  12.539  18.396  0.00  0.00    +0.000 C 
ATOM     26  F   UNL     1       3.566  12.674  17.817  0.00  0.00    +0.000 F 
ATOM     27  F   UNL     1       1.609  13.590  17.965  0.00  0.00    +0.000 F 
ATOM     28  F   UNL     1       2.496  12.682  19.732  0.00  0.00    +0.000 F 
ENDBRANCH  24  25
ENDBRANCH  12  24
TORSDOF 3
ENDMDL
MODEL 7
REMARK VINA RESULT:      -7.8      4.621      8.429
REMARK  Name = 
REMARK  4 active torsions:
REMARK  status: ('A' for Active; 'I' for Inactive)
REMARK    1  A    between atoms: C_1  and  C_2
REMARK    2  A    between atoms: C_8  and  C_9
REMARK    3  A    between atoms: N_20  and  C_21
REMARK    4  A    between atoms: C_21  and  C_22
REMARK                            x       y       z     vdW  Elec       q    Type
REMARK                         _______ _______ _______ _____ _____    ______ ____
ROOT
ATOM      1  C   UNL     1       1.064   8.810  20.621  0.00  0.00    +0.000 A 
ATOM      2  C   UNL     1       1.097   9.073  22.003  0.00  0.00    +0.000 A 
ATOM      3  C   UNL     1       0.341  10.109  22.573  0.00  0.00    +0.000 A 
ATOM      4  C   UNL     1      -0.465  10.905  21.762  0.00  0.00    +0.000 A 
ATOM      5  C   UNL     1      -1.399  11.889  22.269  0.00  0.00    +0.000 A 
ATOM      6  N   UNL     1      -1.477  12.534  23.462  0.00  0.00    +0.000 N 
ATOM      7  N   UNL     1      -2.585  13.295  23.577  0.00  0.00    +0.000 NA
ATOM      8  C   UNL     1      -3.169  13.196  22.375  0.00  0.00    +0.000 A 
ATOM      9  C   UNL     1      -2.428  12.388  21.505  0.00  0.00    +0.000 A 
ATOM     10  C   UNL     1      -2.557  12.072  20.102  0.00  0.00    +0.000 A 
ATOM     11  O   UNL     1      -3.538  12.385  19.437  0.00  0.00    +0.000 OA
ATOM     12  N   UNL     1      -1.422  11.442  19.546  0.00  0.00    +0.000 N 
ATOM     13  C   UNL     1      -0.511  10.683  20.368  0.00  0.00    +0.000 A 
ATOM     14  C   UNL     1       0.252   9.640  19.827  0.00  0.00    +0.000 A 
ATOM     15  H   UNL     1      -0.820  12.525  24.234  0.00  0.00    +0.000 HD
ENDROOT
BRANCH   1  23
ATOM     16  C   UNL     1       2.436   8.791  17.836  0.00  0.00    +0.000 C 
ATOM     17  C   UNL     1       2.313   7.585  18.734  0.00  0.00    +0.000 A 
ATOM     18  C   UNL     1       2.787   6.361  18.236  0.00  0.00    +0.000 A 
ATOM     19  C   UNL     1       2.713   5.238  19.040  0.00  0.00    +0.000 A 
ATOM     20 CL   UNL     1       3.275   3.718  18.475  0.00  0.00    +0.000 Cl
ATOM     21  N   UNL     1       2.197   5.222  20.272  0.00  0.00    +0.000 NA
ATOM     22  C   UNL     1       1.718   6.406  20.731  0.00  0.00    +0.000 A 
ATOM     23  C   UNL     1       1.721   7.618  20.025  0.00  0.00    +0.000 A 
ENDBRANCH   1  23
BRANCH  12  24
ATOM     24  C   UNL     1      -1.273  11.491  18.085  0.00  0.00    +0.000 C 
BRANCH  24  25
ATOM     25  C   UNL     1      -1.899  10.322  17.297  0.00  0.00    +0.000 C 
ATOM     26  F   UNL     1      -2.499  10.699  16.148  0.00  0.00    +0.000 F 
ATOM     27  F   UNL     1      -0.928   9.439  16.944  0.00  0.00    +0.000 F 
ATOM     28  F   UNL     1      -2.792   9.642  18.048  0.00  0.00    +0.000 F 
ENDBRANCH  24  25
ENDBRANCH  12  24
TORSDOF 3
ENDMDL
MODEL 8
REMARK VINA RESULT:      -7.8      4.899      8.821
REMARK  Name = 
REMARK  4 active torsions:
REMARK  status: ('A' for Active; 'I' for Inactive)
REMARK    1  A    between atoms: C_1  and  C_2
REMARK    2  A    between atoms: C_8  and  C_9
REMARK    3  A    between atoms: N_20  and  C_21
REMARK    4  A    between atoms: C_21  and  C_22
REMARK                            x       y       z     vdW  Elec       q    Type
REMARK                         _______ _______ _______ _____ _____    ______ ____
ROOT
ATOM      1  C   UNL     1       0.395   9.808  20.422  0.00  0.00    +0.000 A 
ATOM      2  C   UNL     1       0.421  10.340  21.725  0.00  0.00    +0.000 A 
ATOM      3  C   UNL     1      -0.483  11.333  22.133  0.00  0.00    +0.000 A 
ATOM      4  C   UNL     1      -1.435  11.814  21.235  0.00  0.00    +0.000 A 
ATOM      5  C   UNL     1      -2.508  12.715  21.602  0.00  0.00    +0.000 A 
ATOM      6  N   UNL     1      -2.661  13.562  22.654  0.00  0.00    +0.000 N 
ATOM      7  N   UNL     1      -3.878  14.142  22.688  0.00  0.00    +0.000 NA
ATOM      8  C   UNL     1      -4.469  13.716  21.564  0.00  0.00    +0.000 A 
ATOM      9  C   UNL     1      -3.627  12.882  20.820  0.00  0.00    +0.000 A 
ATOM     10  C   UNL     1      -3.739  12.279  19.513  0.00  0.00    +0.000 A 
ATOM     11  O   UNL     1      -4.777  12.294  18.861  0.00  0.00    +0.000 OA
ATOM     12  N   UNL     1      -2.530  11.743  19.019  0.00  0.00    +0.000 N 
ATOM     13  C   UNL     1      -1.481  11.317  19.914  0.00  0.00    +0.000 A 
ATOM     14  C   UNL     1      -0.567  10.324  19.536  0.00  0.00    +0.000 A 
ATOM     15  H   UNL     1      -1.991  13.811  23.372  0.00  0.00    +0.000 HD
ENDROOT
BRANCH   1  23
ATOM     16  C   UNL     1       2.028   9.657  17.787  0.00  0.00    +0.000 C 
ATOM     17  C   UNL     1       1.943   8.545  18.802  0.00  0.00    +0.000 A 
ATOM     18  C   UNL     1       2.589   7.338  18.490  0.00  0.00    +0.000 A 
ATOM     19  C   UNL     1       2.553   6.303  19.407  0.00  0.00    +0.000 A 
ATOM     20 CL   UNL     1       3.323   4.807  19.069  0.00  0.00    +0.000 Cl
ATOM     21  N   UNL     1       1.923   6.356  20.584  0.00  0.00    +0.000 NA
ATOM     22  C   UNL     1       1.281   7.519  20.862  0.00  0.00    +0.000 A 
ATOM     23  C   UNL     1       1.228   8.643  20.025  0.00  0.00    +0.000 A 
ENDBRANCH   1  23
BRANCH  12  24
ATOM     24  C   UNL     1      -2.431  11.526  17.570  0.00  0.00    +0.000 C 
BRANCH  24  25
ATOM     25  C   UNL     1      -2.899  10.150  17.053  0.00  0.00    +0.000 C 
ATOM     26  F   UNL     1      -3.447   9.368  18.006  0.00  0.00    +0.000 F 
ATOM     27  F   UNL     1      -3.859  10.321  16.105  0.00  0.00    +0.000 F 
ATOM     28  F   UNL     1      -1.888   9.474  16.467  0.00  0.00    +0.000 F 
ENDBRANCH  24  25
ENDBRANCH  12  24
TORSDOF 3
ENDMDL
MODEL 9
REMARK VINA RESULT:      -7.8      2.792      4.000
REMARK  Name = 
REMARK  4 active torsions:
REMARK  status: ('A' for Active; 'I' for Inactive)
REMARK    1  A    between atoms: C_1  and  C_2
REMARK    2  A    between atoms: C_8  and  C_9
REMARK    3  A    between atoms: N_20  and  C_21
REMARK    4  A    between atoms: C_21  and  C_22
REMARK                            x       y       z     vdW  Elec       q    Type
REMARK                         _______ _______ _______ _____ _____    ______ ____
ROOT
ATOM      1  C   UNL     1       1.644   7.520  20.114  0.00  0.00    +0.000 A 
ATOM      2  C   UNL     1       0.997   6.445  20.750  0.00  0.00    +0.000 A 
ATOM      3  C   UNL     1       1.485   5.132  20.657  0.00  0.00    +0.000 A 
ATOM      4  C   UNL     1       2.639   4.874  19.918  0.00  0.00    +0.000 A 
ATOM      5  C   UNL     1       3.310   3.591  19.892  0.00  0.00    +0.000 A 
ATOM      6  N   UNL     1       2.880   2.336  20.188  0.00  0.00    +0.000 N 
ATOM      7  N   UNL     1       3.868   1.418  20.148  0.00  0.00    +0.000 NA
ATOM      8  C   UNL     1       4.931   2.110  19.716  0.00  0.00    +0.000 A 
ATOM      9  C   UNL     1       4.613   3.451  19.475  0.00  0.00    +0.000 A 
ATOM     10  C   UNL     1       5.350   4.552  18.900  0.00  0.00    +0.000 A 
ATOM     11  O   UNL     1       6.550   4.493  18.656  0.00  0.00    +0.000 OA
ATOM     12  N   UNL     1       4.555   5.671  18.573  0.00  0.00    +0.000 N 
ATOM     13  C   UNL     1       3.306   5.924  19.251  0.00  0.00    +0.000 A 
ATOM     14  C   UNL     1       2.797   7.225  19.365  0.00  0.00    +0.000 A 
ATOM     15  H   UNL     1       1.941   2.021  20.408  0.00  0.00    +0.000 HD
ENDROOT
BRANCH   1  23
ATOM     16  C   UNL     1       1.033   9.538  17.836  0.00  0.00    +0.000 C 
ATOM     17  C   UNL     1       1.002   9.877  19.305  0.00  0.00    +0.000 A 
ATOM     18  C   UNL     1       0.753  11.214  19.652  0.00  0.00    +0.000 A 
ATOM     19  C   UNL     1       0.693  11.558  20.991  0.00  0.00    +0.000 A 
ATOM     20 CL   UNL     1       0.396  13.180  21.464  0.00  0.00    +0.000 Cl
ATOM     21  N   UNL     1       0.878  10.703  22.000  0.00  0.00    +0.000 NA
ATOM     22  C   UNL     1       1.144   9.419  21.651  0.00  0.00    +0.000 A 
ATOM     23  C   UNL     1       1.241   8.933  20.339  0.00  0.00    +0.000 A 
ENDBRANCH   1  23
BRANCH  12  24
ATOM     24  C   UNL     1       5.104   6.627  17.602  0.00  0.00    +0.000 C 
BRANCH  24  25
ATOM     25  C   UNL     1       5.189   6.141  16.140  0.00  0.00    +0.000 C 
ATOM     26  F   UNL     1       4.786   7.059  15.236  0.00  0.00    +0.000 F 
ATOM     27  F   UNL     1       6.479   5.847  15.832  0.00  0.00    +0.000 F 
ATOM     28  F   UNL     1       4.475   5.009  15.954  0.00  0.00    +0.000 F 
ENDBRANCH  24  25
ENDBRANCH  12  24
TORSDOF 3
ENDMDL
