MODEL 1
REMARK VINA RESULT:      -8.7      0.000      0.000
REMARK  Name = 
REMARK  8 active torsions:
REMARK  status: ('A' for Active; 'I' for Inactive)
REMARK    1  A    between atoms: C_1  and  N_2
REMARK    2  A    between atoms: N_2  and  C_23
REMARK    3  A    between atoms: C_3  and  C_5
REMARK    4  A    between atoms: C_5  and  C_6
REMARK    5  A    between atoms: C_6  and  C_7
REMARK    6  A    between atoms: C_7  and  O_8
REMARK    7  A    between atoms: O_8  and  C_9
REMARK    8  A    between atoms: C_16  and  O_17
REMARK                            x       y       z     vdW  Elec       q    Type
REMARK                         _______ _______ _______ _____ _____    ______ ____
ROOT
ATOM      1  C   UNL     1       7.277   7.127  17.688  0.00  0.00    +0.000 A 
ATOM      2  C   UNL     1       7.794   6.400  18.762  0.00  0.00    +0.000 A 
ATOM      3  C   UNL     1       7.286   5.161  19.125  0.00  0.00    +0.000 A 
ATOM      4  C   UNL     1       6.133   4.698  18.516  0.00  0.00    +0.000 A 
ATOM      5  N   UNL     1       5.544   3.507  18.961  0.00  0.00    +0.000 N 
ATOM      6  C   UNL     1       4.284   3.222  18.539  0.00  0.00    +0.000 A 
ATOM      7  N   UNL     1       3.462   2.312  18.972  0.00  0.00    +0.000 NA
ATOM      8  C   UNL     1       2.361   2.528  18.181  0.00  0.00    +0.000 A 
ATOM      9  N   UNL     1       2.371   3.458  17.283  0.00  0.00    +0.000 NA
ATOM     10  C   UNL     1       3.618   3.987  17.458  0.00  0.00    +0.000 A 
ATOM     11  C   UNL     1       4.227   5.037  16.918  0.00  0.00    +0.000 A 
ATOM     12  C   UNL     1       5.537   5.457  17.469  0.00  0.00    +0.000 A 
ATOM     13  C   UNL     1       6.147   6.640  17.029  0.00  0.00    +0.000 A 
ATOM     14  H   UNL     1       5.909   3.037  19.777  0.00  0.00    +0.000 HD
ENDROOT
BRANCH   8  15
ATOM     15  O   UNL     1       1.337   1.723  18.463  0.00  0.00    +0.000 OA
ATOM     16  H   UNL     1       0.534   2.259  18.384  0.00  0.00    +0.000 HD
ENDBRANCH   8  15
BRANCH   1  17
ATOM     17  O   UNL     1       7.832   8.273  17.182  0.00  0.00    +0.000 OA
BRANCH  17  18
ATOM     18  C   UNL     1       7.906   9.425  18.031  0.00  0.00    +0.000 C 
BRANCH  18  19
ATOM     19  C   UNL     1       9.276  10.126  17.998  0.00  0.00    +0.000 C 
BRANCH  19  20
ATOM     20  C   UNL     1       9.659  10.730  19.342  0.00  0.00    +0.000 C 
BRANCH  20  23
ATOM     21  C   UNL     1       8.882  13.494  18.818  0.00  0.00    +0.000 C 
ATOM     22  N   UNL     1      10.288  13.084  18.945  0.00  0.00    +0.000 N 
ATOM     23  C   UNL     1      10.714  11.801  19.322  0.00  0.00    +0.000 C 
ATOM     24  O   UNL     1      11.892  11.513  19.532  0.00  0.00    +0.000 OA
BRANCH  22  25
ATOM     25  C   UNL     1      11.311  14.149  18.960  0.00  0.00    +0.000 C 
ATOM     26  C   UNL     1      11.734  14.586  17.546  0.00  0.00    +0.000 C 
ATOM     27  C   UNL     1      11.141  15.897  17.033  0.00  0.00    +0.000 C 
ATOM     28  C   UNL     1      11.894  17.126  17.541  0.00  0.00    +0.000 C 
ATOM     29  C   UNL     1      11.650  17.496  19.001  0.00  0.00    +0.000 C 
ATOM     30  C   UNL     1      11.919  16.390  20.015  0.00  0.00    +0.000 C 
ATOM     31  C   UNL     1      10.899  15.261  19.934  0.00  0.00    +0.000 C 
ENDBRANCH  22  25
ENDBRANCH  20  23
ENDBRANCH  19  20
ENDBRANCH  18  19
ENDBRANCH  17  18
ENDBRANCH   1  17
TORSDOF 7
ENDMDL
MODEL 2
REMARK VINA RESULT:      -8.6      6.221      9.721
REMARK  Name = 
REMARK  8 active torsions:
REMARK  status: ('A' for Active; 'I' for Inactive)
REMARK    1  A    between atoms: C_1  and  N_2
REMARK    2  A    between atoms: N_2  and  C_23
REMARK    3  A    between atoms: C_3  and  C_5
REMARK    4  A    between atoms: C_5  and  C_6
REMARK    5  A    between atoms: C_6  and  C_7
REMARK    6  A    between atoms: C_7  and  O_8
REMARK    7  A    between atoms: O_8  and  C_9
REMARK    8  A    between atoms: C_16  and  O_17
REMARK                            x       y       z     vdW  Elec       q    Type
REMARK                         _______ _______ _______ _____ _____    ______ ____
ROOT
ATOM      1  C   UNL     1       2.109   6.591  19.893  0.00  0.00    +0.000 A 
ATOM      2  C   UNL     1       2.520   6.951  18.609  0.00  0.00    +0.000 A 
ATOM      3  C   UNL     1       2.369   8.242  18.123  0.00  0.00    +0.000 A 
ATOM      4  C   UNL     1       1.647   9.163  18.862  0.00  0.00    +0.000 A 
ATOM      5  N   UNL     1       1.384  10.430  18.325  0.00  0.00    +0.000 N 
ATOM      6  C   UNL     1       0.457  11.206  18.945  0.00  0.00    +0.000 A 
ATOM      7  N   UNL     1      -0.106  12.302  18.527  0.00  0.00    +0.000 NA
ATOM      8  C   UNL     1      -0.954  12.597  19.566  0.00  0.00    +0.000 A 
ATOM      9  N   UNL     1      -1.003  11.834  20.609  0.00  0.00    +0.000 NA
ATOM     10  C   UNL     1      -0.100  10.866  20.277  0.00  0.00    +0.000 A 
ATOM     11  C   UNL     1       0.254   9.732  20.871  0.00  0.00    +0.000 A 
ATOM     12  C   UNL     1       1.147   8.799  20.145  0.00  0.00    +0.000 A 
ATOM     13  C   UNL     1       1.430   7.531  20.671  0.00  0.00    +0.000 A 
ATOM     14  H   UNL     1       1.643  10.639  17.372  0.00  0.00    +0.000 HD
ENDROOT
BRANCH   8  15
ATOM     15  O   UNL     1      -1.692  13.687  19.357  0.00  0.00    +0.000 OA
ATOM     16  H   UNL     1      -1.507  13.977  18.452  0.00  0.00    +0.000 HD
ENDBRANCH   8  15
BRANCH   1  17
ATOM     17  O   UNL     1       2.374   5.385  20.487  0.00  0.00    +0.000 OA
BRANCH  17  18
ATOM     18  C   UNL     1       1.338   4.393  20.503  0.00  0.00    +0.000 C 
BRANCH  18  19
ATOM     19  C   UNL     1       1.849   2.975  20.809  0.00  0.00    +0.000 C 
BRANCH  19  20
ATOM     20  C   UNL     1       2.624   2.367  19.647  0.00  0.00    +0.000 C 
BRANCH  20  23
ATOM     21  C   UNL     1       3.274   4.018  17.330  0.00  0.00    +0.000 C 
ATOM     22  N   UNL     1       4.302   3.532  18.261  0.00  0.00    +0.000 N 
ATOM     23  C   UNL     1       4.036   2.847  19.456  0.00  0.00    +0.000 C 
ATOM     24  O   UNL     1       4.907   2.550  20.275  0.00  0.00    +0.000 OA
BRANCH  22  25
ATOM     25  C   UNL     1       5.678   4.039  18.084  0.00  0.00    +0.000 C 
ATOM     26  C   UNL     1       6.006   4.366  16.616  0.00  0.00    +0.000 C 
ATOM     27  C   UNL     1       5.981   5.843  16.226  0.00  0.00    +0.000 C 
ATOM     28  C   UNL     1       7.275   6.573  16.585  0.00  0.00    +0.000 C 
ATOM     29  C   UNL     1       7.471   6.886  18.065  0.00  0.00    +0.000 C 
ATOM     30  C   UNL     1       7.386   5.691  19.009  0.00  0.00    +0.000 C 
ATOM     31  C   UNL     1       5.974   5.132  19.120  0.00  0.00    +0.000 C 
ENDBRANCH  22  25
ENDBRANCH  20  23
ENDBRANCH  19  20
ENDBRANCH  18  19
ENDBRANCH  17  18
ENDBRANCH   1  17
TORSDOF 7
ENDMDL
MODEL 3
REMARK VINA RESULT:      -8.5      6.875     10.345
REMARK  Name = 
REMARK  8 active torsions:
REMARK  status: ('A' for Active; 'I' for Inactive)
REMARK    1  A    between atoms: C_1  and  N_2
REMARK    2  A    between atoms: N_2  and  C_23
REMARK    3  A    between atoms: C_3  and  C_5
REMARK    4  A    between atoms: C_5  and  C_6
REMARK    5  A    between atoms: C_6  and  C_7
REMARK    6  A    between atoms: C_7  and  O_8
REMARK    7  A    between atoms: O_8  and  C_9
REMARK    8  A    between atoms: C_16  and  O_17
REMARK                            x       y       z     vdW  Elec       q    Type
REMARK                         _______ _______ _______ _____ _____    ______ ____
ROOT
ATOM      1  C   UNL     1       1.949   7.066  19.870  0.00  0.00    +0.000 A 
ATOM      2  C   UNL     1       2.236   7.359  18.536  0.00  0.00    +0.000 A 
ATOM      3  C   UNL     1       2.086   8.636  18.014  0.00  0.00    +0.000 A 
ATOM      4  C   UNL     1       1.482   9.615  18.784  0.00  0.00    +0.000 A 
ATOM      5  N   UNL     1       1.214  10.871  18.224  0.00  0.00    +0.000 N 
ATOM      6  C   UNL     1       0.388  11.709  18.903  0.00  0.00    +0.000 A 
ATOM      7  N   UNL     1      -0.172  12.811  18.499  0.00  0.00    +0.000 NA
ATOM      8  C   UNL     1      -0.895  13.182  19.606  0.00  0.00    +0.000 A 
ATOM      9  N   UNL     1      -0.865  12.462  20.680  0.00  0.00    +0.000 NA
ATOM     10  C   UNL     1      -0.039  11.444  20.298  0.00  0.00    +0.000 A 
ATOM     11  C   UNL     1       0.331  10.319  20.900  0.00  0.00    +0.000 A 
ATOM     12  C   UNL     1       1.105   9.322  20.126  0.00  0.00    +0.000 A 
ATOM     13  C   UNL     1       1.392   8.063  20.673  0.00  0.00    +0.000 A 
ATOM     14  H   UNL     1       1.380  11.032  17.241  0.00  0.00    +0.000 HD
ENDROOT
BRANCH   8  15
ATOM     15  O   UNL     1      -1.608  14.294  19.429  0.00  0.00    +0.000 OA
ATOM     16  H   UNL     1      -1.746  14.677  20.308  0.00  0.00    +0.000 HD
ENDBRANCH   8  15
BRANCH   1  17
ATOM     17  O   UNL     1       2.227   5.873  20.484  0.00  0.00    +0.000 OA
BRANCH  17  18
ATOM     18  C   UNL     1       1.167   4.916  20.622  0.00  0.00    +0.000 C 
BRANCH  18  19
ATOM     19  C   UNL     1       1.659   3.460  20.697  0.00  0.00    +0.000 C 
BRANCH  19  20
ATOM     20  C   UNL     1       1.690   2.781  19.335  0.00  0.00    +0.000 C 
BRANCH  20  23
ATOM     21  C   UNL     1       4.583   3.144  19.201  0.00  0.00    +0.000 C 
ATOM     22  N   UNL     1       3.664   3.809  18.266  0.00  0.00    +0.000 N 
ATOM     23  C   UNL     1       2.282   3.572  18.201  0.00  0.00    +0.000 C 
ATOM     24  O   UNL     1       1.552   4.056  17.336  0.00  0.00    +0.000 OA
BRANCH  22  25
ATOM     25  C   UNL     1       4.259   4.553  17.137  0.00  0.00    +0.000 C 
ATOM     26  C   UNL     1       5.017   5.813  17.590  0.00  0.00    +0.000 C 
ATOM     27  C   UNL     1       6.541   5.712  17.633  0.00  0.00    +0.000 C 
ATOM     28  C   UNL     1       7.187   5.923  16.265  0.00  0.00    +0.000 C 
ATOM     29  C   UNL     1       7.060   4.761  15.284  0.00  0.00    +0.000 C 
ATOM     30  C   UNL     1       5.637   4.285  15.009  0.00  0.00    +0.000 C 
ATOM     31  C   UNL     1       5.010   3.589  16.209  0.00  0.00    +0.000 C 
ENDBRANCH  22  25
ENDBRANCH  20  23
ENDBRANCH  19  20
ENDBRANCH  18  19
ENDBRANCH  17  18
ENDBRANCH   1  17
TORSDOF 7
ENDMDL
MODEL 4
REMARK VINA RESULT:      -8.5      1.657      2.055
REMARK  Name = 
REMARK  8 active torsions:
REMARK  status: ('A' for Active; 'I' for Inactive)
REMARK    1  A    between atoms: C_1  and  N_2
REMARK    2  A    between atoms: N_2  and  C_23
REMARK    3  A    between atoms: C_3  and  C_5
REMARK    4  A    between atoms: C_5  and  C_6
REMARK    5  A    between atoms: C_6  and  C_7
REMARK    6  A    between atoms: C_7  and  O_8
REMARK    7  A    between atoms: O_8  and  C_9
REMARK    8  A    between atoms: C_16  and  O_17
REMARK                            x       y       z     vdW  Elec       q    Type
REMARK                         _______ _______ _______ _____ _____    ______ ____
ROOT
ATOM      1  C   UNL     1       6.805   6.162  16.795  0.00  0.00    +0.000 A 
ATOM      2  C   UNL     1       6.952   4.946  16.124  0.00  0.00    +0.000 A 
ATOM      3  C   UNL     1       5.906   4.043  16.000  0.00  0.00    +0.000 A 
ATOM      4  C   UNL     1       4.730   4.270  16.694  0.00  0.00    +0.000 A 
ATOM      5  N   UNL     1       3.716   3.304  16.674  0.00  0.00    +0.000 N 
ATOM      6  C   UNL     1       2.701   3.426  17.569  0.00  0.00    +0.000 A 
ATOM      7  N   UNL     1       1.781   2.563  17.886  0.00  0.00    +0.000 NA
ATOM      8  C   UNL     1       1.074   3.245  18.845  0.00  0.00    +0.000 A 
ATOM      9  N   UNL     1       1.415   4.446  19.182  0.00  0.00    +0.000 NA
ATOM     10  C   UNL     1       2.507   4.647  18.387  0.00  0.00    +0.000 A 
ATOM     11  C   UNL     1       3.384   5.642  18.309  0.00  0.00    +0.000 A 
ATOM     12  C   UNL     1       4.580   5.466  17.452  0.00  0.00    +0.000 A 
ATOM     13  C   UNL     1       5.602   6.427  17.451  0.00  0.00    +0.000 A 
ATOM     14  H   UNL     1       3.876   2.412  16.229  0.00  0.00    +0.000 HD
ENDROOT
BRANCH   8  15
ATOM     15  O   UNL     1       0.072   2.540  19.370  0.00  0.00    +0.000 OA
ATOM     16  H   UNL     1      -0.505   2.289  18.633  0.00  0.00    +0.000 HD
ENDBRANCH   8  15
BRANCH   1  17
ATOM     17  O   UNL     1       7.743   7.160  16.815  0.00  0.00    +0.000 OA
BRANCH  17  18
ATOM     18  C   UNL     1       7.440   8.363  17.534  0.00  0.00    +0.000 C 
BRANCH  18  19
ATOM     19  C   UNL     1       8.654   8.966  18.263  0.00  0.00    +0.000 C 
BRANCH  19  20
ATOM     20  C   UNL     1       8.732  10.480  18.120  0.00  0.00    +0.000 C 
BRANCH  20  23
ATOM     21  C   UNL     1       9.766  13.158  17.595  0.00  0.00    +0.000 C 
ATOM     22  N   UNL     1      10.022  12.452  18.858  0.00  0.00    +0.000 N 
ATOM     23  C   UNL     1       9.446  11.223  19.216  0.00  0.00    +0.000 C 
ATOM     24  O   UNL     1       9.586  10.706  20.324  0.00  0.00    +0.000 OA
BRANCH  22  25
ATOM     25  C   UNL     1      10.692  13.204  19.938  0.00  0.00    +0.000 C 
ATOM     26  C   UNL     1      12.056  13.772  19.508  0.00  0.00    +0.000 C 
ATOM     27  C   UNL     1      12.098  15.261  19.169  0.00  0.00    +0.000 C 
ATOM     28  C   UNL     1      12.220  16.147  20.408  0.00  0.00    +0.000 C 
ATOM     29  C   UNL     1      10.954  16.293  21.245  0.00  0.00    +0.000 C 
ATOM     30  C   UNL     1      10.325  14.989  21.722  0.00  0.00    +0.000 C 
ATOM     31  C   UNL     1       9.706  14.187  20.584  0.00  0.00    +0.000 C 
ENDBRANCH  22  25
ENDBRANCH  20  23
ENDBRANCH  19  20
ENDBRANCH  18  19
ENDBRANCH  17  18
ENDBRANCH   1  17
TORSDOF 7
ENDMDL
MODEL 5
REMARK VINA RESULT:      -8.4      1.735      2.431
REMARK  Name = 
REMARK  8 active torsions:
REMARK  status: ('A' for Active; 'I' for Inactive)
REMARK    1  A    between atoms: C_1  and  N_2
REMARK    2  A    between atoms: N_2  and  C_23
REMARK    3  A    between atoms: C_3  and  C_5
REMARK    4  A    between atoms: C_5  and  C_6
REMARK    5  A    between atoms: C_6  and  C_7
REMARK    6  A    between atoms: C_7  and  O_8
REMARK    7  A    between atoms: O_8  and  C_9
REMARK    8  A    between atoms: C_16  and  O_17
REMARK                            x       y       z     vdW  Elec       q    Type
REMARK                         _______ _______ _______ _____ _____    ______ ____
ROOT
ATOM      1  C   UNL     1       6.827   6.212  16.749  0.00  0.00    +0.000 A 
ATOM      2  C   UNL     1       6.994   4.984  16.106  0.00  0.00    +0.000 A 
ATOM      3  C   UNL     1       5.963   4.061  16.004  0.00  0.00    +0.000 A 
ATOM      4  C   UNL     1       4.784   4.283  16.694  0.00  0.00    +0.000 A 
ATOM      5  N   UNL     1       3.786   3.300  16.697  0.00  0.00    +0.000 N 
ATOM      6  C   UNL     1       2.771   3.424  17.591  0.00  0.00    +0.000 A 
ATOM      7  N   UNL     1       1.866   2.554  17.929  0.00  0.00    +0.000 NA
ATOM      8  C   UNL     1       1.148   3.245  18.874  0.00  0.00    +0.000 A 
ATOM      9  N   UNL     1       1.470   4.458  19.183  0.00  0.00    +0.000 NA
ATOM     10  C   UNL     1       2.557   4.660  18.382  0.00  0.00    +0.000 A 
ATOM     11  C   UNL     1       3.417   5.668  18.280  0.00  0.00    +0.000 A 
ATOM     12  C   UNL     1       4.615   5.493  17.425  0.00  0.00    +0.000 A 
ATOM     13  C   UNL     1       5.620   6.471  17.401  0.00  0.00    +0.000 A 
ATOM     14  H   UNL     1       3.961   2.401  16.272  0.00  0.00    +0.000 HD
ENDROOT
BRANCH   8  15
ATOM     15  O   UNL     1       0.159   2.535  19.415  0.00  0.00    +0.000 OA
ATOM     16  H   UNL     1      -0.660   2.840  18.999  0.00  0.00    +0.000 HD
ENDBRANCH   8  15
BRANCH   1  17
ATOM     17  O   UNL     1       7.748   7.226  16.745  0.00  0.00    +0.000 OA
BRANCH  17  18
ATOM     18  C   UNL     1       8.038   7.886  17.985  0.00  0.00    +0.000 C 
BRANCH  18  19
ATOM     19  C   UNL     1       8.044   9.421  17.877  0.00  0.00    +0.000 C 
BRANCH  19  20
ATOM     20  C   UNL     1       9.057  10.070  18.810  0.00  0.00    +0.000 C 
BRANCH  20  23
ATOM     21  C   UNL     1       9.945  11.631  21.111  0.00  0.00    +0.000 C 
ATOM     22  N   UNL     1       9.561  12.258  19.838  0.00  0.00    +0.000 N 
ATOM     23  C   UNL     1       9.251  11.554  18.664  0.00  0.00    +0.000 C 
ATOM     24  O   UNL     1       9.043  12.102  17.582  0.00  0.00    +0.000 OA
BRANCH  22  25
ATOM     25  C   UNL     1       9.791  13.710  19.696  0.00  0.00    +0.000 C 
ATOM     26  C   UNL     1       8.841  14.550  20.568  0.00  0.00    +0.000 C 
ATOM     27  C   UNL     1       9.428  15.123  21.857  0.00  0.00    +0.000 C 
ATOM     28  C   UNL     1      10.214  16.413  21.627  0.00  0.00    +0.000 C 
ATOM     29  C   UNL     1      11.587  16.247  20.983  0.00  0.00    +0.000 C 
ATOM     30  C   UNL     1      11.605  15.501  19.653  0.00  0.00    +0.000 C 
ATOM     31  C   UNL     1      11.290  14.019  19.809  0.00  0.00    +0.000 C 
ENDBRANCH  22  25
ENDBRANCH  20  23
ENDBRANCH  19  20
ENDBRANCH  18  19
ENDBRANCH  17  18
ENDBRANCH   1  17
TORSDOF 7
ENDMDL
MODEL 6
REMARK VINA RESULT:      -8.4      1.748      2.365
REMARK  Name = 
REMARK  8 active torsions:
REMARK  status: ('A' for Active; 'I' for Inactive)
REMARK    1  A    between atoms: C_1  and  N_2
REMARK    2  A    between atoms: N_2  and  C_23
REMARK    3  A    between atoms: C_3  and  C_5
REMARK    4  A    between atoms: C_5  and  C_6
REMARK    5  A    between atoms: C_6  and  C_7
REMARK    6  A    between atoms: C_7  and  O_8
REMARK    7  A    between atoms: O_8  and  C_9
REMARK    8  A    between atoms: C_16  and  O_17
REMARK                            x       y       z     vdW  Elec       q    Type
REMARK                         _______ _______ _______ _____ _____    ______ ____
ROOT
ATOM      1  C   UNL     1       7.341   7.050  17.663  0.00  0.00    +0.000 A 
ATOM      2  C   UNL     1       7.817   6.347  18.771  0.00  0.00    +0.000 A 
ATOM      3  C   UNL     1       7.276   5.129  19.157  0.00  0.00    +0.000 A 
ATOM      4  C   UNL     1       6.129   4.669  18.533  0.00  0.00    +0.000 A 
ATOM      5  N   UNL     1       5.506   3.504  18.998  0.00  0.00    +0.000 N 
ATOM      6  C   UNL     1       4.253   3.229  18.552  0.00  0.00    +0.000 A 
ATOM      7  N   UNL     1       3.402   2.349  18.991  0.00  0.00    +0.000 NA
ATOM      8  C   UNL     1       2.325   2.561  18.166  0.00  0.00    +0.000 A 
ATOM      9  N   UNL     1       2.376   3.463  17.241  0.00  0.00    +0.000 NA
ATOM     10  C   UNL     1       3.628   3.974  17.433  0.00  0.00    +0.000 A 
ATOM     11  C   UNL     1       4.272   4.995  16.877  0.00  0.00    +0.000 A 
ATOM     12  C   UNL     1       5.575   5.407  17.449  0.00  0.00    +0.000 A 
ATOM     13  C   UNL     1       6.219   6.565  16.989  0.00  0.00    +0.000 A 
ATOM     14  H   UNL     1       5.841   3.052  19.836  0.00  0.00    +0.000 HD
ENDROOT
BRANCH   8  15
ATOM     15  O   UNL     1       1.279   1.785  18.445  0.00  0.00    +0.000 OA
ATOM     16  H   UNL     1       0.545   2.378  18.664  0.00  0.00    +0.000 HD
ENDBRANCH   8  15
BRANCH   1  17
ATOM     17  O   UNL     1       7.931   8.169  17.137  0.00  0.00    +0.000 OA
BRANCH  17  18
ATOM     18  C   UNL     1       7.727   9.423  17.803  0.00  0.00    +0.000 C 
BRANCH  18  19
ATOM     19  C   UNL     1       8.948   9.896  18.611  0.00  0.00    +0.000 C 
BRANCH  19  20
ATOM     20  C   UNL     1       9.618  11.118  17.999  0.00  0.00    +0.000 C 
BRANCH  20  23
ATOM     21  C   UNL     1      10.141  13.259  19.913  0.00  0.00    +0.000 C 
ATOM     22  N   UNL     1       9.020  13.311  18.964  0.00  0.00    +0.000 N 
ATOM     23  C   UNL     1       8.797  12.377  17.941  0.00  0.00    +0.000 C 
ATOM     24  O   UNL     1       7.918  12.503  17.089  0.00  0.00    +0.000 OA
BRANCH  22  25
ATOM     25  C   UNL     1       8.245  14.566  18.892  0.00  0.00    +0.000 C 
ATOM     26  C   UNL     1       7.302  14.751  20.094  0.00  0.00    +0.000 C 
ATOM     27  C   UNL     1       7.764  15.723  21.178  0.00  0.00    +0.000 C 
ATOM     28  C   UNL     1       7.465  17.182  20.832  0.00  0.00    +0.000 C 
ATOM     29  C   UNL     1       8.367  17.810  19.775  0.00  0.00    +0.000 C 
ATOM     30  C   UNL     1       8.438  17.069  18.444  0.00  0.00    +0.000 C 
ATOM     31  C   UNL     1       9.173  15.739  18.553  0.00  0.00    +0.000 C 
ENDBRANCH  22  25
ENDBRANCH  20  23
ENDBRANCH  19  20
ENDBRANCH  18  19
ENDBRANCH  17  18
ENDBRANCH   1  17
TORSDOF 7
ENDMDL
MODEL 7
REMARK VINA RESULT:      -8.3      6.888     10.748
REMARK  Name = 
REMARK  8 active torsions:
REMARK  status: ('A' for Active; 'I' for Inactive)
REMARK    1  A    between atoms: C_1  and  N_2
REMARK    2  A    between atoms: N_2  and  C_23
REMARK    3  A    between atoms: C_3  and  C_5
REMARK    4  A    between atoms: C_5  and  C_6
REMARK    5  A    between atoms: C_6  and  C_7
REMARK    6  A    between atoms: C_7  and  O_8
REMARK    7  A    between atoms: O_8  and  C_9
REMARK    8  A    between atoms: C_16  and  O_17
REMARK                            x       y       z     vdW  Elec       q    Type
REMARK                         _______ _______ _______ _____ _____    ______ ____
ROOT
ATOM      1  C   UNL     1       2.565   7.677  18.405  0.00  0.00    +0.000 A 
ATOM      2  C   UNL     1       2.552   6.886  19.555  0.00  0.00    +0.000 A 
ATOM      3  C   UNL     1       1.771   7.201  20.657  0.00  0.00    +0.000 A 
ATOM      4  C   UNL     1       1.109   8.416  20.692  0.00  0.00    +0.000 A 
ATOM      5  N   UNL     1       0.419   8.798  21.850  0.00  0.00    +0.000 N 
ATOM      6  C   UNL     1       0.015  10.090  21.956  0.00  0.00    +0.000 A 
ATOM      7  N   UNL     1      -0.439  10.724  22.997  0.00  0.00    +0.000 NA
ATOM      8  C   UNL     1      -0.650  11.983  22.491  0.00  0.00    +0.000 A 
ATOM      9  N   UNL     1      -0.400  12.241  21.249  0.00  0.00    +0.000 NA
ATOM     10  C   UNL     1       0.064  11.033  20.812  0.00  0.00    +0.000 A 
ATOM     11  C   UNL     1       0.583  10.640  19.654  0.00  0.00    +0.000 A 
ATOM     12  C   UNL     1       1.168   9.282  19.563  0.00  0.00    +0.000 A 
ATOM     13  C   UNL     1       1.853   8.878  18.408  0.00  0.00    +0.000 A 
ATOM     14  H   UNL     1       0.478   8.230  22.683  0.00  0.00    +0.000 HD
ENDROOT
BRANCH   8  15
ATOM     15  O   UNL     1      -1.092  12.854  23.397  0.00  0.00    +0.000 OA
ATOM     16  H   UNL     1      -1.628  12.350  24.027  0.00  0.00    +0.000 HD
ENDBRANCH   8  15
BRANCH   1  17
ATOM     17  O   UNL     1       3.184   7.339  17.231  0.00  0.00    +0.000 OA
BRANCH  17  18
ATOM     18  C   UNL     1       4.618   7.324  17.198  0.00  0.00    +0.000 C 
BRANCH  18  19
ATOM     19  C   UNL     1       5.197   6.521  16.020  0.00  0.00    +0.000 C 
BRANCH  19  20
ATOM     20  C   UNL     1       5.652   5.127  16.428  0.00  0.00    +0.000 C 
BRANCH  20  23
ATOM     21  C   UNL     1       5.392   4.601  19.287  0.00  0.00    +0.000 C 
ATOM     22  N   UNL     1       4.594   3.885  18.281  0.00  0.00    +0.000 N 
ATOM     23  C   UNL     1       4.583   4.185  16.910  0.00  0.00    +0.000 C 
ATOM     24  O   UNL     1       3.823   3.647  16.105  0.00  0.00    +0.000 OA
BRANCH  22  25
ATOM     25  C   UNL     1       3.525   2.991  18.768  0.00  0.00    +0.000 C 
ATOM     26  C   UNL     1       3.710   2.593  20.243  0.00  0.00    +0.000 C 
ATOM     27  C   UNL     1       2.832   3.321  21.260  0.00  0.00    +0.000 C 
ATOM     28  C   UNL     1       1.429   2.723  21.367  0.00  0.00    +0.000 C 
ATOM     29  C   UNL     1       0.485   3.036  20.211  0.00  0.00    +0.000 C 
ATOM     30  C   UNL     1       0.996   2.663  18.823  0.00  0.00    +0.000 C 
ATOM     31  C   UNL     1       2.151   3.546  18.368  0.00  0.00    +0.000 C 
ENDBRANCH  22  25
ENDBRANCH  20  23
ENDBRANCH  19  20
ENDBRANCH  18  19
ENDBRANCH  17  18
ENDBRANCH   1  17
TORSDOF 7
ENDMDL
MODEL 8
REMARK VINA RESULT:      -8.3      2.445     11.644
REMARK  Name = 
REMARK  8 active torsions:
REMARK  status: ('A' for Active; 'I' for Inactive)
REMARK    1  A    between atoms: C_1  and  N_2
REMARK    2  A    between atoms: N_2  and  C_23
REMARK    3  A    between atoms: C_3  and  C_5
REMARK    4  A    between atoms: C_5  and  C_6
REMARK    5  A    between atoms: C_6  and  C_7
REMARK    6  A    between atoms: C_7  and  O_8
REMARK    7  A    between atoms: O_8  and  C_9
REMARK    8  A    between atoms: C_16  and  O_17
REMARK                            x       y       z     vdW  Elec       q    Type
REMARK                         _______ _______ _______ _____ _____    ______ ____
ROOT
ATOM      1  C   UNL     1       9.148  10.149  18.933  0.00  0.00    +0.000 A 
ATOM      2  C   UNL     1       9.483  10.919  17.818  0.00  0.00    +0.000 A 
ATOM      3  C   UNL     1      10.026  12.191  17.938  0.00  0.00    +0.000 A 
ATOM      4  C   UNL     1      10.088  12.784  19.187  0.00  0.00    +0.000 A 
ATOM      5  N   UNL     1      10.519  14.112  19.303  0.00  0.00    +0.000 N 
ATOM      6  C   UNL     1      10.315  14.749  20.485  0.00  0.00    +0.000 A 
ATOM      7  N   UNL     1      10.425  16.014  20.764  0.00  0.00    +0.000 NA
ATOM      8  C   UNL     1      10.074  16.042  22.092  0.00  0.00    +0.000 A 
ATOM      9  N   UNL     1       9.761  14.950  22.710  0.00  0.00    +0.000 NA
ATOM     10  C   UNL     1       9.881  14.030  21.708  0.00  0.00    +0.000 A 
ATOM     11  C   UNL     1       9.609  12.731  21.650  0.00  0.00    +0.000 A 
ATOM     12  C   UNL     1       9.679  12.050  20.336  0.00  0.00    +0.000 A 
ATOM     13  C   UNL     1       9.262  10.718  20.202  0.00  0.00    +0.000 A 
ATOM     14  H   UNL     1      10.699  14.660  18.473  0.00  0.00    +0.000 HD
ENDROOT
BRANCH   8  15
ATOM     15  O   UNL     1      10.073  17.267  22.616  0.00  0.00    +0.000 OA
ATOM     16  H   UNL     1       9.945  17.883  21.880  0.00  0.00    +0.000 HD
ENDBRANCH   8  15
BRANCH   1  17
ATOM     17  O   UNL     1       8.762   8.835  18.886  0.00  0.00    +0.000 OA
BRANCH  17  18
ATOM     18  C   UNL     1       7.921   8.411  17.804  0.00  0.00    +0.000 C 
BRANCH  18  19
ATOM     19  C   UNL     1       7.398   6.973  17.959  0.00  0.00    +0.000 C 
BRANCH  19  20
ATOM     20  C   UNL     1       6.321   6.627  16.941  0.00  0.00    +0.000 C 
BRANCH  20  23
ATOM     21  C   UNL     1       5.436   4.229  18.351  0.00  0.00    +0.000 C 
ATOM     22  N   UNL     1       4.517   5.326  18.012  0.00  0.00    +0.000 N 
ATOM     23  C   UNL     1       4.909   6.552  17.453  0.00  0.00    +0.000 C 
ATOM     24  O   UNL     1       4.138   7.497  17.284  0.00  0.00    +0.000 OA
BRANCH  22  25
ATOM     25  C   UNL     1       3.144   5.257  18.552  0.00  0.00    +0.000 C 
ATOM     26  C   UNL     1       2.209   4.394  17.687  0.00  0.00    +0.000 C 
ATOM     27  C   UNL     1       1.911   2.986  18.202  0.00  0.00    +0.000 C 
ATOM     28  C   UNL     1       0.809   2.963  19.260  0.00  0.00    +0.000 C 
ATOM     29  C   UNL     1       1.206   3.470  20.643  0.00  0.00    +0.000 C 
ATOM     30  C   UNL     1       1.799   4.874  20.685  0.00  0.00    +0.000 C 
ATOM     31  C   UNL     1       3.184   4.943  20.054  0.00  0.00    +0.000 C 
ENDBRANCH  22  25
ENDBRANCH  20  23
ENDBRANCH  19  20
ENDBRANCH  18  19
ENDBRANCH  17  18
ENDBRANCH   1  17
TORSDOF 7
ENDMDL
MODEL 9
REMARK VINA RESULT:      -8.3      1.571      2.120
REMARK  Name = 
REMARK  8 active torsions:
REMARK  status: ('A' for Active; 'I' for Inactive)
REMARK    1  A    between atoms: C_1  and  N_2
REMARK    2  A    between atoms: N_2  and  C_23
REMARK    3  A    between atoms: C_3  and  C_5
REMARK    4  A    between atoms: C_5  and  C_6
REMARK    5  A    between atoms: C_6  and  C_7
REMARK    6  A    between atoms: C_7  and  O_8
REMARK    7  A    between atoms: O_8  and  C_9
REMARK    8  A    between atoms: C_16  and  O_17
REMARK                            x       y       z     vdW  Elec       q    Type
REMARK                         _______ _______ _______ _____ _____    ______ ____
ROOT
ATOM      1  C   UNL     1       7.372   7.226  17.621  0.00  0.00    +0.000 A 
ATOM      2  C   UNL     1       7.866   6.523  18.722  0.00  0.00    +0.000 A 
ATOM      3  C   UNL     1       7.341   5.298  19.109  0.00  0.00    +0.000 A 
ATOM      4  C   UNL     1       6.193   4.829  18.494  0.00  0.00    +0.000 A 
ATOM      5  N   UNL     1       5.586   3.656  18.961  0.00  0.00    +0.000 N 
ATOM      6  C   UNL     1       4.331   3.370  18.526  0.00  0.00    +0.000 A 
ATOM      7  N   UNL     1       3.494   2.479  18.970  0.00  0.00    +0.000 NA
ATOM      8  C   UNL     1       2.407   2.684  18.156  0.00  0.00    +0.000 A 
ATOM      9  N   UNL     1       2.440   3.590  17.235  0.00  0.00    +0.000 NA
ATOM     10  C   UNL     1       3.688   4.113  17.416  0.00  0.00    +0.000 A 
ATOM     11  C   UNL     1       4.316   5.142  16.858  0.00  0.00    +0.000 A 
ATOM     12  C   UNL     1       5.620   5.565  17.418  0.00  0.00    +0.000 A 
ATOM     13  C   UNL     1       6.248   6.731  16.957  0.00  0.00    +0.000 A 
ATOM     14  H   UNL     1       5.934   3.204  19.794  0.00  0.00    +0.000 HD
ENDROOT
BRANCH   8  15
ATOM     15  O   UNL     1       1.372   1.896  18.443  0.00  0.00    +0.000 OA
ATOM     16  H   UNL     1       0.786   2.407  19.020  0.00  0.00    +0.000 HD
ENDBRANCH   8  15
BRANCH   1  17
ATOM     17  O   UNL     1       7.945   8.353  17.094  0.00  0.00    +0.000 OA
BRANCH  17  18
ATOM     18  C   UNL     1       7.980   9.539  17.899  0.00  0.00    +0.000 C 
BRANCH  18  19
ATOM     19  C   UNL     1       9.084   9.522  18.971  0.00  0.00    +0.000 C 
BRANCH  19  20
ATOM     20  C   UNL     1       9.889  10.814  19.003  0.00  0.00    +0.000 C 
BRANCH  20  23
ATOM     21  C   UNL     1       9.349  13.243  17.478  0.00  0.00    +0.000 C 
ATOM     22  N   UNL     1       9.130  13.162  18.930  0.00  0.00    +0.000 N 
ATOM     23  C   UNL     1       9.249  11.989  19.690  0.00  0.00    +0.000 C 
ATOM     24  O   UNL     1       8.951  11.921  20.883  0.00  0.00    +0.000 OA
BRANCH  22  25
ATOM     25  C   UNL     1       8.469  14.308  19.585  0.00  0.00    +0.000 C 
ATOM     26  C   UNL     1       9.448  15.446  19.921  0.00  0.00    +0.000 C 
ATOM     27  C   UNL     1       9.434  16.655  18.987  0.00  0.00    +0.000 C 
ATOM     28  C   UNL     1       8.313  17.642  19.314  0.00  0.00    +0.000 C 
ATOM     29  C   UNL     1       6.909  17.211  18.905  0.00  0.00    +0.000 C 
ATOM     30  C   UNL     1       6.451  15.861  19.446  0.00  0.00    +0.000 C 
ATOM     31  C   UNL     1       7.198  14.693  18.815  0.00  0.00    +0.000 C 
ENDBRANCH  22  25
ENDBRANCH  20  23
ENDBRANCH  19  20
ENDBRANCH  18  19
ENDBRANCH  17  18
ENDBRANCH   1  17
TORSDOF 7
ENDMDL
