MODEL 1
REMARK VINA RESULT:      -6.7      0.000      0.000
REMARK  Name = 
REMARK  7 active torsions:
REMARK  status: ('A' for Active; 'I' for Inactive)
REMARK    1  A    between atoms: C_1  and  N_2
REMARK    2  A    between atoms: N_2  and  C_3
REMARK    3  A    between atoms: N_2  and  C_4
REMARK    4  A    between atoms: C_7  and  C_8
REMARK    5  A    between atoms: C_9  and  C_10
REMARK    6  A    between atoms: C_10  and  C_12
REMARK    7  A    between atoms: C_29  and  N_30
REMARK                            x       y       z     vdW  Elec       q    Type
REMARK                         _______ _______ _______ _____ _____    ______ ____
ROOT
ATOM      1  C   UNL     1       0.134  12.326  20.550  0.00  0.00    +0.000 C 
ATOM      2  C   UNL     1      -0.865  12.554  21.768  0.00  0.00    +0.000 C 
ATOM      3  N   UNL     1      -0.351  13.855  22.380  0.00  0.00    +0.000 N 
ATOM      4  C   UNL     1      -1.186  14.708  23.096  0.00  0.00    +0.000 A 
ATOM      5  C   UNL     1      -0.931  14.964  24.444  0.00  0.00    +0.000 A 
ATOM      6  C   UNL     1      -1.718  15.875  25.146  0.00  0.00    +0.000 A 
ATOM      7  C   UNL     1      -2.817  16.468  24.523  0.00  0.00    +0.000 A 
ATOM      8  C   UNL     1      -3.027  16.285  23.155  0.00  0.00    +0.000 A 
ATOM      9  C   UNL     1      -2.128  15.506  22.429  0.00  0.00    +0.000 A 
ATOM     10  C   UNL     1      -1.955  15.650  20.977  0.00  0.00    +0.000 C 
ATOM     11  C   UNL     1      -0.766  15.277  20.453  0.00  0.00    +0.000 C 
ATOM     12  C   UNL     1       0.331  14.601  21.286  0.00  0.00    +0.000 C 
ATOM     13  C   UNL     1       1.157  13.438  20.753  0.00  0.00    +0.000 C 
ENDROOT
BRANCH   1  17
ATOM     14  C   UNL     1       1.623   8.224  20.126  0.00  0.00    +0.000 A 
ATOM     15  C   UNL     1       1.487   9.104  19.043  0.00  0.00    +0.000 A 
ATOM     16  C   UNL     1       0.996  10.407  19.197  0.00  0.00    +0.000 A 
ATOM     17  C   UNL     1       0.635  10.901  20.456  0.00  0.00    +0.000 A 
ATOM     18  C   UNL     1       0.767  10.046  21.548  0.00  0.00    +0.000 A 
ATOM     19  C   UNL     1       1.256   8.739  21.379  0.00  0.00    +0.000 A 
BRANCH  14  21
ATOM     20  C   UNL     1       2.811   6.543  18.753  0.00  0.00    +0.000 C 
ATOM     21  N   UNL     1       2.116   6.928  19.977  0.00  0.00    +0.000 N 
ATOM     22  C   UNL     1       1.553   5.852  20.785  0.00  0.00    +0.000 C 
ENDBRANCH  14  21
ENDBRANCH   1  17
BRANCH  13  23
ATOM     23  N   UNL     1       1.934  13.805  19.544  0.00  0.00    +0.000 N 
ATOM     24  O   UNL     1       3.100  14.169  19.732  0.00  0.00    +0.000 OA
ATOM     25  O   UNL     1       1.380  13.748  18.439  0.00  0.00    +0.000 OA
ENDBRANCH  13  23
BRANCH   2  26
ATOM     26  C   UNL     1      -2.312  12.546  21.198  0.00  0.00    +0.000 C 
ATOM     27  O   UNL     1      -2.532  12.328  20.001  0.00  0.00    +0.000 OA
BRANCH  26  28
ATOM     28  C   UNL     1      -3.530  12.709  22.062  0.00  0.00    +0.000 A 
ATOM     29  C   UNL     1      -4.717  13.129  21.419  0.00  0.00    +0.000 A 
ATOM     30  C   UNL     1      -5.919  13.269  22.116  0.00  0.00    +0.000 A 
ATOM     31  C   UNL     1      -5.954  12.984  23.474  0.00  0.00    +0.000 A 
ATOM     32 CL   UNL     1      -7.428  13.133  24.341  0.00  0.00    +0.000 Cl
ATOM     33  C   UNL     1      -4.783  12.574  24.134  0.00  0.00    +0.000 A 
ATOM     34  C   UNL     1      -3.578  12.440  23.430  0.00  0.00    +0.000 A 
ENDBRANCH  26  28
ENDBRANCH   2  26
TORSDOF 5
ENDMDL
MODEL 2
REMARK VINA RESULT:      -6.7      0.192      1.002
REMARK  Name = 
REMARK  7 active torsions:
REMARK  status: ('A' for Active; 'I' for Inactive)
REMARK    1  A    between atoms: C_1  and  N_2
REMARK    2  A    between atoms: N_2  and  C_3
REMARK    3  A    between atoms: N_2  and  C_4
REMARK    4  A    between atoms: C_7  and  C_8
REMARK    5  A    between atoms: C_9  and  C_10
REMARK    6  A    between atoms: C_10  and  C_12
REMARK    7  A    between atoms: C_29  and  N_30
REMARK                            x       y       z     vdW  Elec       q    Type
REMARK                         _______ _______ _______ _____ _____    ______ ____
ROOT
ATOM      1  C   UNL     1       0.231  12.331  20.539  0.00  0.00    +0.000 C 
ATOM      2  C   UNL     1      -0.867  12.547  21.671  0.00  0.00    +0.000 C 
ATOM      3  N   UNL     1      -0.380  13.815  22.369  0.00  0.00    +0.000 N 
ATOM      4  C   UNL     1      -1.256  14.667  23.037  0.00  0.00    +0.000 A 
ATOM      5  C   UNL     1      -1.115  14.874  24.409  0.00  0.00    +0.000 A 
ATOM      6  C   UNL     1      -1.941  15.783  25.068  0.00  0.00    +0.000 A 
ATOM      7  C   UNL     1      -2.966  16.423  24.371  0.00  0.00    +0.000 A 
ATOM      8  C   UNL     1      -3.058  16.288  22.984  0.00  0.00    +0.000 A 
ATOM      9  C   UNL     1      -2.115  15.509  22.316  0.00  0.00    +0.000 A 
ATOM     10  C   UNL     1      -1.812  15.693  20.890  0.00  0.00    +0.000 C 
ATOM     11  C   UNL     1      -0.589  15.306  20.460  0.00  0.00    +0.000 C 
ATOM     12  C   UNL     1       0.413  14.577  21.365  0.00  0.00    +0.000 C 
ATOM     13  C   UNL     1       1.257  13.410  20.868  0.00  0.00    +0.000 C 
ENDROOT
BRANCH   1  17
ATOM     14  C   UNL     1       1.645   8.203  20.109  0.00  0.00    +0.000 A 
ATOM     15  C   UNL     1       1.534   9.090  19.028  0.00  0.00    +0.000 A 
ATOM     16  C   UNL     1       1.066  10.402  19.184  0.00  0.00    +0.000 A 
ATOM     17  C   UNL     1       0.706  10.897  20.443  0.00  0.00    +0.000 A 
ATOM     18  C   UNL     1       0.814  10.036  21.532  0.00  0.00    +0.000 A 
ATOM     19  C   UNL     1       1.279   8.721  21.362  0.00  0.00    +0.000 A 
BRANCH  14  21
ATOM     20  C   UNL     1       2.832   6.512  18.748  0.00  0.00    +0.000 C 
ATOM     21  N   UNL     1       2.115   6.899  19.958  0.00  0.00    +0.000 N 
ATOM     22  C   UNL     1       1.510   5.827  20.740  0.00  0.00    +0.000 C 
ENDBRANCH  14  21
ENDBRANCH   1  17
BRANCH  13  23
ATOM     23  N   UNL     1       2.147  13.793  19.745  0.00  0.00    +0.000 N 
ATOM     24  O   UNL     1       1.649  13.756  18.614  0.00  0.00    +0.000 OA
ATOM     25  O   UNL     1       3.319  14.102  19.992  0.00  0.00    +0.000 OA
ENDBRANCH  13  23
BRANCH   2  26
ATOM     26  C   UNL     1      -2.257  12.594  20.976  0.00  0.00    +0.000 C 
ATOM     27  O   UNL     1      -2.372  12.447  19.754  0.00  0.00    +0.000 OA
BRANCH  26  28
ATOM     28  C   UNL     1      -3.546  12.726  21.737  0.00  0.00    +0.000 A 
ATOM     29  C   UNL     1      -3.514  12.387  23.109  0.00  0.00    +0.000 A 
ATOM     30  C   UNL     1      -4.642  12.515  23.923  0.00  0.00    +0.000 A 
ATOM     31  C   UNL     1      -5.824  12.993  23.375  0.00  0.00    +0.000 A 
ATOM     32 CL   UNL     1      -7.214  13.175  24.366  0.00  0.00    +0.000 Cl
ATOM     33  C   UNL     1      -5.880  13.328  22.011  0.00  0.00    +0.000 A 
ATOM     34  C   UNL     1      -4.745  13.191  21.198  0.00  0.00    +0.000 A 
ENDBRANCH  26  28
ENDBRANCH   2  26
TORSDOF 5
ENDMDL
MODEL 3
REMARK VINA RESULT:      -6.5      0.783      1.425
REMARK  Name = 
REMARK  7 active torsions:
REMARK  status: ('A' for Active; 'I' for Inactive)
REMARK    1  A    between atoms: C_1  and  N_2
REMARK    2  A    between atoms: N_2  and  C_3
REMARK    3  A    between atoms: N_2  and  C_4
REMARK    4  A    between atoms: C_7  and  C_8
REMARK    5  A    between atoms: C_9  and  C_10
REMARK    6  A    between atoms: C_10  and  C_12
REMARK    7  A    between atoms: C_29  and  N_30
REMARK                            x       y       z     vdW  Elec       q    Type
REMARK                         _______ _______ _______ _____ _____    ______ ____
ROOT
ATOM      1  C   UNL     1       0.557  12.229  19.820  0.00  0.00    +0.000 C 
ATOM      2  C   UNL     1      -0.472  12.515  21.001  0.00  0.00    +0.000 C 
ATOM      3  N   UNL     1       0.076  13.802  21.614  0.00  0.00    +0.000 N 
ATOM      4  C   UNL     1      -0.746  14.699  22.292  0.00  0.00    +0.000 A 
ATOM      5  C   UNL     1      -0.524  14.962  23.644  0.00  0.00    +0.000 A 
ATOM      6  C   UNL     1      -1.296  15.915  24.307  0.00  0.00    +0.000 A 
ATOM      7  C   UNL     1      -2.347  16.544  23.640  0.00  0.00    +0.000 A 
ATOM      8  C   UNL     1      -2.519  16.351  22.268  0.00  0.00    +0.000 A 
ATOM      9  C   UNL     1      -1.630  15.526  21.583  0.00  0.00    +0.000 A 
ATOM     10  C   UNL     1      -1.404  15.642  20.136  0.00  0.00    +0.000 C 
ATOM     11  C   UNL     1      -0.215  15.213  19.656  0.00  0.00    +0.000 C 
ATOM     12  C   UNL     1       0.824  14.504  20.535  0.00  0.00    +0.000 C 
ATOM     13  C   UNL     1       1.618  13.299  20.044  0.00  0.00    +0.000 C 
ENDROOT
BRANCH   1  17
ATOM     14  C   UNL     1       1.792   8.022  19.796  0.00  0.00    +0.000 A 
ATOM     15  C   UNL     1       1.341   8.680  20.950  0.00  0.00    +0.000 A 
ATOM     16  C   UNL     1       0.964  10.030  20.939  0.00  0.00    +0.000 A 
ATOM     17  C   UNL     1       1.000  10.783  19.761  0.00  0.00    +0.000 A 
ATOM     18  C   UNL     1       1.439  10.148  18.601  0.00  0.00    +0.000 A 
ATOM     19  C   UNL     1       1.820   8.795  18.625  0.00  0.00    +0.000 A 
BRANCH  14  21
ATOM     20  C   UNL     1       2.764   6.077  18.616  0.00  0.00    +0.000 C 
ATOM     21  N   UNL     1       2.163   6.677  19.801  0.00  0.00    +0.000 N 
ATOM     22  C   UNL     1       1.546   5.770  20.763  0.00  0.00    +0.000 C 
ENDBRANCH  14  21
ENDBRANCH   1  17
BRANCH  13  23
ATOM     23  N   UNL     1       2.449  13.617  18.857  0.00  0.00    +0.000 N 
ATOM     24  O   UNL     1       3.533  14.169  19.079  0.00  0.00    +0.000 OA
ATOM     25  O   UNL     1       2.015  13.338  17.733  0.00  0.00    +0.000 OA
ENDBRANCH  13  23
BRANCH   2  26
ATOM     26  C   UNL     1      -1.898  12.559  20.383  0.00  0.00    +0.000 C 
ATOM     27  O   UNL     1      -2.080  12.407  19.170  0.00  0.00    +0.000 OA
BRANCH  26  28
ATOM     28  C   UNL     1      -3.143  12.696  21.213  0.00  0.00    +0.000 A 
ATOM     29  C   UNL     1      -3.031  12.381  22.587  0.00  0.00    +0.000 A 
ATOM     30  C   UNL     1      -4.113  12.515  23.461  0.00  0.00    +0.000 A 
ATOM     31  C   UNL     1      -5.328  12.974  22.972  0.00  0.00    +0.000 A 
ATOM     32 CL   UNL     1      -6.661  13.163  24.037  0.00  0.00    +0.000 Cl
ATOM     33  C   UNL     1      -5.463  13.285  21.608  0.00  0.00    +0.000 A 
ATOM     34  C   UNL     1      -4.374  13.142  20.735  0.00  0.00    +0.000 A 
ENDBRANCH  26  28
ENDBRANCH   2  26
TORSDOF 5
ENDMDL
MODEL 4
REMARK VINA RESULT:      -6.4      0.880      1.118
REMARK  Name = 
REMARK  7 active torsions:
REMARK  status: ('A' for Active; 'I' for Inactive)
REMARK    1  A    between atoms: C_1  and  N_2
REMARK    2  A    between atoms: N_2  and  C_3
REMARK    3  A    between atoms: N_2  and  C_4
REMARK    4  A    between atoms: C_7  and  C_8
REMARK    5  A    between atoms: C_9  and  C_10
REMARK    6  A    between atoms: C_10  and  C_12
REMARK    7  A    between atoms: C_29  and  N_30
REMARK                            x       y       z     vdW  Elec       q    Type
REMARK                         _______ _______ _______ _____ _____    ______ ____
ROOT
ATOM      1  C   UNL     1       0.563  12.175  19.841  0.00  0.00    +0.000 C 
ATOM      2  C   UNL     1      -0.530  12.512  20.948  0.00  0.00    +0.000 C 
ATOM      3  N   UNL     1       0.015  13.795  21.573  0.00  0.00    +0.000 N 
ATOM      4  C   UNL     1      -0.823  14.727  22.180  0.00  0.00    +0.000 A 
ATOM      5  C   UNL     1      -0.680  15.011  23.539  0.00  0.00    +0.000 A 
ATOM      6  C   UNL     1      -1.465  15.997  24.134  0.00  0.00    +0.000 A 
ATOM      7  C   UNL     1      -2.453  16.642  23.390  0.00  0.00    +0.000 A 
ATOM      8  C   UNL     1      -2.544  16.427  22.014  0.00  0.00    +0.000 A 
ATOM      9  C   UNL     1      -1.636  15.564  21.402  0.00  0.00    +0.000 A 
ATOM     10  C   UNL     1      -1.316  15.646  19.970  0.00  0.00    +0.000 C 
ATOM     11  C   UNL     1      -0.111  15.176  19.575  0.00  0.00    +0.000 C 
ATOM     12  C   UNL     1       0.850  14.455  20.531  0.00  0.00    +0.000 C 
ATOM     13  C   UNL     1       1.638  13.220  20.113  0.00  0.00    +0.000 C 
ENDROOT
BRANCH   1  17
ATOM     14  C   UNL     1       1.785   7.967  19.677  0.00  0.00    +0.000 A 
ATOM     15  C   UNL     1       1.786   8.808  18.555  0.00  0.00    +0.000 A 
ATOM     16  C   UNL     1       1.378  10.147  18.625  0.00  0.00    +0.000 A 
ATOM     17  C   UNL     1       0.968  10.717  19.836  0.00  0.00    +0.000 A 
ATOM     18  C   UNL     1       0.964   9.902  20.966  0.00  0.00    +0.000 A 
ATOM     19  C   UNL     1       1.370   8.558  20.881  0.00  0.00    +0.000 A 
BRANCH  14  21
ATOM     20  C   UNL     1       2.624   6.062  18.341  0.00  0.00    +0.000 C 
ATOM     21  N   UNL     1       2.195   6.636  19.611  0.00  0.00    +0.000 N 
ATOM     22  C   UNL     1       1.764   5.704  20.647  0.00  0.00    +0.000 C 
ENDBRANCH  14  21
ENDBRANCH   1  17
BRANCH  13  23
ATOM     23  N   UNL     1       2.552  13.492  18.978  0.00  0.00    +0.000 N 
ATOM     24  O   UNL     1       2.131  13.196  17.853  0.00  0.00    +0.000 OA
ATOM     25  O   UNL     1       3.669  13.969  19.212  0.00  0.00    +0.000 OA
ENDBRANCH  13  23
BRANCH   2  26
ATOM     26  C   UNL     1      -1.912  12.583  20.240  0.00  0.00    +0.000 C 
ATOM     27  O   UNL     1      -2.013  12.471  19.013  0.00  0.00    +0.000 OA
BRANCH  26  28
ATOM     28  C   UNL     1      -3.209  12.700  20.990  0.00  0.00    +0.000 A 
ATOM     29  C   UNL     1      -4.375  12.910  20.218  0.00  0.00    +0.000 A 
ATOM     30  C   UNL     1      -5.640  12.988  20.806  0.00  0.00    +0.000 A 
ATOM     31  C   UNL     1      -5.757  12.851  22.183  0.00  0.00    +0.000 A 
ATOM     32 CL   UNL     1      -7.307  12.925  22.919  0.00  0.00    +0.000 Cl
ATOM     33  C   UNL     1      -4.610  12.650  22.969  0.00  0.00    +0.000 A 
ATOM     34  C   UNL     1      -3.342  12.579  22.372  0.00  0.00    +0.000 A 
ENDBRANCH  26  28
ENDBRANCH   2  26
TORSDOF 5
ENDMDL
MODEL 5
REMARK VINA RESULT:      -6.3      2.054      2.636
REMARK  Name = 
REMARK  7 active torsions:
REMARK  status: ('A' for Active; 'I' for Inactive)
REMARK    1  A    between atoms: C_1  and  N_2
REMARK    2  A    between atoms: N_2  and  C_3
REMARK    3  A    between atoms: N_2  and  C_4
REMARK    4  A    between atoms: C_7  and  C_8
REMARK    5  A    between atoms: C_9  and  C_10
REMARK    6  A    between atoms: C_10  and  C_12
REMARK    7  A    between atoms: C_29  and  N_30
REMARK                            x       y       z     vdW  Elec       q    Type
REMARK                         _______ _______ _______ _____ _____    ______ ____
ROOT
ATOM      1  C   UNL     1       0.719  12.008  19.928  0.00  0.00    +0.000 C 
ATOM      2  C   UNL     1      -0.789  12.065  20.436  0.00  0.00    +0.000 C 
ATOM      3  N   UNL     1      -0.701  13.017  21.628  0.00  0.00    +0.000 N 
ATOM      4  C   UNL     1      -1.793  13.773  22.044  0.00  0.00    +0.000 A 
ATOM      5  C   UNL     1      -2.328  13.582  23.318  0.00  0.00    +0.000 A 
ATOM      6  C   UNL     1      -3.373  14.388  23.767  0.00  0.00    +0.000 A 
ATOM      7  C   UNL     1      -3.941  15.331  22.910  0.00  0.00    +0.000 A 
ATOM      8  C   UNL     1      -3.356  15.587  21.668  0.00  0.00    +0.000 A 
ATOM      9  C   UNL     1      -2.206  14.891  21.304  0.00  0.00    +0.000 A 
ATOM     10  C   UNL     1      -1.256  15.406  20.307  0.00  0.00    +0.000 C 
ATOM     11  C   UNL     1       0.024  14.980  20.391  0.00  0.00    +0.000 C 
ATOM     12  C   UNL     1       0.474  13.899  21.383  0.00  0.00    +0.000 C 
ATOM     13  C   UNL     1       1.457  12.801  20.999  0.00  0.00    +0.000 C 
ENDROOT
BRANCH   1  17
ATOM     14  C   UNL     1       2.136   7.982  18.924  0.00  0.00    +0.000 A 
ATOM     15  C   UNL     1       2.185   9.056  18.024  0.00  0.00    +0.000 A 
ATOM     16  C   UNL     1       1.714  10.333  18.360  0.00  0.00    +0.000 A 
ATOM     17  C   UNL     1       1.188  10.600  19.628  0.00  0.00    +0.000 A 
ATOM     18  C   UNL     1       1.134   9.549  20.541  0.00  0.00    +0.000 A 
ATOM     19  C   UNL     1       1.605   8.272  20.191  0.00  0.00    +0.000 A 
BRANCH  14  21
ATOM     20  C   UNL     1       2.290   5.568  19.442  0.00  0.00    +0.000 C 
ATOM     21  N   UNL     1       2.609   6.711  18.596  0.00  0.00    +0.000 N 
ATOM     22  C   UNL     1       3.772   6.586  17.724  0.00  0.00    +0.000 C 
ENDBRANCH  14  21
ENDBRANCH   1  17
BRANCH  13  23
ATOM     23  N   UNL     1       2.774  13.341  20.585  0.00  0.00    +0.000 N 
ATOM     24  O   UNL     1       2.963  13.451  19.368  0.00  0.00    +0.000 OA
ATOM     25  O   UNL     1       3.602  13.628  21.458  0.00  0.00    +0.000 OA
ENDBRANCH  13  23
BRANCH   2  26
ATOM     26  C   UNL     1      -1.676  12.494  19.234  0.00  0.00    +0.000 C 
ATOM     27  O   UNL     1      -1.209  13.133  18.284  0.00  0.00    +0.000 OA
BRANCH  26  28
ATOM     28  C   UNL     1      -3.117  12.090  19.098  0.00  0.00    +0.000 A 
ATOM     29  C   UNL     1      -3.422  11.149  18.088  0.00  0.00    +0.000 A 
ATOM     30  C   UNL     1      -4.720  10.668  17.901  0.00  0.00    +0.000 A 
ATOM     31  C   UNL     1      -5.737  11.121  18.731  0.00  0.00    +0.000 A 
ATOM     32 CL   UNL     1      -7.335  10.525  18.527  0.00  0.00    +0.000 Cl
ATOM     33  C   UNL     1      -5.457  12.062  19.735  0.00  0.00    +0.000 A 
ATOM     34  C   UNL     1      -4.152  12.545  19.913  0.00  0.00    +0.000 A 
ENDBRANCH  26  28
ENDBRANCH   2  26
TORSDOF 5
ENDMDL
MODEL 6
REMARK VINA RESULT:      -6.3      3.734      6.310
REMARK  Name = 
REMARK  7 active torsions:
REMARK  status: ('A' for Active; 'I' for Inactive)
REMARK    1  A    between atoms: C_1  and  N_2
REMARK    2  A    between atoms: N_2  and  C_3
REMARK    3  A    between atoms: N_2  and  C_4
REMARK    4  A    between atoms: C_7  and  C_8
REMARK    5  A    between atoms: C_9  and  C_10
REMARK    6  A    between atoms: C_10  and  C_12
REMARK    7  A    between atoms: C_29  and  N_30
REMARK                            x       y       z     vdW  Elec       q    Type
REMARK                         _______ _______ _______ _____ _____    ______ ____
ROOT
ATOM      1  C   UNL     1       0.529  12.327  21.126  0.00  0.00    +0.000 C 
ATOM      2  C   UNL     1       1.165  13.383  20.118  0.00  0.00    +0.000 C 
ATOM      3  N   UNL     1      -0.004  14.327  19.845  0.00  0.00    +0.000 N 
ATOM      4  C   UNL     1       0.198  15.654  19.475  0.00  0.00    +0.000 A 
ATOM      5  C   UNL     1      -0.250  16.107  18.233  0.00  0.00    +0.000 A 
ATOM      6  C   UNL     1      -0.118  17.451  17.888  0.00  0.00    +0.000 A 
ATOM      7  C   UNL     1       0.539  18.328  18.751  0.00  0.00    +0.000 A 
ATOM      8  C   UNL     1       0.911  17.904  20.028  0.00  0.00    +0.000 A 
ATOM      9  C   UNL     1       0.616  16.600  20.422  0.00  0.00    +0.000 A 
ATOM     10  C   UNL     1       0.498  16.212  21.834  0.00  0.00    +0.000 C 
ATOM     11  C   UNL     1      -0.271  15.138  22.121  0.00  0.00    +0.000 C 
ATOM     12  C   UNL     1      -0.898  14.255  21.034  0.00  0.00    +0.000 C 
ATOM     13  C   UNL     1      -0.940  12.736  21.144  0.00  0.00    +0.000 C 
ENDROOT
BRANCH   1  17
ATOM     14  C   UNL     1       1.543   8.225  19.959  0.00  0.00    +0.000 A 
ATOM     15  C   UNL     1       1.435   9.277  19.038  0.00  0.00    +0.000 A 
ATOM     16  C   UNL     1       1.096  10.579  19.430  0.00  0.00    +0.000 A 
ATOM     17  C   UNL     1       0.869  10.895  20.774  0.00  0.00    +0.000 A 
ATOM     18  C   UNL     1       0.976   9.867  21.708  0.00  0.00    +0.000 A 
ATOM     19  C   UNL     1       1.312   8.564  21.302  0.00  0.00    +0.000 A 
BRANCH  14  21
ATOM     20  C   UNL     1       1.841   5.839  20.541  0.00  0.00    +0.000 C 
ATOM     21  N   UNL     1       1.886   6.929  19.573  0.00  0.00    +0.000 N 
ATOM     22  C   UNL     1       2.720   6.732  18.393  0.00  0.00    +0.000 C 
ENDBRANCH  14  21
ENDBRANCH   1  17
BRANCH  13  23
ATOM     23  N   UNL     1      -1.705  12.277  22.329  0.00  0.00    +0.000 N 
ATOM     24  O   UNL     1      -1.041  11.978  23.328  0.00  0.00    +0.000 OA
ATOM     25  O   UNL     1      -2.937  12.198  22.249  0.00  0.00    +0.000 OA
ENDBRANCH  13  23
BRANCH   2  26
ATOM     26  C   UNL     1       2.431  13.978  20.796  0.00  0.00    +0.000 C 
ATOM     27  O   UNL     1       2.553  13.999  22.026  0.00  0.00    +0.000 OA
BRANCH  26  28
ATOM     28  C   UNL     1       3.616  14.476  20.018  0.00  0.00    +0.000 A 
ATOM     29  C   UNL     1       4.739  14.897  20.766  0.00  0.00    +0.000 A 
ATOM     30  C   UNL     1       5.911  15.336  20.146  0.00  0.00    +0.000 A 
ATOM     31  C   UNL     1       5.979  15.355  18.760  0.00  0.00    +0.000 A 
ATOM     32 CL   UNL     1       7.420  15.874  17.982  0.00  0.00    +0.000 Cl
ATOM     33  C   UNL     1       4.871  14.949  17.997  0.00  0.00    +0.000 A 
ATOM     34  C   UNL     1       3.695  14.515  18.627  0.00  0.00    +0.000 A 
ENDBRANCH  26  28
ENDBRANCH   2  26
TORSDOF 5
ENDMDL
MODEL 7
REMARK VINA RESULT:      -6.3      1.423      1.964
REMARK  Name = 
REMARK  7 active torsions:
REMARK  status: ('A' for Active; 'I' for Inactive)
REMARK    1  A    between atoms: C_1  and  N_2
REMARK    2  A    between atoms: N_2  and  C_3
REMARK    3  A    between atoms: N_2  and  C_4
REMARK    4  A    between atoms: C_7  and  C_8
REMARK    5  A    between atoms: C_9  and  C_10
REMARK    6  A    between atoms: C_10  and  C_12
REMARK    7  A    between atoms: C_29  and  N_30
REMARK                            x       y       z     vdW  Elec       q    Type
REMARK                         _______ _______ _______ _____ _____    ______ ____
ROOT
ATOM      1  C   UNL     1       0.788  12.086  19.533  0.00  0.00    +0.000 C 
ATOM      2  C   UNL     1      -0.525  12.335  20.398  0.00  0.00    +0.000 C 
ATOM      3  N   UNL     1      -0.131  13.529  21.265  0.00  0.00    +0.000 N 
ATOM      4  C   UNL     1      -1.080  14.414  21.768  0.00  0.00    +0.000 A 
ATOM      5  C   UNL     1      -1.246  14.548  23.147  0.00  0.00    +0.000 A 
ATOM      6  C   UNL     1      -2.142  15.488  23.656  0.00  0.00    +0.000 A 
ATOM      7  C   UNL     1      -2.935  16.235  22.785  0.00  0.00    +0.000 A 
ATOM      8  C   UNL     1      -2.714  16.169  21.408  0.00  0.00    +0.000 A 
ATOM      9  C   UNL     1      -1.695  15.352  20.924  0.00  0.00    +0.000 A 
ATOM     10  C   UNL     1      -1.060  15.575  19.618  0.00  0.00    +0.000 C 
ATOM     11  C   UNL     1       0.201  15.116  19.453  0.00  0.00    +0.000 C 
ATOM     12  C   UNL     1       0.920  14.272  20.515  0.00  0.00    +0.000 C 
ATOM     13  C   UNL     1       1.778  13.067  20.151  0.00  0.00    +0.000 C 
ENDROOT
BRANCH   1  17
ATOM     14  C   UNL     1       1.863   7.836  19.463  0.00  0.00    +0.000 A 
ATOM     15  C   UNL     1       1.379   8.483  20.609  0.00  0.00    +0.000 A 
ATOM     16  C   UNL     1       1.053   9.847  20.615  0.00  0.00    +0.000 A 
ATOM     17  C   UNL     1       1.179  10.626  19.459  0.00  0.00    +0.000 A 
ATOM     18  C   UNL     1       1.654  10.003  18.307  0.00  0.00    +0.000 A 
ATOM     19  C   UNL     1       1.981   8.636  18.315  0.00  0.00    +0.000 A 
BRANCH  14  21
ATOM     20  C   UNL     1       2.464   5.801  18.193  0.00  0.00    +0.000 C 
ATOM     21  N   UNL     1       2.182   6.478  19.453  0.00  0.00    +0.000 N 
ATOM     22  C   UNL     1       1.784   5.642  20.580  0.00  0.00    +0.000 C 
ENDBRANCH  14  21
ENDBRANCH   1  17
BRANCH  13  23
ATOM     23  N   UNL     1       2.925  13.431  19.285  0.00  0.00    +0.000 N 
ATOM     24  O   UNL     1       3.794  14.145  19.798  0.00  0.00    +0.000 OA
ATOM     25  O   UNL     1       2.940  13.029  18.115  0.00  0.00    +0.000 OA
ENDBRANCH  13  23
BRANCH   2  26
ATOM     26  C   UNL     1      -1.712  12.519  19.411  0.00  0.00    +0.000 C 
ATOM     27  O   UNL     1      -1.523  12.693  18.202  0.00  0.00    +0.000 OA
BRANCH  26  28
ATOM     28  C   UNL     1      -3.150  12.409  19.834  0.00  0.00    +0.000 A 
ATOM     29  C   UNL     1      -4.072  11.985  18.850  0.00  0.00    +0.000 A 
ATOM     30  C   UNL     1      -5.426  11.804  19.144  0.00  0.00    +0.000 A 
ATOM     31  C   UNL     1      -5.878  12.041  20.435  0.00  0.00    +0.000 A 
ATOM     32 CL   UNL     1      -7.536  11.805  20.817  0.00  0.00    +0.000 Cl
ATOM     33  C   UNL     1      -4.979  12.472  21.425  0.00  0.00    +0.000 A 
ATOM     34  C   UNL     1      -3.622  12.657  21.122  0.00  0.00    +0.000 A 
ENDBRANCH  26  28
ENDBRANCH   2  26
TORSDOF 5
ENDMDL
MODEL 8
REMARK VINA RESULT:      -6.2      0.597      1.176
REMARK  Name = 
REMARK  7 active torsions:
REMARK  status: ('A' for Active; 'I' for Inactive)
REMARK    1  A    between atoms: C_1  and  N_2
REMARK    2  A    between atoms: N_2  and  C_3
REMARK    3  A    between atoms: N_2  and  C_4
REMARK    4  A    between atoms: C_7  and  C_8
REMARK    5  A    between atoms: C_9  and  C_10
REMARK    6  A    between atoms: C_10  and  C_12
REMARK    7  A    between atoms: C_29  and  N_30
REMARK                            x       y       z     vdW  Elec       q    Type
REMARK                         _______ _______ _______ _____ _____    ______ ____
ROOT
ATOM      1  C   UNL     1       0.002  12.928  20.587  0.00  0.00    +0.000 C 
ATOM      2  C   UNL     1      -1.007  13.000  21.816  0.00  0.00    +0.000 C 
ATOM      3  N   UNL     1      -0.485  14.199  22.605  0.00  0.00    +0.000 N 
ATOM      4  C   UNL     1      -1.318  14.957  23.424  0.00  0.00    +0.000 A 
ATOM      5  C   UNL     1      -1.073  15.023  24.796  0.00  0.00    +0.000 A 
ATOM      6  C   UNL     1      -1.857  15.840  25.609  0.00  0.00    +0.000 A 
ATOM      7  C   UNL     1      -2.942  16.526  25.063  0.00  0.00    +0.000 A 
ATOM      8  C   UNL     1      -3.141  16.534  23.681  0.00  0.00    +0.000 A 
ATOM      9  C   UNL     1      -2.243  15.851  22.864  0.00  0.00    +0.000 A 
ATOM     10  C   UNL     1      -2.054  16.188  21.446  0.00  0.00    +0.000 C 
ATOM     11  C   UNL     1      -0.864  15.876  20.886  0.00  0.00    +0.000 C 
ATOM     12  C   UNL     1       0.217  15.079  21.629  0.00  0.00    +0.000 C 
ATOM     13  C   UNL     1       1.035  13.989  20.949  0.00  0.00    +0.000 C 
ENDROOT
BRANCH   1  17
ATOM     14  C   UNL     1       1.367   8.816  19.913  0.00  0.00    +0.000 A 
ATOM     15  C   UNL     1       0.952   9.288  21.166  0.00  0.00    +0.000 A 
ATOM     16  C   UNL     1       0.532  10.611  21.364  0.00  0.00    +0.000 A 
ATOM     17  C   UNL     1       0.488  11.523  20.304  0.00  0.00    +0.000 A 
ATOM     18  C   UNL     1       0.891  11.075  19.048  0.00  0.00    +0.000 A 
ATOM     19  C   UNL     1       1.315   9.748  18.863  0.00  0.00    +0.000 A 
BRANCH  14  21
ATOM     20  C   UNL     1       1.718   6.535  20.803  0.00  0.00    +0.000 C 
ATOM     21  N   UNL     1       1.781   7.500  19.711  0.00  0.00    +0.000 N 
ATOM     22  C   UNL     1       2.692   7.198  18.612  0.00  0.00    +0.000 C 
ENDBRANCH  14  21
ENDBRANCH   1  17
BRANCH  13  23
ATOM     23  N   UNL     1       1.828  14.507  19.808  0.00  0.00    +0.000 N 
ATOM     24  O   UNL     1       2.969  14.906  20.070  0.00  0.00    +0.000 OA
ATOM     25  O   UNL     1       1.311  14.532  18.685  0.00  0.00    +0.000 OA
ENDBRANCH  13  23
BRANCH   2  26
ATOM     26  C   UNL     1      -2.448  13.088  21.239  0.00  0.00    +0.000 C 
ATOM     27  O   UNL     1      -2.657  13.052  20.021  0.00  0.00    +0.000 OA
BRANCH  26  28
ATOM     28  C   UNL     1      -3.674  13.130  22.106  0.00  0.00    +0.000 A 
ATOM     29  C   UNL     1      -4.840  13.689  21.536  0.00  0.00    +0.000 A 
ATOM     30  C   UNL     1      -6.049  13.738  22.235  0.00  0.00    +0.000 A 
ATOM     31  C   UNL     1      -6.110  13.220  23.521  0.00  0.00    +0.000 A 
ATOM     32 CL   UNL     1      -7.593  13.254  24.387  0.00  0.00    +0.000 Cl
ATOM     33  C   UNL     1      -4.960  12.667  24.110  0.00  0.00    +0.000 A 
ATOM     34  C   UNL     1      -3.748  12.627  23.404  0.00  0.00    +0.000 A 
ENDBRANCH  26  28
ENDBRANCH   2  26
TORSDOF 5
ENDMDL
MODEL 9
REMARK VINA RESULT:      -6.2      2.673      3.607
REMARK  Name = 
REMARK  7 active torsions:
REMARK  status: ('A' for Active; 'I' for Inactive)
REMARK    1  A    between atoms: C_1  and  N_2
REMARK    2  A    between atoms: N_2  and  C_3
REMARK    3  A    between atoms: N_2  and  C_4
REMARK    4  A    between atoms: C_7  and  C_8
REMARK    5  A    between atoms: C_9  and  C_10
REMARK    6  A    between atoms: C_10  and  C_12
REMARK    7  A    between atoms: C_29  and  N_30
REMARK                            x       y       z     vdW  Elec       q    Type
REMARK                         _______ _______ _______ _____ _____    ______ ____
ROOT
ATOM      1  C   UNL     1       0.463  11.647  19.905  0.00  0.00    +0.000 C 
ATOM      2  C   UNL     1      -0.687  11.800  20.995  0.00  0.00    +0.000 C 
ATOM      3  N   UNL     1      -0.275  13.070  21.737  0.00  0.00    +0.000 N 
ATOM      4  C   UNL     1      -1.209  13.875  22.384  0.00  0.00    +0.000 A 
ATOM      5  C   UNL     1      -1.131  14.059  23.765  0.00  0.00    +0.000 A 
ATOM      6  C   UNL     1      -2.017  14.924  24.407  0.00  0.00    +0.000 A 
ATOM      7  C   UNL     1      -3.035  15.541  23.680  0.00  0.00    +0.000 A 
ATOM      8  C   UNL     1      -3.066  15.430  22.289  0.00  0.00    +0.000 A 
ATOM      9  C   UNL     1      -2.069  14.701  21.645  0.00  0.00    +0.000 A 
ATOM     10  C   UNL     1      -1.715  14.925  20.236  0.00  0.00    +0.000 C 
ATOM     11  C   UNL     1      -0.463  14.592  19.850  0.00  0.00    +0.000 C 
ATOM     12  C   UNL     1       0.529  13.881  20.781  0.00  0.00    +0.000 C 
ATOM     13  C   UNL     1       1.434  12.755  20.297  0.00  0.00    +0.000 C 
ENDROOT
BRANCH   1  17
ATOM     14  C   UNL     1       1.949   7.525  19.749  0.00  0.00    +0.000 A 
ATOM     15  C   UNL     1       1.426   8.106  20.913  0.00  0.00    +0.000 A 
ATOM     16  C   UNL     1       0.969   9.430  20.946  0.00  0.00    +0.000 A 
ATOM     17  C   UNL     1       0.994  10.234  19.801  0.00  0.00    +0.000 A 
ATOM     18  C   UNL     1       1.505   9.677  18.630  0.00  0.00    +0.000 A 
ATOM     19  C   UNL     1       1.965   8.349  18.611  0.00  0.00    +0.000 A 
BRANCH  14  21
ATOM     20  C   UNL     1       1.905   5.233  20.678  0.00  0.00    +0.000 C 
ATOM     21  N   UNL     1       2.400   6.206  19.711  0.00  0.00    +0.000 N 
ATOM     22  C   UNL     1       3.668   5.903  19.056  0.00  0.00    +0.000 C 
ENDBRANCH  14  21
ENDBRANCH   1  17
BRANCH  13  23
ATOM     23  N   UNL     1       2.354  13.194  19.219  0.00  0.00    +0.000 N 
ATOM     24  O   UNL     1       3.370  13.800  19.579  0.00  0.00    +0.000 OA
ATOM     25  O   UNL     1       2.052  12.954  18.044  0.00  0.00    +0.000 OA
ENDBRANCH  13  23
BRANCH   2  26
ATOM     26  C   UNL     1      -2.049  11.811  20.244  0.00  0.00    +0.000 C 
ATOM     27  O   UNL     1      -3.075  12.248  20.778  0.00  0.00    +0.000 OA
BRANCH  26  28
ATOM     28  C   UNL     1      -2.194  11.385  18.811  0.00  0.00    +0.000 A 
ATOM     29  C   UNL     1      -2.722  10.094  18.580  0.00  0.00    +0.000 A 
ATOM     30  C   UNL     1      -2.942   9.611  17.287  0.00  0.00    +0.000 A 
ATOM     31  C   UNL     1      -2.641  10.421  16.201  0.00  0.00    +0.000 A 
ATOM     32 CL   UNL     1      -2.924   9.851  14.606  0.00  0.00    +0.000 Cl
ATOM     33  C   UNL     1      -2.107  11.704  16.408  0.00  0.00    +0.000 A 
ATOM     34  C   UNL     1      -1.883  12.180  17.708  0.00  0.00    +0.000 A 
ENDBRANCH  26  28
ENDBRANCH   2  26
TORSDOF 5
ENDMDL
