MODEL 1
REMARK VINA RESULT:      -8.4      0.000      0.000
REMARK  Name = 
REMARK  5 active torsions:
REMARK  status: ('A' for Active; 'I' for Inactive)
REMARK    1  A    between atoms: C_1  and  C_2
REMARK    2  A    between atoms: C_2  and  C_3
REMARK    3  A    between atoms: C_8  and  N_9
REMARK    4  A    between atoms: C_14  and  N_15
REMARK    5  A    between atoms: C_22  and  O_23
REMARK                            x       y       z     vdW  Elec       q    Type
REMARK                         _______ _______ _______ _____ _____    ______ ____
ROOT
ATOM      1  C   UNL     1       3.150   2.593  20.342  0.00  0.00    +0.000 C 
ATOM      2  C   UNL     1       2.782   3.836  19.514  0.00  0.00    +0.000 C 
ATOM      3  C   UNL     1       1.513   3.542  18.673  0.00  0.00    +0.000 C 
ATOM      4  O   UNL     1       2.548   4.897  20.385  0.00  0.00    +0.000 OA
ATOM      5  C   UNL     1       2.342   6.160  19.933  0.00  0.00    +0.000 A 
ATOM      6  C   UNL     1       1.733   7.117  20.741  0.00  0.00    +0.000 A 
ATOM      7  C   UNL     1       1.445   8.386  20.240  0.00  0.00    +0.000 A 
ATOM      8  C   UNL     1       1.696   8.689  18.882  0.00  0.00    +0.000 A 
ATOM      9  C   UNL     1       2.327   7.721  18.087  0.00  0.00    +0.000 A 
ATOM     10  C   UNL     1       2.750   6.500  18.616  0.00  0.00    +0.000 A 
ATOM     11  C   UNL     1       3.655   5.560  17.822  0.00  0.00    +0.000 C 
ATOM     12  C   UNL     1       3.975   4.262  18.631  0.00  0.00    +0.000 C 
ENDROOT
BRANCH  11  13
ATOM     13  N   UNL     1       4.943   6.234  17.406  0.00  0.00    +0.000 NA
ATOM     14  C   UNL     1       5.243   6.524  15.975  0.00  0.00    +0.000 C 
ATOM     15  C   UNL     1       5.550   5.265  15.152  0.00  0.00    +0.000 C 
ATOM     16  C   UNL     1       6.947   4.672  15.392  0.00  0.00    +0.000 C 
ATOM     17  C   UNL     1       7.469   4.468  16.829  0.00  0.00    +0.000 C 
ATOM     18  C   UNL     1       7.453   5.740  17.694  0.00  0.00    +0.000 C 
ATOM     19  C   UNL     1       6.089   6.128  18.328  0.00  0.00    +0.000 C 
ENDBRANCH  11  13
BRANCH   8  20
ATOM     20  N   UNL     1       1.371   9.970  18.347  0.00  0.00    +0.000 N 
ATOM     21  O   UNL     1       2.202  10.637  17.814  0.00  0.00    +0.000 OA
ATOM     22  O   UNL     1       0.140  10.439  18.431  0.00  0.00    +0.000 OA
ENDBRANCH   8  20
BRANCH  12  23
ATOM     23  O   UNL     1       4.473   3.240  17.803  0.00  0.00    +0.000 OA
ATOM     24  H   UNL     1       5.294   2.881  18.228  0.00  0.00    +0.000 HD
ENDBRANCH  12  23
TORSDOF 3
ENDMDL
MODEL 2
REMARK VINA RESULT:      -7.4      1.882      4.393
REMARK  Name = 
REMARK  5 active torsions:
REMARK  status: ('A' for Active; 'I' for Inactive)
REMARK    1  A    between atoms: C_1  and  C_2
REMARK    2  A    between atoms: C_2  and  C_3
REMARK    3  A    between atoms: C_8  and  N_9
REMARK    4  A    between atoms: C_14  and  N_15
REMARK    5  A    between atoms: C_22  and  O_23
REMARK                            x       y       z     vdW  Elec       q    Type
REMARK                         _______ _______ _______ _____ _____    ______ ____
ROOT
ATOM      1  C   UNL     1       7.168   5.641  15.475  0.00  0.00    +0.000 C 
ATOM      2  C   UNL     1       6.381   5.883  16.774  0.00  0.00    +0.000 C 
ATOM      3  C   UNL     1       7.214   6.782  17.724  0.00  0.00    +0.000 C 
ATOM      4  O   UNL     1       5.177   6.505  16.455  0.00  0.00    +0.000 OA
ATOM      5  C   UNL     1       4.213   6.714  17.387  0.00  0.00    +0.000 A 
ATOM      6  C   UNL     1       3.209   7.657  17.177  0.00  0.00    +0.000 A 
ATOM      7  C   UNL     1       2.275   7.929  18.174  0.00  0.00    +0.000 A 
ATOM      8  C   UNL     1       2.383   7.307  19.440  0.00  0.00    +0.000 A 
ATOM      9  C   UNL     1       3.386   6.346  19.629  0.00  0.00    +0.000 A 
ATOM     10  C   UNL     1       4.238   5.962  18.591  0.00  0.00    +0.000 A 
ATOM     11  C   UNL     1       5.154   4.747  18.723  0.00  0.00    +0.000 C 
ATOM     12  C   UNL     1       6.008   4.537  17.431  0.00  0.00    +0.000 C 
ENDROOT
BRANCH  11  13
ATOM     13  N   UNL     1       4.378   3.487  19.034  0.00  0.00    +0.000 NA
ATOM     14  C   UNL     1       3.723   2.690  17.959  0.00  0.00    +0.000 C 
ATOM     15  C   UNL     1       2.495   3.384  17.352  0.00  0.00    +0.000 C 
ATOM     16  C   UNL     1       1.239   3.345  18.236  0.00  0.00    +0.000 C 
ATOM     17  C   UNL     1       1.329   3.709  19.732  0.00  0.00    +0.000 C 
ATOM     18  C   UNL     1       2.363   2.889  20.521  0.00  0.00    +0.000 C 
ATOM     19  C   UNL     1       3.844   3.343  20.402  0.00  0.00    +0.000 C 
ENDBRANCH  11  13
BRANCH   8  20
ATOM     20  N   UNL     1       1.456   7.605  20.481  0.00  0.00    +0.000 N 
ATOM     21  O   UNL     1       1.123   6.767  21.260  0.00  0.00    +0.000 OA
ATOM     22  O   UNL     1       0.952   8.819  20.604  0.00  0.00    +0.000 OA
ENDBRANCH   8  20
BRANCH  12  23
ATOM     23  O   UNL     1       7.102   3.685  17.662  0.00  0.00    +0.000 OA
ATOM     24  H   UNL     1       6.850   2.778  17.348  0.00  0.00    +0.000 HD
ENDBRANCH  12  23
TORSDOF 3
ENDMDL
MODEL 3
REMARK VINA RESULT:      -7.3      0.964      1.048
REMARK  Name = 
REMARK  5 active torsions:
REMARK  status: ('A' for Active; 'I' for Inactive)
REMARK    1  A    between atoms: C_1  and  C_2
REMARK    2  A    between atoms: C_2  and  C_3
REMARK    3  A    between atoms: C_8  and  N_9
REMARK    4  A    between atoms: C_14  and  N_15
REMARK    5  A    between atoms: C_22  and  O_23
REMARK                            x       y       z     vdW  Elec       q    Type
REMARK                         _______ _______ _______ _____ _____    ______ ____
ROOT
ATOM      1  C   UNL     1       2.294   2.739  21.454  0.00  0.00    +0.000 C 
ATOM      2  C   UNL     1       2.182   3.928  20.484  0.00  0.00    +0.000 C 
ATOM      3  C   UNL     1       1.094   3.629  19.421  0.00  0.00    +0.000 C 
ATOM      4  O   UNL     1       1.846   5.066  21.212  0.00  0.00    +0.000 OA
ATOM      5  C   UNL     1       1.818   6.296  20.641  0.00  0.00    +0.000 A 
ATOM      6  C   UNL     1       1.120   7.345  21.237  0.00  0.00    +0.000 A 
ATOM      7  C   UNL     1       1.022   8.581  20.601  0.00  0.00    +0.000 A 
ATOM      8  C   UNL     1       1.563   8.761  19.307  0.00  0.00    +0.000 A 
ATOM      9  C   UNL     1       2.278   7.702  18.729  0.00  0.00    +0.000 A 
ATOM     10  C   UNL     1       2.505   6.508  19.417  0.00  0.00    +0.000 A 
ATOM     11  C   UNL     1       3.490   5.464  18.894  0.00  0.00    +0.000 C 
ATOM     12  C   UNL     1       3.554   4.222  19.840  0.00  0.00    +0.000 C 
ENDROOT
BRANCH  11  13
ATOM     13  N   UNL     1       4.876   6.039  18.708  0.00  0.00    +0.000 NA
ATOM     14  C   UNL     1       5.196   6.947  17.572  0.00  0.00    +0.000 C 
ATOM     15  C   UNL     1       5.231   6.232  16.213  0.00  0.00    +0.000 C 
ATOM     16  C   UNL     1       6.487   5.382  15.973  0.00  0.00    +0.000 C 
ATOM     17  C   UNL     1       6.990   4.411  17.060  0.00  0.00    +0.000 C 
ATOM     18  C   UNL     1       7.245   5.070  18.427  0.00  0.00    +0.000 C 
ATOM     19  C   UNL     1       5.999   5.306  19.324  0.00  0.00    +0.000 C 
ENDBRANCH  11  13
BRANCH   8  20
ATOM     20  N   UNL     1       1.436  10.008  18.630  0.00  0.00    +0.000 N 
ATOM     21  O   UNL     1       2.039  10.220  17.624  0.00  0.00    +0.000 OA
ATOM     22  O   UNL     1       0.644  10.952  19.104  0.00  0.00    +0.000 OA
ENDBRANCH   8  20
BRANCH  12  23
ATOM     23  O   UNL     1       4.143   3.113  19.206  0.00  0.00    +0.000 OA
ATOM     24  H   UNL     1       3.451   2.406  19.130  0.00  0.00    +0.000 HD
ENDBRANCH  12  23
TORSDOF 3
ENDMDL
MODEL 4
REMARK VINA RESULT:      -7.3      2.066      4.245
REMARK  Name = 
REMARK  5 active torsions:
REMARK  status: ('A' for Active; 'I' for Inactive)
REMARK    1  A    between atoms: C_1  and  C_2
REMARK    2  A    between atoms: C_2  and  C_3
REMARK    3  A    between atoms: C_8  and  N_9
REMARK    4  A    between atoms: C_14  and  N_15
REMARK    5  A    between atoms: C_22  and  O_23
REMARK                            x       y       z     vdW  Elec       q    Type
REMARK                         _______ _______ _______ _____ _____    ______ ____
ROOT
ATOM      1  C   UNL     1       5.221   6.278  15.533  0.00  0.00    +0.000 C 
ATOM      2  C   UNL     1       4.683   6.589  16.940  0.00  0.00    +0.000 C 
ATOM      3  C   UNL     1       5.791   7.276  17.779  0.00  0.00    +0.000 C 
ATOM      4  O   UNL     1       3.580   7.430  16.818  0.00  0.00    +0.000 OA
ATOM      5  C   UNL     1       2.811   7.759  17.886  0.00  0.00    +0.000 A 
ATOM      6  C   UNL     1       1.977   8.874  17.850  0.00  0.00    +0.000 A 
ATOM      7  C   UNL     1       1.258   9.256  18.980  0.00  0.00    +0.000 A 
ATOM      8  C   UNL     1       1.427   8.562  20.201  0.00  0.00    +0.000 A 
ATOM      9  C   UNL     1       2.254   7.430  20.216  0.00  0.00    +0.000 A 
ATOM     10  C   UNL     1       2.867   6.954  19.055  0.00  0.00    +0.000 A 
ATOM     11  C   UNL     1       3.554   5.590  19.020  0.00  0.00    +0.000 C 
ATOM     12  C   UNL     1       4.165   5.299  17.611  0.00  0.00    +0.000 C 
ENDROOT
BRANCH  11  13
ATOM     13  N   UNL     1       2.613   4.474  19.410  0.00  0.00    +0.000 NA
ATOM     14  C   UNL     1       2.985   3.467  20.444  0.00  0.00    +0.000 C 
ATOM     15  C   UNL     1       4.070   2.487  19.975  0.00  0.00    +0.000 C 
ATOM     16  C   UNL     1       3.574   1.404  19.006  0.00  0.00    +0.000 C 
ATOM     17  C   UNL     1       2.690   1.783  17.801  0.00  0.00    +0.000 C 
ATOM     18  C   UNL     1       1.415   2.560  18.171  0.00  0.00    +0.000 C 
ATOM     19  C   UNL     1       1.583   4.084  18.428  0.00  0.00    +0.000 C 
ENDBRANCH  11  13
BRANCH   8  20
ATOM     20  N   UNL     1       0.726   8.966  21.374  0.00  0.00    +0.000 N 
ATOM     21  O   UNL     1      -0.372   8.561  21.599  0.00  0.00    +0.000 OA
ATOM     22  O   UNL     1       1.284   9.795  22.237  0.00  0.00    +0.000 OA
ENDBRANCH   8  20
BRANCH  12  23
ATOM     23  O   UNL     1       5.107   4.255  17.657  0.00  0.00    +0.000 OA
ATOM     24  H   UNL     1       5.977   4.645  17.930  0.00  0.00    +0.000 HD
ENDBRANCH  12  23
TORSDOF 3
ENDMDL
MODEL 5
REMARK VINA RESULT:      -7.2      1.997      4.546
REMARK  Name = 
REMARK  5 active torsions:
REMARK  status: ('A' for Active; 'I' for Inactive)
REMARK    1  A    between atoms: C_1  and  C_2
REMARK    2  A    between atoms: C_2  and  C_3
REMARK    3  A    between atoms: C_8  and  N_9
REMARK    4  A    between atoms: C_14  and  N_15
REMARK    5  A    between atoms: C_22  and  O_23
REMARK                            x       y       z     vdW  Elec       q    Type
REMARK                         _______ _______ _______ _____ _____    ______ ____
ROOT
ATOM      1  C   UNL     1       5.160   5.923  15.774  0.00  0.00    +0.000 C 
ATOM      2  C   UNL     1       4.515   6.369  17.097  0.00  0.00    +0.000 C 
ATOM      3  C   UNL     1       5.621   6.806  18.092  0.00  0.00    +0.000 C 
ATOM      4  O   UNL     1       3.655   7.433  16.837  0.00  0.00    +0.000 OA
ATOM      5  C   UNL     1       2.838   7.942  17.793  0.00  0.00    +0.000 A 
ATOM      6  C   UNL     1       2.287   9.214  17.658  0.00  0.00    +0.000 A 
ATOM      7  C   UNL     1       1.522   9.765  18.684  0.00  0.00    +0.000 A 
ATOM      8  C   UNL     1       1.362   9.071  19.906  0.00  0.00    +0.000 A 
ATOM      9  C   UNL     1       1.906   7.783  20.018  0.00  0.00    +0.000 A 
ATOM     10  C   UNL     1       2.552   7.164  18.946  0.00  0.00    +0.000 A 
ATOM     11  C   UNL     1       2.916   5.681  18.986  0.00  0.00    +0.000 C 
ATOM     12  C   UNL     1       3.635   5.238  17.671  0.00  0.00    +0.000 C 
ENDROOT
BRANCH  11  13
ATOM     13  N   UNL     1       1.705   4.809  19.226  0.00  0.00    +0.000 NA
ATOM     14  C   UNL     1       1.187   4.557  20.601  0.00  0.00    +0.000 C 
ATOM     15  C   UNL     1       2.099   3.647  21.436  0.00  0.00    +0.000 C 
ATOM     16  C   UNL     1       2.026   2.158  21.065  0.00  0.00    +0.000 C 
ATOM     17  C   UNL     1       2.101   1.719  19.589  0.00  0.00    +0.000 C 
ATOM     18  C   UNL     1       1.052   2.379  18.679  0.00  0.00    +0.000 C 
ATOM     19  C   UNL     1       1.370   3.818  18.186  0.00  0.00    +0.000 C 
ENDBRANCH  11  13
BRANCH   8  20
ATOM     20  N   UNL     1       0.613   9.640  20.977  0.00  0.00    +0.000 N 
ATOM     21  O   UNL     1      -0.418   9.156  21.325  0.00  0.00    +0.000 OA
ATOM     22  O   UNL     1       1.053  10.715  21.606  0.00  0.00    +0.000 OA
ENDBRANCH   8  20
BRANCH  12  23
ATOM     23  O   UNL     1       4.305   4.012  17.832  0.00  0.00    +0.000 OA
ATOM     24  H   UNL     1       5.219   4.116  17.461  0.00  0.00    +0.000 HD
ENDBRANCH  12  23
TORSDOF 3
ENDMDL
MODEL 6
REMARK VINA RESULT:      -6.6      1.424      2.199
REMARK  Name = 
REMARK  5 active torsions:
REMARK  status: ('A' for Active; 'I' for Inactive)
REMARK    1  A    between atoms: C_1  and  C_2
REMARK    2  A    between atoms: C_2  and  C_3
REMARK    3  A    between atoms: C_8  and  N_9
REMARK    4  A    between atoms: C_14  and  N_15
REMARK    5  A    between atoms: C_22  and  O_23
REMARK                            x       y       z     vdW  Elec       q    Type
REMARK                         _______ _______ _______ _____ _____    ______ ____
ROOT
ATOM      1  C   UNL     1       2.224   1.833  21.554  0.00  0.00    +0.000 C 
ATOM      2  C   UNL     1       2.056   2.883  20.444  0.00  0.00    +0.000 C 
ATOM      3  C   UNL     1       0.634   2.772  19.835  0.00  0.00    +0.000 C 
ATOM      4  O   UNL     1       2.247   4.148  20.994  0.00  0.00    +0.000 OA
ATOM      5  C   UNL     1       2.300   5.262  20.222  0.00  0.00    +0.000 A 
ATOM      6  C   UNL     1       2.096   6.525  20.774  0.00  0.00    +0.000 A 
ATOM      7  C   UNL     1       2.064   7.656  19.961  0.00  0.00    +0.000 A 
ATOM      8  C   UNL     1       2.159   7.526  18.556  0.00  0.00    +0.000 A 
ATOM      9  C   UNL     1       2.382   6.251  18.017  0.00  0.00    +0.000 A 
ATOM     10  C   UNL     1       2.559   5.130  18.832  0.00  0.00    +0.000 A 
ATOM     11  C   UNL     1       3.051   3.802  18.261  0.00  0.00    +0.000 C 
ATOM     12  C   UNL     1       3.157   2.711  19.375  0.00  0.00    +0.000 C 
ENDROOT
BRANCH  11  13
ATOM     13  N   UNL     1       4.382   3.947  17.559  0.00  0.00    +0.000 NA
ATOM     14  C   UNL     1       5.639   4.203  18.317  0.00  0.00    +0.000 C 
ATOM     15  C   UNL     1       5.713   5.618  18.909  0.00  0.00    +0.000 C 
ATOM     16  C   UNL     1       6.029   6.720  17.887  0.00  0.00    +0.000 C 
ATOM     17  C   UNL     1       5.269   6.781  16.547  0.00  0.00    +0.000 C 
ATOM     18  C   UNL     1       5.335   5.483  15.724  0.00  0.00    +0.000 C 
ATOM     19  C   UNL     1       4.356   4.349  16.139  0.00  0.00    +0.000 C 
ENDBRANCH  11  13
BRANCH   8  20
ATOM     20  N   UNL     1       2.089   8.671  17.710  0.00  0.00    +0.000 N 
ATOM     21  O   UNL     1       2.972   8.924  16.952  0.00  0.00    +0.000 OA
ATOM     22  O   UNL     1       1.040   9.471  17.750  0.00  0.00    +0.000 OA
ENDBRANCH   8  20
BRANCH  12  23
ATOM     23  O   UNL     1       3.234   1.416  18.830  0.00  0.00    +0.000 OA
ATOM     24  H   UNL     1       3.558   0.808  19.544  0.00  0.00    +0.000 HD
ENDBRANCH  12  23
TORSDOF 3
ENDMDL
MODEL 7
REMARK VINA RESULT:      -6.6      3.334      6.580
REMARK  Name = 
REMARK  5 active torsions:
REMARK  status: ('A' for Active; 'I' for Inactive)
REMARK    1  A    between atoms: C_1  and  C_2
REMARK    2  A    between atoms: C_2  and  C_3
REMARK    3  A    between atoms: C_8  and  N_9
REMARK    4  A    between atoms: C_14  and  N_15
REMARK    5  A    between atoms: C_22  and  O_23
REMARK                            x       y       z     vdW  Elec       q    Type
REMARK                         _______ _______ _______ _____ _____    ______ ____
ROOT
ATOM      1  C   UNL     1       7.650   6.280  18.799  0.00  0.00    +0.000 C 
ATOM      2  C   UNL     1       6.716   5.978  17.615  0.00  0.00    +0.000 C 
ATOM      3  C   UNL     1       6.201   7.308  17.008  0.00  0.00    +0.000 C 
ATOM      4  O   UNL     1       7.426   5.255  16.661  0.00  0.00    +0.000 OA
ATOM      5  C   UNL     1       6.820   4.725  15.569  0.00  0.00    +0.000 A 
ATOM      6  C   UNL     1       7.561   4.358  14.448  0.00  0.00    +0.000 A 
ATOM      7  C   UNL     1       6.923   3.897  13.298  0.00  0.00    +0.000 A 
ATOM      8  C   UNL     1       5.510   3.871  13.229  0.00  0.00    +0.000 A 
ATOM      9  C   UNL     1       4.780   4.224  14.373  0.00  0.00    +0.000 A 
ATOM     10  C   UNL     1       5.411   4.550  15.575  0.00  0.00    +0.000 A 
ATOM     11  C   UNL     1       4.622   4.686  16.876  0.00  0.00    +0.000 C 
ATOM     12  C   UNL     1       5.558   5.063  18.070  0.00  0.00    +0.000 C 
ENDROOT
BRANCH  11  13
ATOM     13  N   UNL     1       3.855   3.425  17.205  0.00  0.00    +0.000 NA
ATOM     14  C   UNL     1       2.378   3.343  17.026  0.00  0.00    +0.000 C 
ATOM     15  C   UNL     1       1.596   4.175  18.053  0.00  0.00    +0.000 C 
ATOM     16  C   UNL     1       1.525   3.554  19.456  0.00  0.00    +0.000 C 
ATOM     17  C   UNL     1       2.800   3.004  20.128  0.00  0.00    +0.000 C 
ATOM     18  C   UNL     1       3.550   1.951  19.295  0.00  0.00    +0.000 C 
ATOM     19  C   UNL     1       4.472   2.491  18.166  0.00  0.00    +0.000 C 
ENDBRANCH  11  13
BRANCH   8  20
ATOM     20  N   UNL     1       4.845   3.437  12.046  0.00  0.00    +0.000 N 
ATOM     21  O   UNL     1       4.010   4.115  11.533  0.00  0.00    +0.000 OA
ATOM     22  O   UNL     1       5.146   2.276  11.494  0.00  0.00    +0.000 OA
ENDBRANCH   8  20
BRANCH  12  23
ATOM     23  O   UNL     1       4.829   5.557  19.167  0.00  0.00    +0.000 OA
ATOM     24  H   UNL     1       4.810   4.847  19.860  0.00  0.00    +0.000 HD
ENDBRANCH  12  23
TORSDOF 3
ENDMDL
MODEL 8
REMARK VINA RESULT:      -6.3      2.515      5.672
REMARK  Name = 
REMARK  5 active torsions:
REMARK  status: ('A' for Active; 'I' for Inactive)
REMARK    1  A    between atoms: C_1  and  C_2
REMARK    2  A    between atoms: C_2  and  C_3
REMARK    3  A    between atoms: C_8  and  N_9
REMARK    4  A    between atoms: C_14  and  N_15
REMARK    5  A    between atoms: C_22  and  O_23
REMARK                            x       y       z     vdW  Elec       q    Type
REMARK                         _______ _______ _______ _____ _____    ______ ____
ROOT
ATOM      1  C   UNL     1       2.146   7.912  19.955  0.00  0.00    +0.000 C 
ATOM      2  C   UNL     1       2.655   7.133  18.730  0.00  0.00    +0.000 C 
ATOM      3  C   UNL     1       1.890   7.599  17.464  0.00  0.00    +0.000 C 
ATOM      4  O   UNL     1       4.019   7.374  18.586  0.00  0.00    +0.000 OA
ATOM      5  C   UNL     1       4.769   6.706  17.673  0.00  0.00    +0.000 A 
ATOM      6  C   UNL     1       6.002   7.205  17.260  0.00  0.00    +0.000 A 
ATOM      7  C   UNL     1       6.726   6.560  16.259  0.00  0.00    +0.000 A 
ATOM      8  C   UNL     1       6.180   5.437  15.595  0.00  0.00    +0.000 A 
ATOM      9  C   UNL     1       4.946   4.936  16.036  0.00  0.00    +0.000 A 
ATOM     10  C   UNL     1       4.280   5.488  17.132  0.00  0.00    +0.000 A 
ATOM     11  C   UNL     1       3.076   4.791  17.764  0.00  0.00    +0.000 C 
ATOM     12  C   UNL     1       2.511   5.614  18.966  0.00  0.00    +0.000 C 
ENDROOT
BRANCH  11  13
ATOM     13  N   UNL     1       3.410   3.387  18.217  0.00  0.00    +0.000 NA
ATOM     14  C   UNL     1       2.484   2.247  17.966  0.00  0.00    +0.000 C 
ATOM     15  C   UNL     1       1.211   2.300  18.823  0.00  0.00    +0.000 C 
ATOM     16  C   UNL     1       1.414   1.897  20.291  0.00  0.00    +0.000 C 
ATOM     17  C   UNL     1       2.586   2.482  21.104  0.00  0.00    +0.000 C 
ATOM     18  C   UNL     1       3.968   2.265  20.466  0.00  0.00    +0.000 C 
ATOM     19  C   UNL     1       4.368   3.247  19.330  0.00  0.00    +0.000 C 
ENDBRANCH  11  13
BRANCH   8  20
ATOM     20  N   UNL     1       6.893   4.792  14.544  0.00  0.00    +0.000 N 
ATOM     21  O   UNL     1       6.522   3.748  14.106  0.00  0.00    +0.000 OA
ATOM     22  O   UNL     1       7.978   5.344  14.032  0.00  0.00    +0.000 OA
ENDBRANCH   8  20
BRANCH  12  23
ATOM     23  O   UNL     1       1.210   5.205  19.312  0.00  0.00    +0.000 OA
ATOM     24  H   UNL     1       0.979   5.635  20.176  0.00  0.00    +0.000 HD
ENDBRANCH  12  23
TORSDOF 3
ENDMDL
MODEL 9
REMARK VINA RESULT:      -6.1      5.238      8.067
REMARK  Name = 
REMARK  5 active torsions:
REMARK  status: ('A' for Active; 'I' for Inactive)
REMARK    1  A    between atoms: C_1  and  C_2
REMARK    2  A    between atoms: C_2  and  C_3
REMARK    3  A    between atoms: C_8  and  N_9
REMARK    4  A    between atoms: C_14  and  N_15
REMARK    5  A    between atoms: C_22  and  O_23
REMARK                            x       y       z     vdW  Elec       q    Type
REMARK                         _______ _______ _______ _____ _____    ______ ____
ROOT
ATOM      1  C   UNL     1       2.059   9.302  18.128  0.00  0.00    +0.000 C 
ATOM      2  C   UNL     1       1.031  10.202  18.832  0.00  0.00    +0.000 C 
ATOM      3  C   UNL     1      -0.317  10.147  18.068  0.00  0.00    +0.000 C 
ATOM      4  O   UNL     1       0.863   9.750  20.139  0.00  0.00    +0.000 OA
ATOM      5  C   UNL     1       0.122  10.437  21.043  0.00  0.00    +0.000 A 
ATOM      6  C   UNL     1      -0.364   9.813  22.190  0.00  0.00    +0.000 A 
ATOM      7  C   UNL     1      -1.198  10.501  23.070  0.00  0.00    +0.000 A 
ATOM      8  C   UNL     1      -1.625  11.815  22.767  0.00  0.00    +0.000 A 
ATOM      9  C   UNL     1      -1.112  12.435  21.618  0.00  0.00    +0.000 A 
ATOM     10  C   UNL     1      -0.165  11.808  20.806  0.00  0.00    +0.000 A 
ATOM     11  C   UNL     1       0.576  12.573  19.712  0.00  0.00    +0.000 C 
ATOM     12  C   UNL     1       1.572  11.644  18.945  0.00  0.00    +0.000 C 
ENDROOT
BRANCH  11  13
ATOM     13  N   UNL     1       1.314  13.772  20.262  0.00  0.00    +0.000 NA
ATOM     14  C   UNL     1       0.895  15.164  19.932  0.00  0.00    +0.000 C 
ATOM     15  C   UNL     1       1.189  15.557  18.477  0.00  0.00    +0.000 C 
ATOM     16  C   UNL     1       2.666  15.864  18.187  0.00  0.00    +0.000 C 
ATOM     17  C   UNL     1       3.771  14.907  18.677  0.00  0.00    +0.000 C 
ATOM     18  C   UNL     1       3.742  14.629  20.189  0.00  0.00    +0.000 C 
ATOM     19  C   UNL     1       2.715  13.570  20.678  0.00  0.00    +0.000 C 
ENDBRANCH  11  13
BRANCH   8  20
ATOM     20  N   UNL     1      -2.508  12.515  23.639  0.00  0.00    +0.000 N 
ATOM     21  O   UNL     1      -2.260  13.624  23.996  0.00  0.00    +0.000 OA
ATOM     22  O   UNL     1      -3.622  11.947  24.064  0.00  0.00    +0.000 OA
ENDBRANCH   8  20
BRANCH  12  23
ATOM     23  O   UNL     1       1.973  12.207  17.720  0.00  0.00    +0.000 OA
ATOM     24  H   UNL     1       2.922  11.962  17.572  0.00  0.00    +0.000 HD
ENDBRANCH  12  23
TORSDOF 3
ENDMDL
