MODEL 1
REMARK VINA RESULT:      -8.9      0.000      0.000
REMARK  Name = 
REMARK  10 active torsions:
REMARK  status: ('A' for Active; 'I' for Inactive)
REMARK    1  A    between atoms: C_1  and  O_2
REMARK    2  A    between atoms: O_2  and  C_3
REMARK    3  A    between atoms: C_6  and  C_7
REMARK    4  A    between atoms: C_7  and  C_8
REMARK    5  A    between atoms: C_8  and  C_9
REMARK    6  A    between atoms: N_14  and  S_15
REMARK    7  A    between atoms: S_15  and  C_18
REMARK    8  A    between atoms: C_21  and  O_22
REMARK    9  A    between atoms: O_22  and  C_23
REMARK   10  A    between atoms: C_24  and  N_25
REMARK                            x       y       z     vdW  Elec       q    Type
REMARK                         _______ _______ _______ _____ _____    ______ ____
ROOT
ATOM      1  C   UNL     1       1.582   7.708  20.389  0.00  0.00    +0.000 C 
ATOM      2  O   UNL     1       1.175   7.897  21.537  0.00  0.00    +0.000 OA
ATOM      3  N   UNL     1       1.858   6.432  19.911  0.00  0.00    +0.000 N 
ATOM      4  C   UNL     1       1.654   5.286  20.808  0.00  0.00    +0.000 C 
ATOM      5  C   UNL     1       1.121   4.057  20.049  0.00  0.00    +0.000 C 
ATOM      6  N   UNL     1       1.949   3.720  18.844  0.00  0.00    +0.000 NA
ATOM      7  C   UNL     1       2.051   4.923  17.953  0.00  0.00    +0.000 C 
ATOM      8  C   UNL     1       2.633   6.132  18.696  0.00  0.00    +0.000 C 
ENDROOT
BRANCH   6   9
ATOM      9  S   UNL     1       3.431   2.921  19.108  0.00  0.00    +0.000 S 
ATOM     10  O   UNL     1       3.836   3.178  20.470  0.00  0.00    +0.000 OA
ATOM     11  O   UNL     1       3.322   1.568  18.607  0.00  0.00    +0.000 OA
BRANCH   9  12
ATOM     12  C   UNL     1       4.581   3.796  18.073  0.00  0.00    +0.000 A 
ATOM     13  C   UNL     1       4.532   3.649  16.686  0.00  0.00    +0.000 A 
ATOM     14  C   UNL     1       5.539   4.220  15.900  0.00  0.00    +0.000 A 
ATOM     15  C   UNL     1       6.608   4.952  16.457  0.00  0.00    +0.000 A 
ATOM     16  C   UNL     1       6.621   5.093  17.851  0.00  0.00    +0.000 A 
ATOM     17  C   UNL     1       5.621   4.511  18.659  0.00  0.00    +0.000 A 
BRANCH  16  18
ATOM     18  N   UNL     1       7.618   5.853  18.566  0.00  0.00    +0.000 N 
ATOM     19  O   UNL     1       7.831   7.016  18.196  0.00  0.00    +0.000 OA
ATOM     20  O   UNL     1       8.240   5.260  19.460  0.00  0.00    +0.000 OA
ENDBRANCH  16  18
BRANCH  15  21
ATOM     21  O   UNL     1       7.433   5.409  15.474  0.00  0.00    +0.000 OA
ATOM     22  C   UNL     1       7.273   5.065  14.109  0.00  0.00    +0.000 C 
ENDBRANCH  15  21
ENDBRANCH   9  12
ENDBRANCH   6   9
BRANCH   1  23
ATOM     23  C   UNL     1       1.674   8.854  19.400  0.00  0.00    +0.000 C 
BRANCH  23  24
ATOM     24  C   UNL     1       1.039  10.132  19.939  0.00  0.00    +0.000 C 
BRANCH  24  28
ATOM     25  C   UNL     1      -2.530  11.116  17.714  0.00  0.00    +0.000 A 
ATOM     26  C   UNL     1      -1.626  10.174  17.221  0.00  0.00    +0.000 A 
ATOM     27  C   UNL     1      -0.482   9.841  17.949  0.00  0.00    +0.000 A 
ATOM     28  C   UNL     1      -0.222  10.458  19.177  0.00  0.00    +0.000 A 
ATOM     29  C   UNL     1      -1.118  11.422  19.656  0.00  0.00    +0.000 A 
ATOM     30  C   UNL     1      -2.268  11.748  18.928  0.00  0.00    +0.000 A 
BRANCH  25  32
ATOM     31  C   UNL     1      -3.623  10.675  15.666  0.00  0.00    +0.000 C 
ATOM     32  O   UNL     1      -3.605  11.369  16.908  0.00  0.00    +0.000 OA
ENDBRANCH  25  32
ENDBRANCH  24  28
ENDBRANCH  23  24
ENDBRANCH   1  23
TORSDOF 8
ENDMDL
MODEL 2
REMARK VINA RESULT:      -8.7      0.426      1.094
REMARK  Name = 
REMARK  10 active torsions:
REMARK  status: ('A' for Active; 'I' for Inactive)
REMARK    1  A    between atoms: C_1  and  O_2
REMARK    2  A    between atoms: O_2  and  C_3
REMARK    3  A    between atoms: C_6  and  C_7
REMARK    4  A    between atoms: C_7  and  C_8
REMARK    5  A    between atoms: C_8  and  C_9
REMARK    6  A    between atoms: N_14  and  S_15
REMARK    7  A    between atoms: S_15  and  C_18
REMARK    8  A    between atoms: C_21  and  O_22
REMARK    9  A    between atoms: O_22  and  C_23
REMARK   10  A    between atoms: C_24  and  N_25
REMARK                            x       y       z     vdW  Elec       q    Type
REMARK                         _______ _______ _______ _____ _____    ______ ____
ROOT
ATOM      1  C   UNL     1       1.607   7.765  20.329  0.00  0.00    +0.000 C 
ATOM      2  O   UNL     1       1.205   7.975  21.475  0.00  0.00    +0.000 OA
ATOM      3  N   UNL     1       1.877   6.480  19.872  0.00  0.00    +0.000 N 
ATOM      4  C   UNL     1       1.672   5.351  20.790  0.00  0.00    +0.000 C 
ATOM      5  C   UNL     1       1.132   4.110  20.054  0.00  0.00    +0.000 C 
ATOM      6  N   UNL     1       1.954   3.750  18.851  0.00  0.00    +0.000 NA
ATOM      7  C   UNL     1       2.057   4.937  17.939  0.00  0.00    +0.000 C 
ATOM      8  C   UNL     1       2.646   6.157  18.660  0.00  0.00    +0.000 C 
ENDROOT
BRANCH   6   9
ATOM      9  S   UNL     1       3.434   2.950  19.124  0.00  0.00    +0.000 S 
ATOM     10  O   UNL     1       3.849   3.234  20.477  0.00  0.00    +0.000 OA
ATOM     11  O   UNL     1       3.316   1.588  18.653  0.00  0.00    +0.000 OA
BRANCH   9  12
ATOM     12  C   UNL     1       4.582   3.797  18.064  0.00  0.00    +0.000 A 
ATOM     13  C   UNL     1       4.523   3.623  16.680  0.00  0.00    +0.000 A 
ATOM     14  C   UNL     1       5.528   4.172  15.876  0.00  0.00    +0.000 A 
ATOM     15  C   UNL     1       6.604   4.909  16.411  0.00  0.00    +0.000 A 
ATOM     16  C   UNL     1       6.626   5.079  17.801  0.00  0.00    +0.000 A 
ATOM     17  C   UNL     1       5.629   4.519  18.628  0.00  0.00    +0.000 A 
BRANCH  16  18
ATOM     18  N   UNL     1       7.632   5.849  18.493  0.00  0.00    +0.000 N 
ATOM     19  O   UNL     1       8.205   5.317  19.455  0.00  0.00    +0.000 OA
ATOM     20  O   UNL     1       7.803   7.017  18.114  0.00  0.00    +0.000 OA
ENDBRANCH  16  18
BRANCH  15  21
ATOM     21  O   UNL     1       7.424   5.342  15.413  0.00  0.00    +0.000 OA
ATOM     22  C   UNL     1       7.235   4.997  14.052  0.00  0.00    +0.000 C 
ENDBRANCH  15  21
ENDBRANCH   9  12
ENDBRANCH   6   9
BRANCH   1  23
ATOM     23  C   UNL     1       1.700   8.893  19.320  0.00  0.00    +0.000 C 
BRANCH  23  24
ATOM     24  C   UNL     1       1.154  10.207  19.873  0.00  0.00    +0.000 C 
BRANCH  24  28
ATOM     25  C   UNL     1      -2.506  11.294  17.854  0.00  0.00    +0.000 A 
ATOM     26  C   UNL     1      -2.063  12.024  18.958  0.00  0.00    +0.000 A 
ATOM     27  C   UNL     1      -0.870  11.685  19.599  0.00  0.00    +0.000 A 
ATOM     28  C   UNL     1      -0.110  10.601  19.149  0.00  0.00    +0.000 A 
ATOM     29  C   UNL     1      -0.571   9.854  18.058  0.00  0.00    +0.000 A 
ATOM     30  C   UNL     1      -1.763  10.201  17.412  0.00  0.00    +0.000 A 
BRANCH  25  32
ATOM     31  C   UNL     1      -4.808  10.858  17.549  0.00  0.00    +0.000 C 
ATOM     32  O   UNL     1      -3.692  11.711  17.318  0.00  0.00    +0.000 OA
ENDBRANCH  25  32
ENDBRANCH  24  28
ENDBRANCH  23  24
ENDBRANCH   1  23
TORSDOF 8
ENDMDL
MODEL 3
REMARK VINA RESULT:      -8.3      1.993      2.696
REMARK  Name = 
REMARK  10 active torsions:
REMARK  status: ('A' for Active; 'I' for Inactive)
REMARK    1  A    between atoms: C_1  and  O_2
REMARK    2  A    between atoms: O_2  and  C_3
REMARK    3  A    between atoms: C_6  and  C_7
REMARK    4  A    between atoms: C_7  and  C_8
REMARK    5  A    between atoms: C_8  and  C_9
REMARK    6  A    between atoms: N_14  and  S_15
REMARK    7  A    between atoms: S_15  and  C_18
REMARK    8  A    between atoms: C_21  and  O_22
REMARK    9  A    between atoms: O_22  and  C_23
REMARK   10  A    between atoms: C_24  and  N_25
REMARK                            x       y       z     vdW  Elec       q    Type
REMARK                         _______ _______ _______ _____ _____    ______ ____
ROOT
ATOM      1  C   UNL     1       1.714   7.753  20.287  0.00  0.00    +0.000 C 
ATOM      2  O   UNL     1       1.340   7.982  21.439  0.00  0.00    +0.000 OA
ATOM      3  N   UNL     1       1.957   6.459  19.839  0.00  0.00    +0.000 N 
ATOM      4  C   UNL     1       1.757   5.343  20.775  0.00  0.00    +0.000 C 
ATOM      5  C   UNL     1       1.184   4.102  20.065  0.00  0.00    +0.000 C 
ATOM      6  N   UNL     1       1.976   3.717  18.850  0.00  0.00    +0.000 NA
ATOM      7  C   UNL     1       2.075   4.892  17.922  0.00  0.00    +0.000 C 
ATOM      8  C   UNL     1       2.696   6.112  18.615  0.00  0.00    +0.000 C 
ENDROOT
BRANCH   6   9
ATOM      9  S   UNL     1       3.451   2.900  19.100  0.00  0.00    +0.000 S 
ATOM     10  O   UNL     1       3.871   3.151  20.458  0.00  0.00    +0.000 OA
ATOM     11  O   UNL     1       3.322   1.550  18.599  0.00  0.00    +0.000 OA
BRANCH   9  12
ATOM     12  C   UNL     1       4.602   3.763  18.055  0.00  0.00    +0.000 A 
ATOM     13  C   UNL     1       4.546   3.610  16.670  0.00  0.00    +0.000 A 
ATOM     14  C   UNL     1       5.553   4.171  15.876  0.00  0.00    +0.000 A 
ATOM     15  C   UNL     1       6.629   4.898  16.425  0.00  0.00    +0.000 A 
ATOM     16  C   UNL     1       6.649   5.045  17.817  0.00  0.00    +0.000 A 
ATOM     17  C   UNL     1       5.649   4.474  18.633  0.00  0.00    +0.000 A 
BRANCH  16  18
ATOM     18  N   UNL     1       7.655   5.803  18.524  0.00  0.00    +0.000 N 
ATOM     19  O   UNL     1       8.226   5.254  19.476  0.00  0.00    +0.000 OA
ATOM     20  O   UNL     1       7.826   6.977  18.165  0.00  0.00    +0.000 OA
ENDBRANCH  16  18
BRANCH  15  21
ATOM     21  O   UNL     1       7.452   5.345  15.435  0.00  0.00    +0.000 OA
ATOM     22  C   UNL     1       7.268   5.017  14.070  0.00  0.00    +0.000 C 
ENDBRANCH  15  21
ENDBRANCH   9  12
ENDBRANCH   6   9
BRANCH   1  23
ATOM     23  C   UNL     1       1.800   8.868  19.263  0.00  0.00    +0.000 C 
BRANCH  23  24
ATOM     24  C   UNL     1       0.593   9.800  19.325  0.00  0.00    +0.000 C 
BRANCH  24  28
ATOM     25  C   UNL     1       1.767  13.906  18.676  0.00  0.00    +0.000 A 
ATOM     26  C   UNL     1       0.644  13.605  19.448  0.00  0.00    +0.000 A 
ATOM     27  C   UNL     1       0.275  12.277  19.674  0.00  0.00    +0.000 A 
ATOM     28  C   UNL     1       1.021  11.233  19.119  0.00  0.00    +0.000 A 
ATOM     29  C   UNL     1       2.133  11.540  18.324  0.00  0.00    +0.000 A 
ATOM     30  C   UNL     1       2.504  12.870  18.105  0.00  0.00    +0.000 A 
BRANCH  25  32
ATOM     31  C   UNL     1       1.859  16.046  19.675  0.00  0.00    +0.000 C 
ATOM     32  O   UNL     1       2.022  15.239  18.514  0.00  0.00    +0.000 OA
ENDBRANCH  25  32
ENDBRANCH  24  28
ENDBRANCH  23  24
ENDBRANCH   1  23
TORSDOF 8
ENDMDL
MODEL 4
REMARK VINA RESULT:      -8.2      1.139      1.974
REMARK  Name = 
REMARK  10 active torsions:
REMARK  status: ('A' for Active; 'I' for Inactive)
REMARK    1  A    between atoms: C_1  and  O_2
REMARK    2  A    between atoms: O_2  and  C_3
REMARK    3  A    between atoms: C_6  and  C_7
REMARK    4  A    between atoms: C_7  and  C_8
REMARK    5  A    between atoms: C_8  and  C_9
REMARK    6  A    between atoms: N_14  and  S_15
REMARK    7  A    between atoms: S_15  and  C_18
REMARK    8  A    between atoms: C_21  and  O_22
REMARK    9  A    between atoms: O_22  and  C_23
REMARK   10  A    between atoms: C_24  and  N_25
REMARK                            x       y       z     vdW  Elec       q    Type
REMARK                         _______ _______ _______ _____ _____    ______ ____
ROOT
ATOM      1  C   UNL     1       1.508   7.635  20.268  0.00  0.00    +0.000 C 
ATOM      2  O   UNL     1       0.912   7.711  21.343  0.00  0.00    +0.000 OA
ATOM      3  N   UNL     1       1.913   6.414  19.739  0.00  0.00    +0.000 N 
ATOM      4  C   UNL     1       1.612   5.189  20.493  0.00  0.00    +0.000 C 
ATOM      5  C   UNL     1       1.263   4.016  19.558  0.00  0.00    +0.000 C 
ATOM      6  N   UNL     1       2.291   3.810  18.484  0.00  0.00    +0.000 NA
ATOM      7  C   UNL     1       2.486   5.089  17.724  0.00  0.00    +0.000 C 
ATOM      8  C   UNL     1       2.888   6.244  18.650  0.00  0.00    +0.000 C 
ENDROOT
BRANCH   6   9
ATOM      9  S   UNL     1       3.742   3.033  18.925  0.00  0.00    +0.000 S 
ATOM     10  O   UNL     1       3.863   3.102  20.362  0.00  0.00    +0.000 OA
ATOM     11  O   UNL     1       3.815   1.764  18.233  0.00  0.00    +0.000 OA
BRANCH   9  12
ATOM     12  C   UNL     1       5.012   4.088  18.267  0.00  0.00    +0.000 A 
ATOM     13  C   UNL     1       5.588   5.076  19.065  0.00  0.00    +0.000 A 
ATOM     14  C   UNL     1       6.472   5.995  18.488  0.00  0.00    +0.000 A 
ATOM     15  C   UNL     1       6.812   5.958  17.120  0.00  0.00    +0.000 A 
ATOM     16  C   UNL     1       6.228   4.945  16.349  0.00  0.00    +0.000 A 
ATOM     17  C   UNL     1       5.324   4.019  16.913  0.00  0.00    +0.000 A 
BRANCH  16  18
ATOM     18  N   UNL     1       6.515   4.744  14.949  0.00  0.00    +0.000 N 
ATOM     19  O   UNL     1       5.828   3.917  14.333  0.00  0.00    +0.000 OA
ATOM     20  O   UNL     1       7.477   5.369  14.479  0.00  0.00    +0.000 OA
ENDBRANCH  16  18
BRANCH  15  21
ATOM     21  O   UNL     1       7.699   6.950  16.826  0.00  0.00    +0.000 OA
ATOM     22  C   UNL     1       7.821   8.132  17.596  0.00  0.00    +0.000 C 
ENDBRANCH  15  21
ENDBRANCH   9  12
ENDBRANCH   6   9
BRANCH   1  23
ATOM     23  C   UNL     1       1.713   8.865  19.404  0.00  0.00    +0.000 C 
BRANCH  23  24
ATOM     24  C   UNL     1       0.998  10.090  19.970  0.00  0.00    +0.000 C 
BRANCH  24  28
ATOM     25  C   UNL     1      -2.527  10.999  17.645  0.00  0.00    +0.000 A 
ATOM     26  C   UNL     1      -1.583  10.088  17.171  0.00  0.00    +0.000 A 
ATOM     27  C   UNL     1      -0.452   9.780  17.931  0.00  0.00    +0.000 A 
ATOM     28  C   UNL     1      -0.248  10.389  19.172  0.00  0.00    +0.000 A 
ATOM     29  C   UNL     1      -1.185  11.323  19.633  0.00  0.00    +0.000 A 
ATOM     30  C   UNL     1      -2.320  11.625  18.874  0.00  0.00    +0.000 A 
BRANCH  25  32
ATOM     31  C   UNL     1      -3.458  10.705  15.495  0.00  0.00    +0.000 C 
ATOM     32  O   UNL     1      -3.584  11.232  16.810  0.00  0.00    +0.000 OA
ENDBRANCH  25  32
ENDBRANCH  24  28
ENDBRANCH  23  24
ENDBRANCH   1  23
TORSDOF 8
ENDMDL
MODEL 5
REMARK VINA RESULT:      -8.2      1.194      1.738
REMARK  Name = 
REMARK  10 active torsions:
REMARK  status: ('A' for Active; 'I' for Inactive)
REMARK    1  A    between atoms: C_1  and  O_2
REMARK    2  A    between atoms: O_2  and  C_3
REMARK    3  A    between atoms: C_6  and  C_7
REMARK    4  A    between atoms: C_7  and  C_8
REMARK    5  A    between atoms: C_8  and  C_9
REMARK    6  A    between atoms: N_14  and  S_15
REMARK    7  A    between atoms: S_15  and  C_18
REMARK    8  A    between atoms: C_21  and  O_22
REMARK    9  A    between atoms: O_22  and  C_23
REMARK   10  A    between atoms: C_24  and  N_25
REMARK                            x       y       z     vdW  Elec       q    Type
REMARK                         _______ _______ _______ _____ _____    ______ ____
ROOT
ATOM      1  C   UNL     1       1.582   7.990  20.443  0.00  0.00    +0.000 C 
ATOM      2  O   UNL     1       1.076   8.048  21.565  0.00  0.00    +0.000 OA
ATOM      3  N   UNL     1       1.981   6.782  19.882  0.00  0.00    +0.000 N 
ATOM      4  C   UNL     1       1.787   5.549  20.658  0.00  0.00    +0.000 C 
ATOM      5  C   UNL     1       1.399   4.363  19.755  0.00  0.00    +0.000 C 
ATOM      6  N   UNL     1       2.338   4.189  18.597  0.00  0.00    +0.000 NA
ATOM      7  C   UNL     1       2.426   5.472  17.824  0.00  0.00    +0.000 C 
ATOM      8  C   UNL     1       2.865   6.642  18.714  0.00  0.00    +0.000 C 
ENDROOT
BRANCH   6   9
ATOM      9  S   UNL     1       3.847   3.462  18.913  0.00  0.00    +0.000 S 
ATOM     10  O   UNL     1       4.306   3.934  20.198  0.00  0.00    +0.000 OA
ATOM     11  O   UNL     1       3.744   2.046  18.635  0.00  0.00    +0.000 OA
BRANCH   9  12
ATOM     12  C   UNL     1       4.932   4.179  17.702  0.00  0.00    +0.000 A 
ATOM     13  C   UNL     1       5.003   3.643  16.416  0.00  0.00    +0.000 A 
ATOM     14  C   UNL     1       5.972   4.121  15.526  0.00  0.00    +0.000 A 
ATOM     15  C   UNL     1       6.884   5.137  15.878  0.00  0.00    +0.000 A 
ATOM     16  C   UNL     1       6.777   5.664  17.171  0.00  0.00    +0.000 A 
ATOM     17  C   UNL     1       5.815   5.184  18.085  0.00  0.00    +0.000 A 
BRANCH  16  18
ATOM     18  N   UNL     1       7.603   6.741  17.663  0.00  0.00    +0.000 N 
ATOM     19  O   UNL     1       8.165   6.584  18.756  0.00  0.00    +0.000 OA
ATOM     20  O   UNL     1       7.636   7.777  16.983  0.00  0.00    +0.000 OA
ENDBRANCH  16  18
BRANCH  15  21
ATOM     21  O   UNL     1       7.703   5.423  14.827  0.00  0.00    +0.000 OA
ATOM     22  C   UNL     1       7.446   4.985  13.505  0.00  0.00    +0.000 C 
ENDBRANCH  15  21
ENDBRANCH   9  12
ENDBRANCH   6   9
BRANCH   1  23
ATOM     23  C   UNL     1       1.671   9.224  19.567  0.00  0.00    +0.000 C 
BRANCH  23  24
ATOM     24  C   UNL     1       0.492   9.332  18.603  0.00  0.00    +0.000 C 
BRANCH  24  28
ATOM     25  C   UNL     1      -2.326  12.302  19.979  0.00  0.00    +0.000 A 
ATOM     26  C   UNL     1      -2.548  11.617  18.784  0.00  0.00    +0.000 A 
ATOM     27  C   UNL     1      -1.647  10.643  18.348  0.00  0.00    +0.000 A 
ATOM     28  C   UNL     1      -0.505  10.351  19.100  0.00  0.00    +0.000 A 
ATOM     29  C   UNL     1      -0.272  11.059  20.286  0.00  0.00    +0.000 A 
ATOM     30  C   UNL     1      -1.180  12.029  20.724  0.00  0.00    +0.000 A 
BRANCH  25  32
ATOM     31  C   UNL     1      -4.257  12.831  21.233  0.00  0.00    +0.000 C 
ATOM     32  O   UNL     1      -3.268  13.241  20.296  0.00  0.00    +0.000 OA
ENDBRANCH  25  32
ENDBRANCH  24  28
ENDBRANCH  23  24
ENDBRANCH   1  23
TORSDOF 8
ENDMDL
MODEL 6
REMARK VINA RESULT:      -8.1      1.857      2.449
REMARK  Name = 
REMARK  10 active torsions:
REMARK  status: ('A' for Active; 'I' for Inactive)
REMARK    1  A    between atoms: C_1  and  O_2
REMARK    2  A    between atoms: O_2  and  C_3
REMARK    3  A    between atoms: C_6  and  C_7
REMARK    4  A    between atoms: C_7  and  C_8
REMARK    5  A    between atoms: C_8  and  C_9
REMARK    6  A    between atoms: N_14  and  S_15
REMARK    7  A    between atoms: S_15  and  C_18
REMARK    8  A    between atoms: C_21  and  O_22
REMARK    9  A    between atoms: O_22  and  C_23
REMARK   10  A    between atoms: C_24  and  N_25
REMARK                            x       y       z     vdW  Elec       q    Type
REMARK                         _______ _______ _______ _____ _____    ______ ____
ROOT
ATOM      1  C   UNL     1       2.046   7.815  19.529  0.00  0.00    +0.000 C 
ATOM      2  O   UNL     1       1.897   8.308  20.648  0.00  0.00    +0.000 OA
ATOM      3  N   UNL     1       2.112   6.439  19.338  0.00  0.00    +0.000 N 
ATOM      4  C   UNL     1       1.997   5.561  20.511  0.00  0.00    +0.000 C 
ATOM      5  C   UNL     1       1.220   4.273  20.183  0.00  0.00    +0.000 C 
ATOM      6  N   UNL     1       1.756   3.569  18.971  0.00  0.00    +0.000 NA
ATOM      7  C   UNL     1       1.777   4.517  17.808  0.00  0.00    +0.000 C 
ATOM      8  C   UNL     1       2.597   5.776  18.117  0.00  0.00    +0.000 C 
ENDROOT
BRANCH   6   9
ATOM      9  S   UNL     1       3.188   2.664  19.157  0.00  0.00    +0.000 S 
ATOM     10  O   UNL     1       3.602   2.768  20.537  0.00  0.00    +0.000 OA
ATOM     11  O   UNL     1       3.003   1.373  18.533  0.00  0.00    +0.000 OA
BRANCH   9  12
ATOM     12  C   UNL     1       4.392   3.563  18.208  0.00  0.00    +0.000 A 
ATOM     13  C   UNL     1       4.468   3.392  16.825  0.00  0.00    +0.000 A 
ATOM     14  C   UNL     1       5.518   3.987  16.117  0.00  0.00    +0.000 A 
ATOM     15  C   UNL     1       6.508   4.767  16.749  0.00  0.00    +0.000 A 
ATOM     16  C   UNL     1       6.395   4.931  18.135  0.00  0.00    +0.000 A 
ATOM     17  C   UNL     1       5.351   4.326  18.866  0.00  0.00    +0.000 A 
BRANCH  16  18
ATOM     18  N   UNL     1       7.300   5.740  18.917  0.00  0.00    +0.000 N 
ATOM     19  O   UNL     1       7.841   6.705  18.359  0.00  0.00    +0.000 OA
ATOM     20  O   UNL     1       7.521   5.368  20.079  0.00  0.00    +0.000 OA
ENDBRANCH  16  18
BRANCH  15  21
ATOM     21  O   UNL     1       7.397   5.237  15.830  0.00  0.00    +0.000 OA
ATOM     22  C   UNL     1       7.284   4.981  14.442  0.00  0.00    +0.000 C 
ENDBRANCH  15  21
ENDBRANCH   9  12
ENDBRANCH   6   9
BRANCH   1  23
ATOM     23  C   UNL     1       2.032   8.687  18.288  0.00  0.00    +0.000 C 
BRANCH  23  24
ATOM     24  C   UNL     1       0.714   9.438  18.128  0.00  0.00    +0.000 C 
BRANCH  24  28
ATOM     25  C   UNL     1       0.523  12.652  21.008  0.00  0.00    +0.000 A 
ATOM     26  C   UNL     1       1.557  12.601  20.073  0.00  0.00    +0.000 A 
ATOM     27  C   UNL     1       1.608  11.573  19.129  0.00  0.00    +0.000 A 
ATOM     28  C   UNL     1       0.629  10.575  19.118  0.00  0.00    +0.000 A 
ATOM     29  C   UNL     1      -0.392  10.614  20.076  0.00  0.00    +0.000 A 
ATOM     30  C   UNL     1      -0.446  11.649  21.015  0.00  0.00    +0.000 A 
BRANCH  25  32
ATOM     31  C   UNL     1       0.416  14.991  21.324  0.00  0.00    +0.000 C 
ATOM     32  O   UNL     1       0.584  13.696  21.888  0.00  0.00    +0.000 OA
ENDBRANCH  25  32
ENDBRANCH  24  28
ENDBRANCH  23  24
ENDBRANCH   1  23
TORSDOF 8
ENDMDL
MODEL 7
REMARK VINA RESULT:      -8.0      1.496      2.516
REMARK  Name = 
REMARK  10 active torsions:
REMARK  status: ('A' for Active; 'I' for Inactive)
REMARK    1  A    between atoms: C_1  and  O_2
REMARK    2  A    between atoms: O_2  and  C_3
REMARK    3  A    between atoms: C_6  and  C_7
REMARK    4  A    between atoms: C_7  and  C_8
REMARK    5  A    between atoms: C_8  and  C_9
REMARK    6  A    between atoms: N_14  and  S_15
REMARK    7  A    between atoms: S_15  and  C_18
REMARK    8  A    between atoms: C_21  and  O_22
REMARK    9  A    between atoms: O_22  and  C_23
REMARK   10  A    between atoms: C_24  and  N_25
REMARK                            x       y       z     vdW  Elec       q    Type
REMARK                         _______ _______ _______ _____ _____    ______ ____
ROOT
ATOM      1  C   UNL     1       1.856   7.764  20.028  0.00  0.00    +0.000 C 
ATOM      2  O   UNL     1       1.351   7.958  21.135  0.00  0.00    +0.000 OA
ATOM      3  N   UNL     1       2.157   6.484  19.575  0.00  0.00    +0.000 N 
ATOM      4  C   UNL     1       1.858   5.341  20.449  0.00  0.00    +0.000 C 
ATOM      5  C   UNL     1       1.378   4.119  19.644  0.00  0.00    +0.000 C 
ATOM      6  N   UNL     1       2.306   3.771  18.517  0.00  0.00    +0.000 NA
ATOM      7  C   UNL     1       2.503   4.973  17.640  0.00  0.00    +0.000 C 
ATOM      8  C   UNL     1       3.033   6.174  18.434  0.00  0.00    +0.000 C 
ENDROOT
BRANCH   6   9
ATOM      9  S   UNL     1       3.748   2.953  18.911  0.00  0.00    +0.000 S 
ATOM     10  O   UNL     1       3.894   2.978  20.347  0.00  0.00    +0.000 OA
ATOM     11  O   UNL     1       3.784   1.703  18.183  0.00  0.00    +0.000 OA
BRANCH   9  12
ATOM     12  C   UNL     1       5.029   4.001  18.262  0.00  0.00    +0.000 A 
ATOM     13  C   UNL     1       5.705   4.887  19.102  0.00  0.00    +0.000 A 
ATOM     14  C   UNL     1       6.598   5.811  18.547  0.00  0.00    +0.000 A 
ATOM     15  C   UNL     1       6.851   5.878  17.162  0.00  0.00    +0.000 A 
ATOM     16  C   UNL     1       6.167   4.965  16.348  0.00  0.00    +0.000 A 
ATOM     17  C   UNL     1       5.253   4.037  16.890  0.00  0.00    +0.000 A 
BRANCH  16  18
ATOM     18  N   UNL     1       6.355   4.875  14.920  0.00  0.00    +0.000 N 
ATOM     19  O   UNL     1       5.429   4.405  14.245  0.00  0.00    +0.000 OA
ATOM     20  O   UNL     1       7.463   5.215  14.478  0.00  0.00    +0.000 OA
ENDBRANCH  16  18
BRANCH  15  21
ATOM     21  O   UNL     1       7.768   6.849  16.895  0.00  0.00    +0.000 OA
ATOM     22  C   UNL     1       7.797   8.093  17.571  0.00  0.00    +0.000 C 
ENDBRANCH  15  21
ENDBRANCH   9  12
ENDBRANCH   6   9
BRANCH   1  23
ATOM     23  C   UNL     1       2.051   8.908  19.052  0.00  0.00    +0.000 C 
BRANCH  23  24
ATOM     24  C   UNL     1       0.861   9.070  18.110  0.00  0.00    +0.000 C 
BRANCH  24  28
ATOM     25  C   UNL     1      -1.751  12.199  19.539  0.00  0.00    +0.000 A 
ATOM     26  C   UNL     1      -0.466  12.056  20.063  0.00  0.00    +0.000 A 
ATOM     27  C   UNL     1       0.386  11.057  19.588  0.00  0.00    +0.000 A 
ATOM     28  C   UNL     1      -0.044  10.179  18.588  0.00  0.00    +0.000 A 
ATOM     29  C   UNL     1      -1.345  10.308  18.084  0.00  0.00    +0.000 A 
ATOM     30  C   UNL     1      -2.193  11.315  18.556  0.00  0.00    +0.000 A 
BRANCH  25  32
ATOM     31  C   UNL     1      -3.655  12.789  20.808  0.00  0.00    +0.000 C 
ATOM     32  O   UNL     1      -2.498  13.202  20.091  0.00  0.00    +0.000 OA
ENDBRANCH  25  32
ENDBRANCH  24  28
ENDBRANCH  23  24
ENDBRANCH   1  23
TORSDOF 8
ENDMDL
MODEL 8
REMARK VINA RESULT:      -8.0      4.802     11.196
REMARK  Name = 
REMARK  10 active torsions:
REMARK  status: ('A' for Active; 'I' for Inactive)
REMARK    1  A    between atoms: C_1  and  O_2
REMARK    2  A    between atoms: O_2  and  C_3
REMARK    3  A    between atoms: C_6  and  C_7
REMARK    4  A    between atoms: C_7  and  C_8
REMARK    5  A    between atoms: C_8  and  C_9
REMARK    6  A    between atoms: N_14  and  S_15
REMARK    7  A    between atoms: S_15  and  C_18
REMARK    8  A    between atoms: C_21  and  O_22
REMARK    9  A    between atoms: O_22  and  C_23
REMARK   10  A    between atoms: C_24  and  N_25
REMARK                            x       y       z     vdW  Elec       q    Type
REMARK                         _______ _______ _______ _____ _____    ______ ____
ROOT
ATOM      1  C   UNL     1       1.951   9.747  18.010  0.00  0.00    +0.000 C 
ATOM      2  O   UNL     1       2.602  10.426  17.215  0.00  0.00    +0.000 OA
ATOM      3  N   UNL     1       1.116  10.328  18.958  0.00  0.00    +0.000 N 
ATOM      4  C   UNL     1       1.016  11.794  19.000  0.00  0.00    +0.000 C 
ATOM      5  C   UNL     1      -0.413  12.257  19.340  0.00  0.00    +0.000 C 
ATOM      6  N   UNL     1      -0.957  11.594  20.571  0.00  0.00    +0.000 NA
ATOM      7  C   UNL     1      -0.878  10.104  20.415  0.00  0.00    +0.000 C 
ATOM      8  C   UNL     1       0.557   9.638  20.131  0.00  0.00    +0.000 C 
ENDROOT
BRANCH   6   9
ATOM      9  S   UNL     1      -0.407  12.167  22.079  0.00  0.00    +0.000 S 
ATOM     10  O   UNL     1      -0.280  11.033  22.965  0.00  0.00    +0.000 OA
ATOM     11  O   UNL     1       0.706  13.062  21.855  0.00  0.00    +0.000 OA
BRANCH   9  12
ATOM     12  C   UNL     1      -1.768  13.129  22.696  0.00  0.00    +0.000 A 
ATOM     13  C   UNL     1      -1.545  14.392  23.244  0.00  0.00    +0.000 A 
ATOM     14  C   UNL     1      -2.603  15.068  23.863  0.00  0.00    +0.000 A 
ATOM     15  C   UNL     1      -3.900  14.522  23.949  0.00  0.00    +0.000 A 
ATOM     16  C   UNL     1      -4.094  13.259  23.376  0.00  0.00    +0.000 A 
ATOM     17  C   UNL     1      -3.035  12.558  22.761  0.00  0.00    +0.000 A 
BRANCH  16  18
ATOM     18  N   UNL     1      -5.373  12.590  23.339  0.00  0.00    +0.000 N 
ATOM     19  O   UNL     1      -5.902  12.419  22.232  0.00  0.00    +0.000 OA
ATOM     20  O   UNL     1      -5.881  12.293  24.430  0.00  0.00    +0.000 OA
ENDBRANCH  16  18
BRANCH  15  21
ATOM     21  O   UNL     1      -4.737  15.390  24.583  0.00  0.00    +0.000 OA
ATOM     22  C   UNL     1      -5.550  16.322  23.894  0.00  0.00    +0.000 C 
ENDBRANCH  15  21
ENDBRANCH   9  12
ENDBRANCH   6   9
BRANCH   1  23
ATOM     23  C   UNL     1       1.929   8.234  17.902  0.00  0.00    +0.000 C 
BRANCH  23  24
ATOM     24  C   UNL     1       3.332   7.645  17.794  0.00  0.00    +0.000 C 
BRANCH  24  28
ATOM     25  C   UNL     1       3.167   3.335  17.549  0.00  0.00    +0.000 A 
ATOM     26  C   UNL     1       2.093   4.056  18.073  0.00  0.00    +0.000 A 
ATOM     27  C   UNL     1       2.139   5.450  18.135  0.00  0.00    +0.000 A 
ATOM     28  C   UNL     1       3.267   6.141  17.682  0.00  0.00    +0.000 A 
ATOM     29  C   UNL     1       4.354   5.413  17.181  0.00  0.00    +0.000 A 
ATOM     30  C   UNL     1       4.303   4.017  17.113  0.00  0.00    +0.000 A 
BRANCH  25  32
ATOM     31  C   UNL     1       3.663   1.285  18.612  0.00  0.00    +0.000 C 
ATOM     32  O   UNL     1       3.015   1.977  17.551  0.00  0.00    +0.000 OA
ENDBRANCH  25  32
ENDBRANCH  24  28
ENDBRANCH  23  24
ENDBRANCH   1  23
TORSDOF 8
ENDMDL
MODEL 9
REMARK VINA RESULT:      -7.9      4.260     11.051
REMARK  Name = 
REMARK  10 active torsions:
REMARK  status: ('A' for Active; 'I' for Inactive)
REMARK    1  A    between atoms: C_1  and  O_2
REMARK    2  A    between atoms: O_2  and  C_3
REMARK    3  A    between atoms: C_6  and  C_7
REMARK    4  A    between atoms: C_7  and  C_8
REMARK    5  A    between atoms: C_8  and  C_9
REMARK    6  A    between atoms: N_14  and  S_15
REMARK    7  A    between atoms: S_15  and  C_18
REMARK    8  A    between atoms: C_21  and  O_22
REMARK    9  A    between atoms: O_22  and  C_23
REMARK   10  A    between atoms: C_24  and  N_25
REMARK                            x       y       z     vdW  Elec       q    Type
REMARK                         _______ _______ _______ _____ _____    ______ ____
ROOT
ATOM      1  C   UNL     1       2.047   8.582  18.525  0.00  0.00    +0.000 C 
ATOM      2  O   UNL     1       2.252   8.924  17.359  0.00  0.00    +0.000 OA
ATOM      3  N   UNL     1       1.126   9.243  19.330  0.00  0.00    +0.000 N 
ATOM      4  C   UNL     1       0.383  10.377  18.762  0.00  0.00    +0.000 C 
ATOM      5  C   UNL     1      -1.066  10.425  19.281  0.00  0.00    +0.000 C 
ATOM      6  N   UNL     1      -1.145  10.360  20.778  0.00  0.00    +0.000 NA
ATOM      7  C   UNL     1      -0.419   9.141  21.267  0.00  0.00    +0.000 C 
ATOM      8  C   UNL     1       1.040   9.122  20.794  0.00  0.00    +0.000 C 
ENDROOT
BRANCH   6   9
ATOM      9  S   UNL     1      -0.781  11.782  21.646  0.00  0.00    +0.000 S 
ATOM     10  O   UNL     1      -0.053  11.401  22.834  0.00  0.00    +0.000 OA
ATOM     11  O   UNL     1      -0.244  12.760  20.726  0.00  0.00    +0.000 OA
BRANCH   9  12
ATOM     12  C   UNL     1      -2.367  12.364  22.199  0.00  0.00    +0.000 A 
ATOM     13  C   UNL     1      -2.684  12.356  23.558  0.00  0.00    +0.000 A 
ATOM     14  C   UNL     1      -3.987  12.671  23.960  0.00  0.00    +0.000 A 
ATOM     15  C   UNL     1      -5.000  13.007  23.039  0.00  0.00    +0.000 A 
ATOM     16  C   UNL     1      -4.646  13.021  21.684  0.00  0.00    +0.000 A 
ATOM     17  C   UNL     1      -3.340  12.692  21.261  0.00  0.00    +0.000 A 
BRANCH  16  18
ATOM     18  N   UNL     1      -5.555  13.393  20.627  0.00  0.00    +0.000 N 
ATOM     19  O   UNL     1      -6.474  12.609  20.354  0.00  0.00    +0.000 OA
ATOM     20  O   UNL     1      -5.308  14.446  20.020  0.00  0.00    +0.000 OA
ENDBRANCH  16  18
BRANCH  15  21
ATOM     21  O   UNL     1      -6.163  13.284  23.694  0.00  0.00    +0.000 OA
ATOM     22  C   UNL     1      -7.205  12.339  23.851  0.00  0.00    +0.000 C 
ENDBRANCH  15  21
ENDBRANCH   9  12
ENDBRANCH   6   9
BRANCH   1  23
ATOM     23  C   UNL     1       2.696   7.336  19.095  0.00  0.00    +0.000 C 
BRANCH  23  24
ATOM     24  C   UNL     1       2.264   6.073  18.356  0.00  0.00    +0.000 C 
BRANCH  24  28
ATOM     25  C   UNL     1       5.569   4.357  16.166  0.00  0.00    +0.000 A 
ATOM     26  C   UNL     1       5.461   5.740  16.316  0.00  0.00    +0.000 A 
ATOM     27  C   UNL     1       4.404   6.294  17.040  0.00  0.00    +0.000 A 
ATOM     28  C   UNL     1       3.432   5.469  17.614  0.00  0.00    +0.000 A 
ATOM     29  C   UNL     1       3.529   4.082  17.439  0.00  0.00    +0.000 A 
ATOM     30  C   UNL     1       4.593   3.529  16.720  0.00  0.00    +0.000 A 
BRANCH  25  32
ATOM     31  C   UNL     1       7.012   4.774  14.343  0.00  0.00    +0.000 C 
ATOM     32  O   UNL     1       6.637   3.932  15.426  0.00  0.00    +0.000 OA
ENDBRANCH  25  32
ENDBRANCH  24  28
ENDBRANCH  23  24
ENDBRANCH   1  23
TORSDOF 8
ENDMDL
