MODEL 1
REMARK VINA RESULT:      -6.7      0.000      0.000
REMARK  Name = 
REMARK  9 active torsions:
REMARK  status: ('A' for Active; 'I' for Inactive)
REMARK    1  A    between atoms: C_1  and  O_2
REMARK    2  A    between atoms: O_2  and  C_3
REMARK    3  A    between atoms: C_3  and  C_4
REMARK    4  A    between atoms: C_4  and  C_5
REMARK    5  A    between atoms: C_5  and  C_6
REMARK    6  A    between atoms: C_5  and  N_7
REMARK    7  A    between atoms: N_14  and  C_15
REMARK    8  A    between atoms: C_15  and  C_16
REMARK    9  A    between atoms: C_16  and  C_17
REMARK                            x       y       z     vdW  Elec       q    Type
REMARK                         _______ _______ _______ _____ _____    ______ ____
ROOT
ATOM      1  N   UNL     1       5.612   4.414  17.093  0.00  0.00    +0.000 NA
ATOM      2  C   UNL     1       5.780   4.176  18.524  0.00  0.00    +0.000 C 
ATOM      3  C   UNL     1       5.100   5.221  19.402  0.00  0.00    +0.000 C 
ATOM      4  C   UNL     1       3.643   5.464  18.995  0.00  0.00    +0.000 C 
ATOM      5  C   UNL     1       3.369   5.434  17.482  0.00  0.00    +0.000 C 
ATOM      6  C   UNL     1       4.199   4.404  16.730  0.00  0.00    +0.000 C 
ATOM      7  C   UNL     1       3.101   6.755  19.597  0.00  0.00    +0.000 C 
ATOM      8  N   UNL     1       2.073   6.324  20.487  0.00  0.00    +0.000 N 
ATOM      9  C   UNL     1       1.917   4.959  20.422  0.00  0.00    +0.000 C 
ATOM     10  O   UNL     1       1.058   4.297  20.981  0.00  0.00    +0.000 OA
ATOM     11  O   UNL     1       2.860   4.415  19.606  0.00  0.00    +0.000 OA
ENDROOT
BRANCH   1  12
ATOM     12  C   UNL     1       6.455   5.422  16.426  0.00  0.00    +0.000 C 
ATOM     13  C   UNL     1       7.382   6.292  17.287  0.00  0.00    +0.000 C 
BRANCH  12  14
ATOM     14  C   UNL     1       7.302   4.784  15.303  0.00  0.00    +0.000 C 
BRANCH  14  15
ATOM     15  C   UNL     1       6.617   4.881  13.942  0.00  0.00    +0.000 C 
BRANCH  15  17
ATOM     16  C   UNL     1       6.366   3.348  12.183  0.00  0.00    +0.000 C 
ATOM     17  O   UNL     1       6.184   3.572  13.574  0.00  0.00    +0.000 OA
ENDBRANCH  15  17
ENDBRANCH  14  15
ENDBRANCH  12  14
ENDBRANCH   1  12
BRANCH   8  18
ATOM     18  C   UNL     1       1.005   7.232  20.871  0.00  0.00    +0.000 C 
BRANCH  18  19
ATOM     19  C   UNL     1       1.170   8.657  20.345  0.00  0.00    +0.000 C 
BRANCH  19  20
ATOM     20  C   UNL     1       0.422   9.641  21.208  0.00  0.00    +0.000 A 
ATOM     21  C   UNL     1      -0.165   9.222  22.410  0.00  0.00    +0.000 A 
ATOM     22  C   UNL     1      -0.869  10.127  23.207  0.00  0.00    +0.000 A 
ATOM     23  C   UNL     1      -0.998  11.451  22.801  0.00  0.00    +0.000 A 
ATOM     24  C   UNL     1      -0.431  11.876  21.602  0.00  0.00    +0.000 A 
ATOM     25  C   UNL     1       0.273  10.974  20.804  0.00  0.00    +0.000 A 
ENDBRANCH  19  20
ENDBRANCH  18  19
ENDBRANCH   8  18
TORSDOF 7
ENDMDL
MODEL 2
REMARK VINA RESULT:      -6.6      4.197      9.707
REMARK  Name = 
REMARK  9 active torsions:
REMARK  status: ('A' for Active; 'I' for Inactive)
REMARK    1  A    between atoms: C_1  and  O_2
REMARK    2  A    between atoms: O_2  and  C_3
REMARK    3  A    between atoms: C_3  and  C_4
REMARK    4  A    between atoms: C_4  and  C_5
REMARK    5  A    between atoms: C_5  and  C_6
REMARK    6  A    between atoms: C_5  and  N_7
REMARK    7  A    between atoms: N_14  and  C_15
REMARK    8  A    between atoms: C_15  and  C_16
REMARK    9  A    between atoms: C_16  and  C_17
REMARK                            x       y       z     vdW  Elec       q    Type
REMARK                         _______ _______ _______ _____ _____    ______ ____
ROOT
ATOM      1  N   UNL     1      -1.484  12.470  20.221  0.00  0.00    +0.000 NA
ATOM      2  C   UNL     1      -0.052  12.756  20.258  0.00  0.00    +0.000 C 
ATOM      3  C   UNL     1       0.809  11.533  20.550  0.00  0.00    +0.000 C 
ATOM      4  C   UNL     1       0.453  10.343  19.655  0.00  0.00    +0.000 C 
ATOM      5  C   UNL     1      -1.045  10.172  19.351  0.00  0.00    +0.000 C 
ATOM      6  C   UNL     1      -1.788  11.490  19.183  0.00  0.00    +0.000 C 
ATOM      7  C   UNL     1       1.023   9.039  20.202  0.00  0.00    +0.000 C 
ATOM      8  N   UNL     1       1.971   8.629  19.218  0.00  0.00    +0.000 N 
ATOM      9  C   UNL     1       1.968   9.498  18.151  0.00  0.00    +0.000 C 
ATOM     10  O   UNL     1       2.588   9.372  17.108  0.00  0.00    +0.000 OA
ATOM     11  O   UNL     1       1.137  10.546  18.399  0.00  0.00    +0.000 OA
ENDROOT
BRANCH   1  12
ATOM     12  C   UNL     1      -2.225  12.336  21.487  0.00  0.00    +0.000 C 
ATOM     13  C   UNL     1      -1.431  12.146  22.788  0.00  0.00    +0.000 C 
BRANCH  12  14
ATOM     14  C   UNL     1      -3.200  13.518  21.689  0.00  0.00    +0.000 C 
BRANCH  14  15
ATOM     15  C   UNL     1      -4.547  13.272  21.013  0.00  0.00    +0.000 C 
BRANCH  15  17
ATOM     16  C   UNL     1      -6.551  12.072  21.245  0.00  0.00    +0.000 C 
ATOM     17  O   UNL     1      -5.270  12.328  21.803  0.00  0.00    +0.000 OA
ENDBRANCH  15  17
ENDBRANCH  14  15
ENDBRANCH  12  14
ENDBRANCH   1  12
BRANCH   8  18
ATOM     18  C   UNL     1       2.361   7.233  19.109  0.00  0.00    +0.000 C 
BRANCH  18  19
ATOM     19  C   UNL     1       1.995   6.381  20.323  0.00  0.00    +0.000 C 
BRANCH  19  20
ATOM     20  C   UNL     1       1.761   4.946  19.925  0.00  0.00    +0.000 A 
ATOM     21  C   UNL     1       1.834   4.567  18.578  0.00  0.00    +0.000 A 
ATOM     22  C   UNL     1       1.607   3.242  18.202  0.00  0.00    +0.000 A 
ATOM     23  C   UNL     1       1.295   2.293  19.170  0.00  0.00    +0.000 A 
ATOM     24  C   UNL     1       1.207   2.660  20.511  0.00  0.00    +0.000 A 
ATOM     25  C   UNL     1       1.433   3.984  20.889  0.00  0.00    +0.000 A 
ENDBRANCH  19  20
ENDBRANCH  18  19
ENDBRANCH   8  18
TORSDOF 7
ENDMDL
MODEL 3
REMARK VINA RESULT:      -6.5      3.473      8.414
REMARK  Name = 
REMARK  9 active torsions:
REMARK  status: ('A' for Active; 'I' for Inactive)
REMARK    1  A    between atoms: C_1  and  O_2
REMARK    2  A    between atoms: O_2  and  C_3
REMARK    3  A    between atoms: C_3  and  C_4
REMARK    4  A    between atoms: C_4  and  C_5
REMARK    5  A    between atoms: C_5  and  C_6
REMARK    6  A    between atoms: C_5  and  N_7
REMARK    7  A    between atoms: N_14  and  C_15
REMARK    8  A    between atoms: C_15  and  C_16
REMARK    9  A    between atoms: C_16  and  C_17
REMARK                            x       y       z     vdW  Elec       q    Type
REMARK                         _______ _______ _______ _____ _____    ______ ____
ROOT
ATOM      1  N   UNL     1       1.273   4.787  19.293  0.00  0.00    +0.000 NA
ATOM      2  C   UNL     1       2.266   5.599  19.992  0.00  0.00    +0.000 C 
ATOM      3  C   UNL     1       3.704   5.160  19.737  0.00  0.00    +0.000 C 
ATOM      4  C   UNL     1       4.004   4.989  18.245  0.00  0.00    +0.000 C 
ATOM      5  C   UNL     1       2.860   4.394  17.407  0.00  0.00    +0.000 C 
ATOM      6  C   UNL     1       1.477   4.852  17.849  0.00  0.00    +0.000 C 
ATOM      7  C   UNL     1       5.283   4.190  18.019  0.00  0.00    +0.000 C 
ATOM      8  N   UNL     1       6.172   5.118  17.400  0.00  0.00    +0.000 N 
ATOM      9  C   UNL     1       5.544   6.323  17.187  0.00  0.00    +0.000 C 
ATOM     10  O   UNL     1       5.998   7.285  16.589  0.00  0.00    +0.000 OA
ATOM     11  O   UNL     1       4.294   6.305  17.724  0.00  0.00    +0.000 OA
ENDROOT
BRANCH   1  12
ATOM     12  C   UNL     1       0.898   3.474  19.845  0.00  0.00    +0.000 C 
ATOM     13  C   UNL     1       1.233   2.213  19.036  0.00  0.00    +0.000 C 
BRANCH  12  14
ATOM     14  C   UNL     1       1.458   3.290  21.273  0.00  0.00    +0.000 C 
BRANCH  14  15
ATOM     15  C   UNL     1       2.234   1.984  21.421  0.00  0.00    +0.000 C 
BRANCH  15  17
ATOM     16  C   UNL     1       4.450   1.819  20.668  0.00  0.00    +0.000 C 
ATOM     17  O   UNL     1       3.596   2.310  21.692  0.00  0.00    +0.000 OA
ENDBRANCH  15  17
ENDBRANCH  14  15
ENDBRANCH  12  14
ENDBRANCH   1  12
BRANCH   8  18
ATOM     18  C   UNL     1       7.284   4.644  16.592  0.00  0.00    +0.000 C 
BRANCH  18  19
ATOM     19  C   UNL     1       7.479   5.403  15.281  0.00  0.00    +0.000 C 
BRANCH  19  20
ATOM     20  C   UNL     1       6.852   4.659  14.129  0.00  0.00    +0.000 A 
ATOM     21  C   UNL     1       7.546   4.518  12.919  0.00  0.00    +0.000 A 
ATOM     22  C   UNL     1       6.966   3.840  11.846  0.00  0.00    +0.000 A 
ATOM     23  C   UNL     1       5.686   3.309  11.974  0.00  0.00    +0.000 A 
ATOM     24  C   UNL     1       4.981   3.455  13.166  0.00  0.00    +0.000 A 
ATOM     25  C   UNL     1       5.559   4.133  14.241  0.00  0.00    +0.000 A 
ENDBRANCH  19  20
ENDBRANCH  18  19
ENDBRANCH   8  18
TORSDOF 7
ENDMDL
MODEL 4
REMARK VINA RESULT:      -6.5      3.493      5.001
REMARK  Name = 
REMARK  9 active torsions:
REMARK  status: ('A' for Active; 'I' for Inactive)
REMARK    1  A    between atoms: C_1  and  O_2
REMARK    2  A    between atoms: O_2  and  C_3
REMARK    3  A    between atoms: C_3  and  C_4
REMARK    4  A    between atoms: C_4  and  C_5
REMARK    5  A    between atoms: C_5  and  C_6
REMARK    6  A    between atoms: C_5  and  N_7
REMARK    7  A    between atoms: N_14  and  C_15
REMARK    8  A    between atoms: C_15  and  C_16
REMARK    9  A    between atoms: C_16  and  C_17
REMARK                            x       y       z     vdW  Elec       q    Type
REMARK                         _______ _______ _______ _____ _____    ______ ____
ROOT
ATOM      1  N   UNL     1       6.810   3.916  14.342  0.00  0.00    +0.000 NA
ATOM      2  C   UNL     1       7.539   4.863  15.181  0.00  0.00    +0.000 C 
ATOM      3  C   UNL     1       6.650   5.920  15.827  0.00  0.00    +0.000 C 
ATOM      4  C   UNL     1       5.430   5.308  16.523  0.00  0.00    +0.000 C 
ATOM      5  C   UNL     1       4.797   4.105  15.805  0.00  0.00    +0.000 C 
ATOM      6  C   UNL     1       5.810   3.196  15.124  0.00  0.00    +0.000 C 
ATOM      7  C   UNL     1       4.365   6.359  16.815  0.00  0.00    +0.000 C 
ATOM      8  N   UNL     1       4.306   6.413  18.239  0.00  0.00    +0.000 N 
ATOM      9  C   UNL     1       5.154   5.483  18.796  0.00  0.00    +0.000 C 
ATOM     10  O   UNL     1       5.259   5.211  19.980  0.00  0.00    +0.000 OA
ATOM     11  O   UNL     1       5.874   4.861  17.824  0.00  0.00    +0.000 OA
ENDROOT
BRANCH   1  12
ATOM     12  C   UNL     1       6.414   4.316  12.980  0.00  0.00    +0.000 C 
ATOM     13  C   UNL     1       7.459   4.989  12.078  0.00  0.00    +0.000 C 
BRANCH  12  14
ATOM     14  C   UNL     1       5.807   3.126  12.205  0.00  0.00    +0.000 C 
BRANCH  14  15
ATOM     15  C   UNL     1       6.881   2.205  11.633  0.00  0.00    +0.000 C 
BRANCH  15  17
ATOM     16  C   UNL     1       6.174  -0.014  11.344  0.00  0.00    +0.000 C 
ATOM     17  O   UNL     1       6.244   1.277  10.756  0.00  0.00    +0.000 OA
ENDBRANCH  15  17
ENDBRANCH  14  15
ENDBRANCH  12  14
ENDBRANCH   1  12
BRANCH   8  18
ATOM     18  C   UNL     1       3.111   6.905  18.907  0.00  0.00    +0.000 C 
BRANCH  18  19
ATOM     19  C   UNL     1       1.811   6.268  18.420  0.00  0.00    +0.000 C 
BRANCH  19  20
ATOM     20  C   UNL     1       1.670   4.862  18.943  0.00  0.00    +0.000 A 
ATOM     21  C   UNL     1       1.669   3.775  18.057  0.00  0.00    +0.000 A 
ATOM     22  C   UNL     1       1.527   2.472  18.535  0.00  0.00    +0.000 A 
ATOM     23  C   UNL     1       1.376   2.249  19.900  0.00  0.00    +0.000 A 
ATOM     24  C   UNL     1       1.361   3.321  20.789  0.00  0.00    +0.000 A 
ATOM     25  C   UNL     1       1.503   4.625  20.313  0.00  0.00    +0.000 A 
ENDBRANCH  19  20
ENDBRANCH  18  19
ENDBRANCH   8  18
TORSDOF 7
ENDMDL
MODEL 5
REMARK VINA RESULT:      -6.5      3.637      6.894
REMARK  Name = 
REMARK  9 active torsions:
REMARK  status: ('A' for Active; 'I' for Inactive)
REMARK    1  A    between atoms: C_1  and  O_2
REMARK    2  A    between atoms: O_2  and  C_3
REMARK    3  A    between atoms: C_3  and  C_4
REMARK    4  A    between atoms: C_4  and  C_5
REMARK    5  A    between atoms: C_5  and  C_6
REMARK    6  A    between atoms: C_5  and  N_7
REMARK    7  A    between atoms: N_14  and  C_15
REMARK    8  A    between atoms: C_15  and  C_16
REMARK    9  A    between atoms: C_16  and  C_17
REMARK                            x       y       z     vdW  Elec       q    Type
REMARK                         _______ _______ _______ _____ _____    ______ ____
ROOT
ATOM      1  N   UNL     1       2.952   2.866  18.458  0.00  0.00    +0.000 NA
ATOM      2  C   UNL     1       3.681   2.903  17.193  0.00  0.00    +0.000 C 
ATOM      3  C   UNL     1       4.454   4.198  16.970  0.00  0.00    +0.000 C 
ATOM      4  C   UNL     1       5.318   4.575  18.178  0.00  0.00    +0.000 C 
ATOM      5  C   UNL     1       4.693   4.280  19.552  0.00  0.00    +0.000 C 
ATOM      6  C   UNL     1       3.867   3.002  19.586  0.00  0.00    +0.000 C 
ATOM      7  C   UNL     1       5.767   6.031  18.113  0.00  0.00    +0.000 C 
ATOM      8  N   UNL     1       7.185   5.955  17.977  0.00  0.00    +0.000 N 
ATOM      9  C   UNL     1       7.607   4.647  18.020  0.00  0.00    +0.000 C 
ATOM     10  O   UNL     1       8.762   4.254  18.032  0.00  0.00    +0.000 OA
ATOM     11  O   UNL     1       6.537   3.808  18.075  0.00  0.00    +0.000 OA
ENDROOT
BRANCH   1  12
ATOM     12  C   UNL     1       1.664   3.574  18.568  0.00  0.00    +0.000 C 
ATOM     13  C   UNL     1       1.060   3.789  19.963  0.00  0.00    +0.000 C 
BRANCH  12  14
ATOM     14  C   UNL     1       1.718   4.942  17.853  0.00  0.00    +0.000 C 
BRANCH  14  15
ATOM     15  C   UNL     1       1.939   6.092  18.832  0.00  0.00    +0.000 C 
BRANCH  15  17
ATOM     16  C   UNL     1       2.023   8.224  17.853  0.00  0.00    +0.000 C 
ATOM     17  O   UNL     1       2.767   7.062  18.191  0.00  0.00    +0.000 OA
ENDBRANCH  15  17
ENDBRANCH  14  15
ENDBRANCH  12  14
ENDBRANCH   1  12
BRANCH   8  18
ATOM     18  C   UNL     1       8.022   7.077  18.370  0.00  0.00    +0.000 C 
BRANCH  18  19
ATOM     19  C   UNL     1       7.942   8.281  17.433  0.00  0.00    +0.000 C 
BRANCH  19  20
ATOM     20  C   UNL     1       8.442   9.529  18.113  0.00  0.00    +0.000 A 
ATOM     21  C   UNL     1       9.069   9.448  19.364  0.00  0.00    +0.000 A 
ATOM     22  C   UNL     1       9.524  10.603  20.004  0.00  0.00    +0.000 A 
ATOM     23  C   UNL     1       9.346  11.843  19.400  0.00  0.00    +0.000 A 
ATOM     24  C   UNL     1       8.713  11.938  18.164  0.00  0.00    +0.000 A 
ATOM     25  C   UNL     1       8.257  10.785  17.522  0.00  0.00    +0.000 A 
ENDBRANCH  19  20
ENDBRANCH  18  19
ENDBRANCH   8  18
TORSDOF 7
ENDMDL
MODEL 6
REMARK VINA RESULT:      -6.5      0.516      1.023
REMARK  Name = 
REMARK  9 active torsions:
REMARK  status: ('A' for Active; 'I' for Inactive)
REMARK    1  A    between atoms: C_1  and  O_2
REMARK    2  A    between atoms: O_2  and  C_3
REMARK    3  A    between atoms: C_3  and  C_4
REMARK    4  A    between atoms: C_4  and  C_5
REMARK    5  A    between atoms: C_5  and  C_6
REMARK    6  A    between atoms: C_5  and  N_7
REMARK    7  A    between atoms: N_14  and  C_15
REMARK    8  A    between atoms: C_15  and  C_16
REMARK    9  A    between atoms: C_16  and  C_17
REMARK                            x       y       z     vdW  Elec       q    Type
REMARK                         _______ _______ _______ _____ _____    ______ ____
ROOT
ATOM      1  N   UNL     1       5.659   4.434  17.150  0.00  0.00    +0.000 NA
ATOM      2  C   UNL     1       5.833   4.321  18.596  0.00  0.00    +0.000 C 
ATOM      3  C   UNL     1       5.089   5.391  19.387  0.00  0.00    +0.000 C 
ATOM      4  C   UNL     1       3.623   5.514  18.962  0.00  0.00    +0.000 C 
ATOM      5  C   UNL     1       3.358   5.350  17.456  0.00  0.00    +0.000 C 
ATOM      6  C   UNL     1       4.251   4.314  16.789  0.00  0.00    +0.000 C 
ATOM      7  C   UNL     1       3.003   6.816  19.459  0.00  0.00    +0.000 C 
ATOM      8  N   UNL     1       1.997   6.397  20.380  0.00  0.00    +0.000 N 
ATOM      9  C   UNL     1       1.921   5.024  20.423  0.00  0.00    +0.000 C 
ATOM     10  O   UNL     1       1.100   4.359  21.033  0.00  0.00    +0.000 OA
ATOM     11  O   UNL     1       2.899   4.473  19.654  0.00  0.00    +0.000 OA
ENDROOT
BRANCH   1  12
ATOM     12  C   UNL     1       6.445   5.435  16.406  0.00  0.00    +0.000 C 
ATOM     13  C   UNL     1       7.377   6.369  17.189  0.00  0.00    +0.000 C 
BRANCH  12  14
ATOM     14  C   UNL     1       7.267   4.770  15.279  0.00  0.00    +0.000 C 
BRANCH  14  15
ATOM     15  C   UNL     1       6.600   4.923  13.915  0.00  0.00    +0.000 C 
BRANCH  15  17
ATOM     16  C   UNL     1       6.424   3.344  12.187  0.00  0.00    +0.000 C 
ATOM     17  O   UNL     1       6.084   3.648  13.533  0.00  0.00    +0.000 OA
ENDBRANCH  15  17
ENDBRANCH  14  15
ENDBRANCH  12  14
ENDBRANCH   1  12
BRANCH   8  18
ATOM     18  C   UNL     1       0.875   7.269  20.690  0.00  0.00    +0.000 C 
BRANCH  18  19
ATOM     19  C   UNL     1       1.150   8.274  21.806  0.00  0.00    +0.000 C 
BRANCH  19  20
ATOM     20  C   UNL     1       0.248   9.475  21.685  0.00  0.00    +0.000 A 
ATOM     21  C   UNL     1      -0.051  10.009  20.423  0.00  0.00    +0.000 A 
ATOM     22  C   UNL     1      -0.877  11.128  20.306  0.00  0.00    +0.000 A 
ATOM     23  C   UNL     1      -1.400  11.724  21.449  0.00  0.00    +0.000 A 
ATOM     24  C   UNL     1      -1.101  11.211  22.708  0.00  0.00    +0.000 A 
ATOM     25  C   UNL     1      -0.274  10.093  22.828  0.00  0.00    +0.000 A 
ENDBRANCH  19  20
ENDBRANCH  18  19
ENDBRANCH   8  18
TORSDOF 7
ENDMDL
MODEL 7
REMARK VINA RESULT:      -6.4      1.018      1.363
REMARK  Name = 
REMARK  9 active torsions:
REMARK  status: ('A' for Active; 'I' for Inactive)
REMARK    1  A    between atoms: C_1  and  O_2
REMARK    2  A    between atoms: O_2  and  C_3
REMARK    3  A    between atoms: C_3  and  C_4
REMARK    4  A    between atoms: C_4  and  C_5
REMARK    5  A    between atoms: C_5  and  C_6
REMARK    6  A    between atoms: C_5  and  N_7
REMARK    7  A    between atoms: N_14  and  C_15
REMARK    8  A    between atoms: C_15  and  C_16
REMARK    9  A    between atoms: C_16  and  C_17
REMARK                            x       y       z     vdW  Elec       q    Type
REMARK                         _______ _______ _______ _____ _____    ______ ____
ROOT
ATOM      1  N   UNL     1       5.243   4.132  16.676  0.00  0.00    +0.000 NA
ATOM      2  C   UNL     1       5.823   4.446  17.979  0.00  0.00    +0.000 C 
ATOM      3  C   UNL     1       5.079   5.544  18.731  0.00  0.00    +0.000 C 
ATOM      4  C   UNL     1       3.568   5.292  18.784  0.00  0.00    +0.000 C 
ATOM      5  C   UNL     1       2.957   4.683  17.512  0.00  0.00    +0.000 C 
ATOM      6  C   UNL     1       3.865   3.676  16.820  0.00  0.00    +0.000 C 
ATOM      7  C   UNL     1       2.804   6.552  19.177  0.00  0.00    +0.000 C 
ATOM      8  N   UNL     1       2.219   6.230  20.437  0.00  0.00    +0.000 N 
ATOM      9  C   UNL     1       2.499   4.928  20.783  0.00  0.00    +0.000 C 
ATOM     10  O   UNL     1       2.063   4.321  21.747  0.00  0.00    +0.000 OA
ATOM     11  O   UNL     1       3.338   4.368  19.870  0.00  0.00    +0.000 OA
ENDROOT
BRANCH   1  12
ATOM     12  C   UNL     1       5.527   5.014  15.530  0.00  0.00    +0.000 C 
ATOM     13  C   UNL     1       5.265   6.519  15.678  0.00  0.00    +0.000 C 
BRANCH  12  14
ATOM     14  C   UNL     1       6.976   4.826  15.029  0.00  0.00    +0.000 C 
BRANCH  14  15
ATOM     15  C   UNL     1       7.029   4.455  13.550  0.00  0.00    +0.000 C 
BRANCH  15  17
ATOM     16  C   UNL     1       5.605   3.292  12.090  0.00  0.00    +0.000 C 
ATOM     17  O   UNL     1       6.237   3.282  13.362  0.00  0.00    +0.000 OA
ENDBRANCH  15  17
ENDBRANCH  14  15
ENDBRANCH  12  14
ENDBRANCH   1  12
BRANCH   8  18
ATOM     18  C   UNL     1       1.043   6.945  20.906  0.00  0.00    +0.000 C 
BRANCH  18  19
ATOM     19  C   UNL     1       1.348   8.275  21.592  0.00  0.00    +0.000 C 
BRANCH  19  20
ATOM     20  C   UNL     1       0.583   9.403  20.948  0.00  0.00    +0.000 A 
ATOM     21  C   UNL     1      -0.208  10.256  21.729  0.00  0.00    +0.000 A 
ATOM     22  C   UNL     1      -0.928  11.295  21.136  0.00  0.00    +0.000 A 
ATOM     23  C   UNL     1      -0.868  11.479  19.758  0.00  0.00    +0.000 A 
ATOM     24  C   UNL     1      -0.096  10.629  18.969  0.00  0.00    +0.000 A 
ATOM     25  C   UNL     1       0.624   9.590  19.560  0.00  0.00    +0.000 A 
ENDBRANCH  19  20
ENDBRANCH  18  19
ENDBRANCH   8  18
TORSDOF 7
ENDMDL
MODEL 8
REMARK VINA RESULT:      -6.4      2.888      7.284
REMARK  Name = 
REMARK  9 active torsions:
REMARK  status: ('A' for Active; 'I' for Inactive)
REMARK    1  A    between atoms: C_1  and  O_2
REMARK    2  A    between atoms: O_2  and  C_3
REMARK    3  A    between atoms: C_3  and  C_4
REMARK    4  A    between atoms: C_4  and  C_5
REMARK    5  A    between atoms: C_5  and  C_6
REMARK    6  A    between atoms: C_5  and  N_7
REMARK    7  A    between atoms: N_14  and  C_15
REMARK    8  A    between atoms: C_15  and  C_16
REMARK    9  A    between atoms: C_16  and  C_17
REMARK                            x       y       z     vdW  Elec       q    Type
REMARK                         _______ _______ _______ _____ _____    ______ ____
ROOT
ATOM      1  N   UNL     1       3.059   3.009  18.893  0.00  0.00    +0.000 NA
ATOM      2  C   UNL     1       3.015   3.307  17.463  0.00  0.00    +0.000 C 
ATOM      3  C   UNL     1       3.640   4.649  17.098  0.00  0.00    +0.000 C 
ATOM      4  C   UNL     1       5.032   4.829  17.711  0.00  0.00    +0.000 C 
ATOM      5  C   UNL     1       5.204   4.262  19.130  0.00  0.00    +0.000 C 
ATOM      6  C   UNL     1       4.437   2.970  19.370  0.00  0.00    +0.000 C 
ATOM      7  C   UNL     1       5.475   6.287  17.676  0.00  0.00    +0.000 C 
ATOM      8  N   UNL     1       6.601   6.292  16.801  0.00  0.00    +0.000 N 
ATOM      9  C   UNL     1       6.895   5.014  16.383  0.00  0.00    +0.000 C 
ATOM     10  O   UNL     1       7.855   4.670  15.713  0.00  0.00    +0.000 OA
ATOM     11  O   UNL     1       5.961   4.140  16.846  0.00  0.00    +0.000 OA
ENDROOT
BRANCH   1  12
ATOM     12  C   UNL     1       2.071   3.636  19.789  0.00  0.00    +0.000 C 
ATOM     13  C   UNL     1       2.352   3.648  21.299  0.00  0.00    +0.000 C 
BRANCH  12  14
ATOM     14  C   UNL     1       1.759   5.083  19.348  0.00  0.00    +0.000 C 
BRANCH  14  15
ATOM     15  C   UNL     1       2.311   6.114  20.330  0.00  0.00    +0.000 C 
BRANCH  15  17
ATOM     16  C   UNL     1       1.368   8.211  20.800  0.00  0.00    +0.000 C 
ATOM     17  O   UNL     1       1.205   6.804  20.911  0.00  0.00    +0.000 OA
ENDBRANCH  15  17
ENDBRANCH  14  15
ENDBRANCH  12  14
ENDBRANCH   1  12
BRANCH   8  18
ATOM     18  C   UNL     1       7.592   7.352  16.883  0.00  0.00    +0.000 C 
BRANCH  18  19
ATOM     19  C   UNL     1       7.979   7.743  18.308  0.00  0.00    +0.000 C 
BRANCH  19  20
ATOM     20  C   UNL     1       8.431   9.180  18.370  0.00  0.00    +0.000 A 
ATOM     21  C   UNL     1       9.394   9.578  19.307  0.00  0.00    +0.000 A 
ATOM     22  C   UNL     1       9.808  10.910  19.376  0.00  0.00    +0.000 A 
ATOM     23  C   UNL     1       9.253  11.850  18.514  0.00  0.00    +0.000 A 
ATOM     24  C   UNL     1       8.286  11.470  17.587  0.00  0.00    +0.000 A 
ATOM     25  C   UNL     1       7.871  10.140  17.517  0.00  0.00    +0.000 A 
ENDBRANCH  19  20
ENDBRANCH  18  19
ENDBRANCH   8  18
TORSDOF 7
ENDMDL
MODEL 9
REMARK VINA RESULT:      -6.3      4.265      9.724
REMARK  Name = 
REMARK  9 active torsions:
REMARK  status: ('A' for Active; 'I' for Inactive)
REMARK    1  A    between atoms: C_1  and  O_2
REMARK    2  A    between atoms: O_2  and  C_3
REMARK    3  A    between atoms: C_3  and  C_4
REMARK    4  A    between atoms: C_4  and  C_5
REMARK    5  A    between atoms: C_5  and  C_6
REMARK    6  A    between atoms: C_5  and  N_7
REMARK    7  A    between atoms: N_14  and  C_15
REMARK    8  A    between atoms: C_15  and  C_16
REMARK    9  A    between atoms: C_16  and  C_17
REMARK                            x       y       z     vdW  Elec       q    Type
REMARK                         _______ _______ _______ _____ _____    ______ ____
ROOT
ATOM      1  N   UNL     1      -1.417  12.505  20.196  0.00  0.00    +0.000 NA
ATOM      2  C   UNL     1       0.019  12.768  20.142  0.00  0.00    +0.000 C 
ATOM      3  C   UNL     1       0.876  11.555  20.486  0.00  0.00    +0.000 C 
ATOM      4  C   UNL     1       0.459  10.307  19.702  0.00  0.00    +0.000 C 
ATOM      5  C   UNL     1      -1.054  10.141  19.485  0.00  0.00    +0.000 C 
ATOM      6  C   UNL     1      -1.785  11.455  19.252  0.00  0.00    +0.000 C 
ATOM      7  C   UNL     1       1.038   9.038  20.319  0.00  0.00    +0.000 C 
ATOM      8  N   UNL     1       1.930   8.538  19.324  0.00  0.00    +0.000 N 
ATOM      9  C   UNL     1       1.886   9.324  18.196  0.00  0.00    +0.000 C 
ATOM     10  O   UNL     1       2.452   9.108  17.136  0.00  0.00    +0.000 OA
ATOM     11  O   UNL     1       1.083  10.402  18.402  0.00  0.00    +0.000 OA
ENDROOT
BRANCH   1  12
ATOM     12  C   UNL     1      -2.096  12.481  21.504  0.00  0.00    +0.000 C 
ATOM     13  C   UNL     1      -1.240  12.517  22.778  0.00  0.00    +0.000 C 
BRANCH  12  14
ATOM     14  C   UNL     1      -3.152  13.605  21.603  0.00  0.00    +0.000 C 
BRANCH  14  15
ATOM     15  C   UNL     1      -4.383  13.313  20.749  0.00  0.00    +0.000 C 
BRANCH  15  17
ATOM     16  C   UNL     1      -6.448  12.550  21.562  0.00  0.00    +0.000 C 
ATOM     17  O   UNL     1      -5.539  13.641  21.518  0.00  0.00    +0.000 OA
ENDBRANCH  15  17
ENDBRANCH  14  15
ENDBRANCH  12  14
ENDBRANCH   1  12
BRANCH   8  18
ATOM     18  C   UNL     1       2.294   7.131  19.304  0.00  0.00    +0.000 C 
BRANCH  18  19
ATOM     19  C   UNL     1       1.745   6.322  20.478  0.00  0.00    +0.000 C 
BRANCH  19  20
ATOM     20  C   UNL     1       1.670   4.856  20.134  0.00  0.00    +0.000 A 
ATOM     21  C   UNL     1       1.705   3.890  21.149  0.00  0.00    +0.000 A 
ATOM     22  C   UNL     1       1.647   2.531  20.835  0.00  0.00    +0.000 A 
ATOM     23  C   UNL     1       1.564   2.132  19.505  0.00  0.00    +0.000 A 
ATOM     24  C   UNL     1       1.541   3.082  18.487  0.00  0.00    +0.000 A 
ATOM     25  C   UNL     1       1.599   4.441  18.798  0.00  0.00    +0.000 A 
ENDBRANCH  19  20
ENDBRANCH  18  19
ENDBRANCH   8  18
TORSDOF 7
ENDMDL
