MODEL 1
REMARK VINA RESULT:      -8.4      0.000      0.000
REMARK  Name = 
REMARK  6 active torsions:
REMARK  status: ('A' for Active; 'I' for Inactive)
REMARK    1  A    between atoms: N_9  and  C_10
REMARK    2  A    between atoms: C_13  and  C_14
REMARK    3  A    between atoms: N_24  and  C_25
REMARK    4  A    between atoms: C_25  and  C_26
REMARK    5  A    between atoms: C_26  and  C_27
REMARK    6  A    between atoms: C_27  and  N_28
REMARK                            x       y       z     vdW  Elec       q    Type
REMARK                         _______ _______ _______ _____ _____    ______ ____
ROOT
ATOM      1 CL   UNL     1      -2.268  12.954  23.685  0.00  0.00    +0.000 Cl
ATOM      2  C   UNL     1      -2.462  12.501  22.038  0.00  0.00    +0.000 A 
ATOM      3  C   UNL     1      -3.585  12.926  21.340  0.00  0.00    +0.000 A 
ATOM      4  C   UNL     1      -3.764  12.556  20.003  0.00  0.00    +0.000 A 
ATOM      5  C   UNL     1      -2.844  11.721  19.342  0.00  0.00    +0.000 A 
ATOM      6  C   UNL     1      -1.704  11.292  20.084  0.00  0.00    +0.000 A 
ATOM      7  C   UNL     1      -1.510  11.698  21.417  0.00  0.00    +0.000 A 
ATOM      8  C   UNL     1      -0.722  10.343  19.463  0.00  0.00    +0.000 A 
ATOM      9  N   UNL     1       0.445  10.145  20.031  0.00  0.00    +0.000 NA
ATOM     10  C   UNL     1      -1.207   9.700  18.208  0.00  0.00    +0.000 A 
ATOM     11  C   UNL     1      -2.238  10.242  17.558  0.00  0.00    +0.000 A 
ATOM     12  N   UNL     1      -3.034  11.267  18.016  0.00  0.00    +0.000 N 
ENDROOT
BRANCH   9  13
ATOM     13  C   UNL     1       1.385   9.249  19.484  0.00  0.00    +0.000 A 
ATOM     14  C   UNL     1       2.061   9.487  18.288  0.00  0.00    +0.000 A 
ATOM     15  C   UNL     1       2.727   8.459  17.623  0.00  0.00    +0.000 A 
ATOM     16  C   UNL     1       2.912   7.200  18.216  0.00  0.00    +0.000 A 
ATOM     17  C   UNL     1       2.421   7.046  19.524  0.00  0.00    +0.000 A 
ATOM     18  C   UNL     1       1.648   8.041  20.138  0.00  0.00    +0.000 A 
BRANCH  16  19
ATOM     19  C   UNL     1       3.576   6.101  17.471  0.00  0.00    +0.000 A 
ATOM     20  C   UNL     1       3.181   4.758  17.636  0.00  0.00    +0.000 A 
ATOM     21  C   UNL     1       3.834   3.710  16.980  0.00  0.00    +0.000 A 
ATOM     22  C   UNL     1       4.895   3.981  16.126  0.00  0.00    +0.000 A 
ATOM     23  C   UNL     1       5.305   5.296  15.932  0.00  0.00    +0.000 A 
ATOM     24  C   UNL     1       4.658   6.342  16.604  0.00  0.00    +0.000 A 
ENDBRANCH  16  19
ENDBRANCH   9  13
BRANCH  12  25
ATOM     25  C   UNL     1      -4.154  11.756  17.185  0.00  0.00    +0.000 C 
BRANCH  25  26
ATOM     26  C   UNL     1      -5.451  11.040  17.565  0.00  0.00    +0.000 C 
BRANCH  26  27
ATOM     27  C   UNL     1      -6.659  11.984  17.590  0.00  0.00    +0.000 C 
BRANCH  27  28
ATOM     28  N   UNL     1      -7.383  12.032  18.873  0.00  0.00    +0.000 NA
ATOM     29  C   UNL     1      -7.011  10.921  19.765  0.00  0.00    +0.000 C 
ATOM     30  C   UNL     1      -7.807  10.970  21.071  0.00  0.00    +0.000 C 
ATOM     31  C   UNL     1      -7.608  12.299  21.786  0.00  0.00    +0.000 C 
ATOM     32  C   UNL     1      -7.916  13.454  20.842  0.00  0.00    +0.000 C 
ATOM     33  C   UNL     1      -7.132  13.328  19.535  0.00  0.00    +0.000 C 
ENDBRANCH  27  28
ENDBRANCH  26  27
ENDBRANCH  25  26
ENDBRANCH  12  25
TORSDOF 6
ENDMDL
MODEL 2
REMARK VINA RESULT:      -7.7      4.700     10.836
REMARK  Name = 
REMARK  6 active torsions:
REMARK  status: ('A' for Active; 'I' for Inactive)
REMARK    1  A    between atoms: N_9  and  C_10
REMARK    2  A    between atoms: C_13  and  C_14
REMARK    3  A    between atoms: N_24  and  C_25
REMARK    4  A    between atoms: C_25  and  C_26
REMARK    5  A    between atoms: C_26  and  C_27
REMARK    6  A    between atoms: C_27  and  N_28
REMARK                            x       y       z     vdW  Elec       q    Type
REMARK                         _______ _______ _______ _____ _____    ______ ____
ROOT
ATOM      1 CL   UNL     1       1.072   2.173  22.329  0.00  0.00    +0.000 Cl
ATOM      2  C   UNL     1       1.743   2.946  20.947  0.00  0.00    +0.000 A 
ATOM      3  C   UNL     1       2.413   2.187  19.997  0.00  0.00    +0.000 A 
ATOM      4  C   UNL     1       2.975   2.803  18.874  0.00  0.00    +0.000 A 
ATOM      5  C   UNL     1       2.913   4.197  18.692  0.00  0.00    +0.000 A 
ATOM      6  C   UNL     1       2.226   4.954  19.687  0.00  0.00    +0.000 A 
ATOM      7  C   UNL     1       1.630   4.325  20.796  0.00  0.00    +0.000 A 
ATOM      8  C   UNL     1       2.185   6.450  19.591  0.00  0.00    +0.000 A 
ATOM      9  N   UNL     1       1.354   7.132  20.345  0.00  0.00    +0.000 NA
ATOM     10  C   UNL     1       3.142   7.024  18.600  0.00  0.00    +0.000 A 
ATOM     11  C   UNL     1       3.660   6.227  17.665  0.00  0.00    +0.000 A 
ATOM     12  N   UNL     1       3.535   4.858  17.608  0.00  0.00    +0.000 N 
ENDROOT
BRANCH   9  13
ATOM     13  C   UNL     1       1.300   8.538  20.293  0.00  0.00    +0.000 A 
ATOM     14  C   UNL     1       1.188   9.341  21.429  0.00  0.00    +0.000 A 
ATOM     15  C   UNL     1       0.819  10.680  21.327  0.00  0.00    +0.000 A 
ATOM     16  C   UNL     1       0.737  11.327  20.083  0.00  0.00    +0.000 A 
ATOM     17  C   UNL     1       1.078  10.560  18.955  0.00  0.00    +0.000 A 
ATOM     18  C   UNL     1       1.329   9.184  19.054  0.00  0.00    +0.000 A 
BRANCH  16  19
ATOM     19  C   UNL     1       0.290  12.740  19.991  0.00  0.00    +0.000 A 
ATOM     20  C   UNL     1      -0.554  13.308  20.966  0.00  0.00    +0.000 A 
ATOM     21  C   UNL     1      -1.024  14.620  20.862  0.00  0.00    +0.000 A 
ATOM     22  C   UNL     1      -0.648  15.408  19.782  0.00  0.00    +0.000 A 
ATOM     23  C   UNL     1       0.192  14.882  18.806  0.00  0.00    +0.000 A 
ATOM     24  C   UNL     1       0.648  13.561  18.906  0.00  0.00    +0.000 A 
ENDBRANCH  16  19
ENDBRANCH   9  13
BRANCH  12  25
ATOM     25  C   UNL     1       4.182   4.105  16.512  0.00  0.00    +0.000 C 
BRANCH  25  26
ATOM     26  C   UNL     1       5.063   5.034  15.675  0.00  0.00    +0.000 C 
BRANCH  26  27
ATOM     27  C   UNL     1       6.538   4.614  15.688  0.00  0.00    +0.000 C 
BRANCH  27  28
ATOM     28  N   UNL     1       7.390   5.368  16.625  0.00  0.00    +0.000 NA
ATOM     29  C   UNL     1       6.975   6.776  16.747  0.00  0.00    +0.000 C 
ATOM     30  C   UNL     1       7.901   7.546  17.691  0.00  0.00    +0.000 C 
ATOM     31  C   UNL     1       7.946   6.897  19.067  0.00  0.00    +0.000 C 
ATOM     32  C   UNL     1       8.298   5.420  18.940  0.00  0.00    +0.000 C 
ATOM     33  C   UNL     1       7.374   4.713  17.948  0.00  0.00    +0.000 C 
ENDBRANCH  27  28
ENDBRANCH  26  27
ENDBRANCH  25  26
ENDBRANCH  12  25
TORSDOF 6
ENDMDL
MODEL 3
REMARK VINA RESULT:      -7.4      4.817     11.214
REMARK  Name = 
REMARK  6 active torsions:
REMARK  status: ('A' for Active; 'I' for Inactive)
REMARK    1  A    between atoms: N_9  and  C_10
REMARK    2  A    between atoms: C_13  and  C_14
REMARK    3  A    between atoms: N_24  and  C_25
REMARK    4  A    between atoms: C_25  and  C_26
REMARK    5  A    between atoms: C_26  and  C_27
REMARK    6  A    between atoms: C_27  and  N_28
REMARK                            x       y       z     vdW  Elec       q    Type
REMARK                         _______ _______ _______ _____ _____    ______ ____
ROOT
ATOM      1 CL   UNL     1       1.503   2.798  21.978  0.00  0.00    +0.000 Cl
ATOM      2  C   UNL     1       2.156   3.695  20.664  0.00  0.00    +0.000 A 
ATOM      3  C   UNL     1       3.029   3.075  19.780  0.00  0.00    +0.000 A 
ATOM      4  C   UNL     1       3.580   3.794  18.714  0.00  0.00    +0.000 A 
ATOM      5  C   UNL     1       3.299   5.160  18.527  0.00  0.00    +0.000 A 
ATOM      6  C   UNL     1       2.406   5.775  19.454  0.00  0.00    +0.000 A 
ATOM      7  C   UNL     1       1.826   5.037  20.503  0.00  0.00    +0.000 A 
ATOM      8  C   UNL     1       2.121   7.244  19.355  0.00  0.00    +0.000 A 
ATOM      9  N   UNL     1       1.121   7.764  20.029  0.00  0.00    +0.000 NA
ATOM     10  C   UNL     1       3.054   7.986  18.458  0.00  0.00    +0.000 A 
ATOM     11  C   UNL     1       3.783   7.303  17.574  0.00  0.00    +0.000 A 
ATOM     12  N   UNL     1       3.897   5.934  17.506  0.00  0.00    +0.000 N 
ENDROOT
BRANCH   9  13
ATOM     13  C   UNL     1       0.836   9.142  19.973  0.00  0.00    +0.000 A 
ATOM     14  C   UNL     1       0.526   9.810  18.788  0.00  0.00    +0.000 A 
ATOM     15  C   UNL     1       0.565  11.201  18.717  0.00  0.00    +0.000 A 
ATOM     16  C   UNL     1       0.724  11.991  19.867  0.00  0.00    +0.000 A 
ATOM     17  C   UNL     1       0.807  11.304  21.091  0.00  0.00    +0.000 A 
ATOM     18  C   UNL     1       0.888   9.906  21.143  0.00  0.00    +0.000 A 
BRANCH  16  19
ATOM     19  C   UNL     1       0.818  13.469  19.765  0.00  0.00    +0.000 A 
ATOM     20  C   UNL     1      -0.258  14.242  19.283  0.00  0.00    +0.000 A 
ATOM     21  C   UNL     1      -0.162  15.628  19.132  0.00  0.00    +0.000 A 
ATOM     22  C   UNL     1       1.013  16.283  19.476  0.00  0.00    +0.000 A 
ATOM     23  C   UNL     1       2.092  15.553  19.964  0.00  0.00    +0.000 A 
ATOM     24  C   UNL     1       1.997  14.162  20.099  0.00  0.00    +0.000 A 
ENDBRANCH  16  19
ENDBRANCH   9  13
BRANCH  12  25
ATOM     25  C   UNL     1       4.759   5.318  16.474  0.00  0.00    +0.000 C 
BRANCH  25  26
ATOM     26  C   UNL     1       6.108   6.037  16.409  0.00  0.00    +0.000 C 
BRANCH  26  27
ATOM     27  C   UNL     1       7.150   5.259  15.597  0.00  0.00    +0.000 C 
BRANCH  27  28
ATOM     28  N   UNL     1       6.802   5.047  14.181  0.00  0.00    +0.000 NA
ATOM     29  C   UNL     1       7.930   5.333  13.279  0.00  0.00    +0.000 C 
ATOM     30  C   UNL     1       7.529   5.147  11.815  0.00  0.00    +0.000 C 
ATOM     31  C   UNL     1       7.008   3.740  11.562  0.00  0.00    +0.000 C 
ATOM     32  C   UNL     1       5.892   3.409  12.545  0.00  0.00    +0.000 C 
ATOM     33  C   UNL     1       6.330   3.661  13.988  0.00  0.00    +0.000 C 
ENDBRANCH  27  28
ENDBRANCH  26  27
ENDBRANCH  25  26
ENDBRANCH  12  25
TORSDOF 6
ENDMDL
MODEL 4
REMARK VINA RESULT:      -7.2      4.233     11.128
REMARK  Name = 
REMARK  6 active torsions:
REMARK  status: ('A' for Active; 'I' for Inactive)
REMARK    1  A    between atoms: N_9  and  C_10
REMARK    2  A    between atoms: C_13  and  C_14
REMARK    3  A    between atoms: N_24  and  C_25
REMARK    4  A    between atoms: C_25  and  C_26
REMARK    5  A    between atoms: C_26  and  C_27
REMARK    6  A    between atoms: C_27  and  N_28
REMARK                            x       y       z     vdW  Elec       q    Type
REMARK                         _______ _______ _______ _____ _____    ______ ____
ROOT
ATOM      1 CL   UNL     1       2.072   3.364  21.847  0.00  0.00    +0.000 Cl
ATOM      2  C   UNL     1       2.495   4.407  20.546  0.00  0.00    +0.000 A 
ATOM      3  C   UNL     1       3.395   3.969  19.583  0.00  0.00    +0.000 A 
ATOM      4  C   UNL     1       3.760   4.810  18.527  0.00  0.00    +0.000 A 
ATOM      5  C   UNL     1       3.260   6.122  18.426  0.00  0.00    +0.000 A 
ATOM      6  C   UNL     1       2.343   6.549  19.431  0.00  0.00    +0.000 A 
ATOM      7  C   UNL     1       1.952   5.686  20.472  0.00  0.00    +0.000 A 
ATOM      8  C   UNL     1       1.829   7.958  19.423  0.00  0.00    +0.000 A 
ATOM      9  N   UNL     1       0.806   8.286  20.178  0.00  0.00    +0.000 NA
ATOM     10  C   UNL     1       2.577   8.874  18.514  0.00  0.00    +0.000 A 
ATOM     11  C   UNL     1       3.346   8.352  17.558  0.00  0.00    +0.000 A 
ATOM     12  N   UNL     1       3.666   7.021  17.413  0.00  0.00    +0.000 N 
ENDROOT
BRANCH   9  13
ATOM     13  C   UNL     1       0.307   9.602  20.208  0.00  0.00    +0.000 A 
ATOM     14  C   UNL     1      -0.576  10.107  19.254  0.00  0.00    +0.000 A 
ATOM     15  C   UNL     1      -0.792  11.478  19.130  0.00  0.00    +0.000 A 
ATOM     16  C   UNL     1      -0.291  12.389  20.074  0.00  0.00    +0.000 A 
ATOM     17  C   UNL     1       0.409  11.840  21.162  0.00  0.00    +0.000 A 
ATOM     18  C   UNL     1       0.727  10.476  21.216  0.00  0.00    +0.000 A 
BRANCH  16  19
ATOM     19  C   UNL     1      -0.485  13.850  19.895  0.00  0.00    +0.000 A 
ATOM     20  C   UNL     1      -1.213  14.614  20.830  0.00  0.00    +0.000 A 
ATOM     21  C   UNL     1      -1.448  15.979  20.645  0.00  0.00    +0.000 A 
ATOM     22  C   UNL     1      -0.946  16.623  19.522  0.00  0.00    +0.000 A 
ATOM     23  C   UNL     1      -0.215  15.902  18.584  0.00  0.00    +0.000 A 
ATOM     24  C   UNL     1       0.005  14.530  18.765  0.00  0.00    +0.000 A 
ENDBRANCH  16  19
ENDBRANCH   9  13
BRANCH  12  25
ATOM     25  C   UNL     1       4.545   6.593  16.305  0.00  0.00    +0.000 C 
BRANCH  25  26
ATOM     26  C   UNL     1       6.005   6.577  16.759  0.00  0.00    +0.000 C 
BRANCH  26  27
ATOM     27  C   UNL     1       6.794   5.405  16.164  0.00  0.00    +0.000 C 
BRANCH  27  28
ATOM     28  N   UNL     1       6.567   5.170  14.727  0.00  0.00    +0.000 NA
ATOM     29  C   UNL     1       7.775   5.418  13.923  0.00  0.00    +0.000 C 
ATOM     30  C   UNL     1       7.501   5.209  12.432  0.00  0.00    +0.000 C 
ATOM     31  C   UNL     1       6.976   3.807  12.161  0.00  0.00    +0.000 C 
ATOM     32  C   UNL     1       5.772   3.516  13.049  0.00  0.00    +0.000 C 
ATOM     33  C   UNL     1       6.087   3.789  14.519  0.00  0.00    +0.000 C 
ENDBRANCH  27  28
ENDBRANCH  26  27
ENDBRANCH  25  26
ENDBRANCH  12  25
TORSDOF 6
ENDMDL
MODEL 5
REMARK VINA RESULT:      -7.1      4.355     11.342
REMARK  Name = 
REMARK  6 active torsions:
REMARK  status: ('A' for Active; 'I' for Inactive)
REMARK    1  A    between atoms: N_9  and  C_10
REMARK    2  A    between atoms: C_13  and  C_14
REMARK    3  A    between atoms: N_24  and  C_25
REMARK    4  A    between atoms: C_25  and  C_26
REMARK    5  A    between atoms: C_26  and  C_27
REMARK    6  A    between atoms: C_27  and  N_28
REMARK                            x       y       z     vdW  Elec       q    Type
REMARK                         _______ _______ _______ _____ _____    ______ ____
ROOT
ATOM      1 CL   UNL     1       1.266   2.260  22.137  0.00  0.00    +0.000 Cl
ATOM      2  C   UNL     1       1.941   3.233  20.891  0.00  0.00    +0.000 A 
ATOM      3  C   UNL     1       2.768   2.650  19.940  0.00  0.00    +0.000 A 
ATOM      4  C   UNL     1       3.336   3.430  18.928  0.00  0.00    +0.000 A 
ATOM      5  C   UNL     1       3.120   4.819  18.862  0.00  0.00    +0.000 A 
ATOM      6  C   UNL     1       2.273   5.394  19.855  0.00  0.00    +0.000 A 
ATOM      7  C   UNL     1       1.675   4.599  20.850  0.00  0.00    +0.000 A 
ATOM      8  C   UNL     1       2.059   6.879  19.886  0.00  0.00    +0.000 A 
ATOM      9  N   UNL     1       1.098   7.386  20.622  0.00  0.00    +0.000 NA
ATOM     10  C   UNL     1       3.013   7.649  19.036  0.00  0.00    +0.000 A 
ATOM     11  C   UNL     1       3.693   7.010  18.083  0.00  0.00    +0.000 A 
ATOM     12  N   UNL     1       3.739   5.647  17.897  0.00  0.00    +0.000 N 
ENDROOT
BRANCH   9  13
ATOM     13  C   UNL     1       0.879   8.776  20.687  0.00  0.00    +0.000 A 
ATOM     14  C   UNL     1       0.823   9.485  21.888  0.00  0.00    +0.000 A 
ATOM     15  C   UNL     1       0.295  10.773  21.936  0.00  0.00    +0.000 A 
ATOM     16  C   UNL     1      -0.019  11.483  20.766  0.00  0.00    +0.000 A 
ATOM     17  C   UNL     1       0.259  10.837  19.549  0.00  0.00    +0.000 A 
ATOM     18  C   UNL     1       0.675   9.499  19.508  0.00  0.00    +0.000 A 
BRANCH  16  19
ATOM     19  C   UNL     1      -0.631  12.833  20.839  0.00  0.00    +0.000 A 
ATOM     20  C   UNL     1      -1.570  13.161  21.838  0.00  0.00    +0.000 A 
ATOM     21  C   UNL     1      -2.193  14.411  21.885  0.00  0.00    +0.000 A 
ATOM     22  C   UNL     1      -1.879  15.378  20.938  0.00  0.00    +0.000 A 
ATOM     23  C   UNL     1      -0.949  15.092  19.944  0.00  0.00    +0.000 A 
ATOM     24  C   UNL     1      -0.340  13.832  19.891  0.00  0.00    +0.000 A 
ENDBRANCH  16  19
ENDBRANCH   9  13
BRANCH  12  25
ATOM     25  C   UNL     1       4.553   5.081  16.801  0.00  0.00    +0.000 C 
BRANCH  25  26
ATOM     26  C   UNL     1       5.660   6.057  16.401  0.00  0.00    +0.000 C 
BRANCH  26  27
ATOM     27  C   UNL     1       6.823   5.364  15.680  0.00  0.00    +0.000 C 
BRANCH  27  28
ATOM     28  N   UNL     1       6.598   5.103  14.247  0.00  0.00    +0.000 NA
ATOM     29  C   UNL     1       7.801   5.357  13.438  0.00  0.00    +0.000 C 
ATOM     30  C   UNL     1       7.528   5.121  11.951  0.00  0.00    +0.000 C 
ATOM     31  C   UNL     1       7.024   3.706  11.703  0.00  0.00    +0.000 C 
ATOM     32  C   UNL     1       5.826   3.411  12.597  0.00  0.00    +0.000 C 
ATOM     33  C   UNL     1       6.139   3.712  14.063  0.00  0.00    +0.000 C 
ENDBRANCH  27  28
ENDBRANCH  26  27
ENDBRANCH  25  26
ENDBRANCH  12  25
TORSDOF 6
ENDMDL
MODEL 6
REMARK VINA RESULT:      -7.1      4.427      7.924
REMARK  Name = 
REMARK  6 active torsions:
REMARK  status: ('A' for Active; 'I' for Inactive)
REMARK    1  A    between atoms: N_9  and  C_10
REMARK    2  A    between atoms: C_13  and  C_14
REMARK    3  A    between atoms: N_24  and  C_25
REMARK    4  A    between atoms: C_25  and  C_26
REMARK    5  A    between atoms: C_26  and  C_27
REMARK    6  A    between atoms: C_27  and  N_28
REMARK                            x       y       z     vdW  Elec       q    Type
REMARK                         _______ _______ _______ _____ _____    ______ ____
ROOT
ATOM      1 CL   UNL     1      -3.162  14.480  21.205  0.00  0.00    +0.000 Cl
ATOM      2  C   UNL     1      -1.556  14.482  20.591  0.00  0.00    +0.000 A 
ATOM      3  C   UNL     1      -0.899  15.691  20.398  0.00  0.00    +0.000 A 
ATOM      4  C   UNL     1       0.403  15.710  19.886  0.00  0.00    +0.000 A 
ATOM      5  C   UNL     1       1.067  14.524  19.521  0.00  0.00    +0.000 A 
ATOM      6  C   UNL     1       0.367  13.298  19.722  0.00  0.00    +0.000 A 
ATOM      7  C   UNL     1      -0.929  13.281  20.271  0.00  0.00    +0.000 A 
ATOM      8  C   UNL     1       0.988  12.003  19.287  0.00  0.00    +0.000 A 
ATOM      9  N   UNL     1       0.476  10.863  19.690  0.00  0.00    +0.000 NA
ATOM     10  C   UNL     1       2.176  12.166  18.399  0.00  0.00    +0.000 A 
ATOM     11  C   UNL     1       2.796  13.346  18.356  0.00  0.00    +0.000 A 
ATOM     12  N   UNL     1       2.352  14.515  18.932  0.00  0.00    +0.000 N 
ENDROOT
BRANCH   9  13
ATOM     13  C   UNL     1       1.024   9.630  19.288  0.00  0.00    +0.000 A 
ATOM     14  C   UNL     1       1.375   8.621  20.186  0.00  0.00    +0.000 A 
ATOM     15  C   UNL     1       2.195   7.565  19.793  0.00  0.00    +0.000 A 
ATOM     16  C   UNL     1       2.540   7.364  18.447  0.00  0.00    +0.000 A 
ATOM     17  C   UNL     1       1.987   8.263  17.519  0.00  0.00    +0.000 A 
ATOM     18  C   UNL     1       1.265   9.391  17.932  0.00  0.00    +0.000 A 
BRANCH  16  19
ATOM     19  C   UNL     1       3.458   6.266  18.055  0.00  0.00    +0.000 A 
ATOM     20  C   UNL     1       3.228   4.935  18.461  0.00  0.00    +0.000 A 
ATOM     21  C   UNL     1       4.114   3.903  18.144  0.00  0.00    +0.000 A 
ATOM     22  C   UNL     1       5.253   4.171  17.395  0.00  0.00    +0.000 A 
ATOM     23  C   UNL     1       5.506   5.471  16.969  0.00  0.00    +0.000 A 
ATOM     24  C   UNL     1       4.624   6.506  17.303  0.00  0.00    +0.000 A 
ENDBRANCH  16  19
ENDBRANCH   9  13
BRANCH  12  25
ATOM     25  C   UNL     1       3.145  15.753  18.787  0.00  0.00    +0.000 C 
BRANCH  25  26
ATOM     26  C   UNL     1       4.440  15.471  18.023  0.00  0.00    +0.000 C 
BRANCH  26  27
ATOM     27  C   UNL     1       5.676  16.038  18.731  0.00  0.00    +0.000 C 
BRANCH  27  28
ATOM     28  N   UNL     1       6.938  15.339  18.433  0.00  0.00    +0.000 NA
ATOM     29  C   UNL     1       7.730  15.073  19.646  0.00  0.00    +0.000 C 
ATOM     30  C   UNL     1       9.053  14.386  19.303  0.00  0.00    +0.000 C 
ATOM     31  C   UNL     1       8.818  13.089  18.542  0.00  0.00    +0.000 C 
ATOM     32  C   UNL     1       7.934  13.345  17.329  0.00  0.00    +0.000 C 
ATOM     33  C   UNL     1       6.651  14.078  17.721  0.00  0.00    +0.000 C 
ENDBRANCH  27  28
ENDBRANCH  26  27
ENDBRANCH  25  26
ENDBRANCH  12  25
TORSDOF 6
ENDMDL
MODEL 7
REMARK VINA RESULT:      -7.1      4.178      7.631
REMARK  Name = 
REMARK  6 active torsions:
REMARK  status: ('A' for Active; 'I' for Inactive)
REMARK    1  A    between atoms: N_9  and  C_10
REMARK    2  A    between atoms: C_13  and  C_14
REMARK    3  A    between atoms: N_24  and  C_25
REMARK    4  A    between atoms: C_25  and  C_26
REMARK    5  A    between atoms: C_26  and  C_27
REMARK    6  A    between atoms: C_27  and  N_28
REMARK                            x       y       z     vdW  Elec       q    Type
REMARK                         _______ _______ _______ _____ _____    ______ ____
ROOT
ATOM      1 CL   UNL     1      -2.391  13.290  23.873  0.00  0.00    +0.000 Cl
ATOM      2  C   UNL     1      -1.116  13.564  22.752  0.00  0.00    +0.000 A 
ATOM      3  C   UNL     1      -0.665  14.858  22.531  0.00  0.00    +0.000 A 
ATOM      4  C   UNL     1       0.362  15.099  21.613  0.00  0.00    +0.000 A 
ATOM      5  C   UNL     1       0.939  14.055  20.866  0.00  0.00    +0.000 A 
ATOM      6  C   UNL     1       0.452  12.736  21.106  0.00  0.00    +0.000 A 
ATOM      7  C   UNL     1      -0.556  12.495  22.058  0.00  0.00    +0.000 A 
ATOM      8  C   UNL     1       0.974  11.588  20.293  0.00  0.00    +0.000 A 
ATOM      9  N   UNL     1       0.728  10.354  20.670  0.00  0.00    +0.000 NA
ATOM     10  C   UNL     1       1.750  11.998  19.087  0.00  0.00    +0.000 A 
ATOM     11  C   UNL     1       2.222  13.243  19.013  0.00  0.00    +0.000 A 
ATOM     12  N   UNL     1       1.926  14.273  19.877  0.00  0.00    +0.000 N 
ENDROOT
BRANCH   9  13
ATOM     13  C   UNL     1       1.187   9.253  19.922  0.00  0.00    +0.000 A 
ATOM     14  C   UNL     1       1.643   8.070  20.505  0.00  0.00    +0.000 A 
ATOM     15  C   UNL     1       2.377   7.143  19.768  0.00  0.00    +0.000 A 
ATOM     16  C   UNL     1       2.521   7.261  18.376  0.00  0.00    +0.000 A 
ATOM     17  C   UNL     1       1.859   8.341  17.767  0.00  0.00    +0.000 A 
ATOM     18  C   UNL     1       1.226   9.334  18.527  0.00  0.00    +0.000 A 
BRANCH  16  19
ATOM     19  C   UNL     1       3.352   6.294  17.615  0.00  0.00    +0.000 A 
ATOM     20  C   UNL     1       3.146   4.903  17.724  0.00  0.00    +0.000 A 
ATOM     21  C   UNL     1       3.956   3.982  17.055  0.00  0.00    +0.000 A 
ATOM     22  C   UNL     1       4.990   4.429  16.242  0.00  0.00    +0.000 A 
ATOM     23  C   UNL     1       5.216   5.795  16.104  0.00  0.00    +0.000 A 
ATOM     24  C   UNL     1       4.411   6.714  16.790  0.00  0.00    +0.000 A 
ENDBRANCH  16  19
ENDBRANCH   9  13
BRANCH  12  25
ATOM     25  C   UNL     1       2.518  15.609  19.658  0.00  0.00    +0.000 C 
BRANCH  25  26
ATOM     26  C   UNL     1       4.024  15.574  19.921  0.00  0.00    +0.000 C 
BRANCH  26  27
ATOM     27  C   UNL     1       4.850  15.781  18.645  0.00  0.00    +0.000 C 
BRANCH  27  28
ATOM     28  N   UNL     1       6.284  15.470  18.776  0.00  0.00    +0.000 NA
ATOM     29  C   UNL     1       6.644  15.063  20.145  0.00  0.00    +0.000 C 
ATOM     30  C   UNL     1       8.144  14.788  20.264  0.00  0.00    +0.000 C 
ATOM     31  C   UNL     1       8.588  13.722  19.272  0.00  0.00    +0.000 C 
ATOM     32  C   UNL     1       8.149  14.101  17.863  0.00  0.00    +0.000 C 
ATOM     33  C   UNL     1       6.653  14.414  17.813  0.00  0.00    +0.000 C 
ENDBRANCH  27  28
ENDBRANCH  26  27
ENDBRANCH  25  26
ENDBRANCH  12  25
TORSDOF 6
ENDMDL
MODEL 8
REMARK VINA RESULT:      -7.0      3.086      4.073
REMARK  Name = 
REMARK  6 active torsions:
REMARK  status: ('A' for Active; 'I' for Inactive)
REMARK    1  A    between atoms: N_9  and  C_10
REMARK    2  A    between atoms: C_13  and  C_14
REMARK    3  A    between atoms: N_24  and  C_25
REMARK    4  A    between atoms: C_25  and  C_26
REMARK    5  A    between atoms: C_26  and  C_27
REMARK    6  A    between atoms: C_27  and  N_28
REMARK                            x       y       z     vdW  Elec       q    Type
REMARK                         _______ _______ _______ _____ _____    ______ ____
ROOT
ATOM      1 CL   UNL     1       2.949  15.774  17.869  0.00  0.00    +0.000 Cl
ATOM      2  C   UNL     1       1.629  14.851  18.471  0.00  0.00    +0.000 A 
ATOM      3  C   UNL     1       0.466  15.499  18.868  0.00  0.00    +0.000 A 
ATOM      4  C   UNL     1      -0.612  14.763  19.373  0.00  0.00    +0.000 A 
ATOM      5  C   UNL     1      -0.540  13.366  19.526  0.00  0.00    +0.000 A 
ATOM      6  C   UNL     1       0.668  12.727  19.119  0.00  0.00    +0.000 A 
ATOM      7  C   UNL     1       1.735  13.467  18.578  0.00  0.00    +0.000 A 
ATOM      8  C   UNL     1       0.837  11.250  19.323  0.00  0.00    +0.000 A 
ATOM      9  N   UNL     1       1.822  10.617  18.730  0.00  0.00    +0.000 NA
ATOM     10  C   UNL     1      -0.183  10.639  20.222  0.00  0.00    +0.000 A 
ATOM     11  C   UNL     1      -1.313  11.304  20.467  0.00  0.00    +0.000 A 
ATOM     12  N   UNL     1      -1.582  12.603  20.102  0.00  0.00    +0.000 N 
ENDROOT
BRANCH   9  13
ATOM     13  C   UNL     1       2.021   9.234  18.912  0.00  0.00    +0.000 A 
ATOM     14  C   UNL     1       2.453   8.384  17.894  0.00  0.00    +0.000 A 
ATOM     15  C   UNL     1       2.332   7.002  18.014  0.00  0.00    +0.000 A 
ATOM     16  C   UNL     1       1.958   6.400  19.226  0.00  0.00    +0.000 A 
ATOM     17  C   UNL     1       1.745   7.263  20.314  0.00  0.00    +0.000 A 
ATOM     18  C   UNL     1       1.750   8.656  20.156  0.00  0.00    +0.000 A 
BRANCH  16  19
ATOM     19  C   UNL     1       1.781   4.929  19.320  0.00  0.00    +0.000 A 
ATOM     20  C   UNL     1       1.851   4.106  18.177  0.00  0.00    +0.000 A 
ATOM     21  C   UNL     1       1.633   2.727  18.245  0.00  0.00    +0.000 A 
ATOM     22  C   UNL     1       1.355   2.128  19.467  0.00  0.00    +0.000 A 
ATOM     23  C   UNL     1       1.289   2.909  20.617  0.00  0.00    +0.000 A 
ATOM     24  C   UNL     1       1.492   4.292  20.541  0.00  0.00    +0.000 A 
ENDBRANCH  16  19
ENDBRANCH   9  13
BRANCH  12  25
ATOM     25  C   UNL     1      -2.881  13.213  20.457  0.00  0.00    +0.000 C 
BRANCH  25  26
ATOM     26  C   UNL     1      -2.995  13.379  21.974  0.00  0.00    +0.000 C 
BRANCH  26  27
ATOM     27  C   UNL     1      -4.174  12.597  22.565  0.00  0.00    +0.000 C 
BRANCH  27  28
ATOM     28  N   UNL     1      -5.115  13.402  23.363  0.00  0.00    +0.000 NA
ATOM     29  C   UNL     1      -5.213  14.789  22.879  0.00  0.00    +0.000 C 
ATOM     30  C   UNL     1      -6.162  15.613  23.751  0.00  0.00    +0.000 C 
ATOM     31  C   UNL     1      -7.547  14.983  23.805  0.00  0.00    +0.000 C 
ATOM     32  C   UNL     1      -7.443  13.524  24.230  0.00  0.00    +0.000 C 
ATOM     33  C   UNL     1      -6.445  12.761  23.358  0.00  0.00    +0.000 C 
ENDBRANCH  27  28
ENDBRANCH  26  27
ENDBRANCH  25  26
ENDBRANCH  12  25
TORSDOF 6
ENDMDL
MODEL 9
REMARK VINA RESULT:      -7.0      4.752      8.382
REMARK  Name = 
REMARK  6 active torsions:
REMARK  status: ('A' for Active; 'I' for Inactive)
REMARK    1  A    between atoms: N_9  and  C_10
REMARK    2  A    between atoms: C_13  and  C_14
REMARK    3  A    between atoms: N_24  and  C_25
REMARK    4  A    between atoms: C_25  and  C_26
REMARK    5  A    between atoms: C_26  and  C_27
REMARK    6  A    between atoms: C_27  and  N_28
REMARK                            x       y       z     vdW  Elec       q    Type
REMARK                         _______ _______ _______ _____ _____    ______ ____
ROOT
ATOM      1 CL   UNL     1      -2.492  15.639  20.515  0.00  0.00    +0.000 Cl
ATOM      2  C   UNL     1      -0.879  15.327  20.005  0.00  0.00    +0.000 A 
ATOM      3  C   UNL     1      -0.031  16.392  19.729  0.00  0.00    +0.000 A 
ATOM      4  C   UNL     1       1.279  16.155  19.300  0.00  0.00    +0.000 A 
ATOM      5  C   UNL     1       1.762  14.848  19.103  0.00  0.00    +0.000 A 
ATOM      6  C   UNL     1       0.868  13.773  19.386  0.00  0.00    +0.000 A 
ATOM      7  C   UNL     1      -0.437  14.017  19.851  0.00  0.00    +0.000 A 
ATOM      8  C   UNL     1       1.295  12.358  19.127  0.00  0.00    +0.000 A 
ATOM      9  N   UNL     1       0.591  11.363  19.614  0.00  0.00    +0.000 NA
ATOM     10  C   UNL     1       2.533  12.237  18.303  0.00  0.00    +0.000 A 
ATOM     11  C   UNL     1       3.333  13.296  18.176  0.00  0.00    +0.000 A 
ATOM     12  N   UNL     1       3.055  14.576  18.599  0.00  0.00    +0.000 N 
ENDROOT
BRANCH   9  13
ATOM     13  C   UNL     1       0.954  10.023  19.378  0.00  0.00    +0.000 A 
ATOM     14  C   UNL     1       1.070   9.072  20.392  0.00  0.00    +0.000 A 
ATOM     15  C   UNL     1       1.730   7.865  20.172  0.00  0.00    +0.000 A 
ATOM     16  C   UNL     1       2.129   7.470  18.884  0.00  0.00    +0.000 A 
ATOM     17  C   UNL     1       1.799   8.342  17.832  0.00  0.00    +0.000 A 
ATOM     18  C   UNL     1       1.245   9.607  18.075  0.00  0.00    +0.000 A 
BRANCH  16  19
ATOM     19  C   UNL     1       2.878   6.206  18.678  0.00  0.00    +0.000 A 
ATOM     20  C   UNL     1       2.388   5.191  17.830  0.00  0.00    +0.000 A 
ATOM     21  C   UNL     1       3.058   3.975  17.670  0.00  0.00    +0.000 A 
ATOM     22  C   UNL     1       4.251   3.746  18.343  0.00  0.00    +0.000 A 
ATOM     23  C   UNL     1       4.769   4.730  19.180  0.00  0.00    +0.000 A 
ATOM     24  C   UNL     1       4.086   5.941  19.350  0.00  0.00    +0.000 A 
ENDBRANCH  16  19
ENDBRANCH   9  13
BRANCH  12  25
ATOM     25  C   UNL     1       4.040  15.655  18.375  0.00  0.00    +0.000 C 
BRANCH  25  26
ATOM     26  C   UNL     1       5.363  15.320  19.066  0.00  0.00    +0.000 C 
BRANCH  26  27
ATOM     27  C   UNL     1       6.582  15.788  18.261  0.00  0.00    +0.000 C 
BRANCH  27  28
ATOM     28  N   UNL     1       7.763  14.911  18.357  0.00  0.00    +0.000 NA
ATOM     29  C   UNL     1       8.106  14.588  19.752  0.00  0.00    +0.000 C 
ATOM     30  C   UNL     1       9.359  13.714  19.825  0.00  0.00    +0.000 C 
ATOM     31  C   UNL     1       9.183  12.432  19.023  0.00  0.00    +0.000 C 
ATOM     32  C   UNL     1       8.751  12.759  17.600  0.00  0.00    +0.000 C 
ATOM     33  C   UNL     1       7.526  13.674  17.587  0.00  0.00    +0.000 C 
ENDBRANCH  27  28
ENDBRANCH  26  27
ENDBRANCH  25  26
ENDBRANCH  12  25
TORSDOF 6
ENDMDL
