MODEL 1
REMARK VINA RESULT:      -7.9      0.000      0.000
REMARK  Name = 
REMARK  6 active torsions:
REMARK  status: ('A' for Active; 'I' for Inactive)
REMARK    1  A    between atoms: C_2  and  C_3
REMARK    2  A    between atoms: C_8  and  S_9
REMARK    3  A    between atoms: S_9  and  C_10
REMARK    4  A    between atoms: C_11  and  O_12
REMARK    5  A    between atoms: C_14  and  C_15
REMARK    6  A    between atoms: C_21  and  C_22
REMARK                            x       y       z     vdW  Elec       q    Type
REMARK                         _______ _______ _______ _____ _____    ______ ____
ROOT
ATOM      1  C   UNL     1       1.100   9.221  19.590  0.00  0.00    +0.000 C 
ATOM      2  C   UNL     1       1.504   8.452  20.626  0.00  0.00    +0.000 C 
ATOM      3  C   UNL     1       2.397   7.246  20.414  0.00  0.00    +0.000 C 
ATOM      4  C   UNL     1       2.132   6.696  18.995  0.00  0.00    +0.000 C 
ATOM      5  C   UNL     1       2.487   7.764  17.956  0.00  0.00    +0.000 C 
ATOM      6  C   UNL     1       1.822   9.081  18.282  0.00  0.00    +0.000 C 
ATOM      7  O   UNL     1       1.923  10.025  17.498  0.00  0.00    +0.000 OA
ENDROOT
BRANCH   4   8
ATOM      8  C   UNL     1       2.699   5.333  18.602  0.00  0.00    +0.000 A 
ATOM      9  C   UNL     1       3.662   5.203  17.571  0.00  0.00    +0.000 A 
ATOM     10 CL   UNL     1       4.516   6.543  16.886  0.00  0.00    +0.000 Cl
ATOM     11  C   UNL     1       3.974   3.958  17.015  0.00  0.00    +0.000 A 
ATOM     12  C   UNL     1       3.346   2.808  17.462  0.00  0.00    +0.000 A 
ATOM     13  C   UNL     1       2.462   2.892  18.528  0.00  0.00    +0.000 A 
ATOM     14  C   UNL     1       2.152   4.128  19.144  0.00  0.00    +0.000 A 
BRANCH  14  15
ATOM     15  C   UNL     1       1.227   3.998  20.352  0.00  0.00    +0.000 C 
ATOM     16  F   UNL     1       0.163   4.840  20.396  0.00  0.00    +0.000 F 
ATOM     17  F   UNL     1       0.718   2.741  20.471  0.00  0.00    +0.000 F 
ATOM     18  F   UNL     1       1.899   4.231  21.520  0.00  0.00    +0.000 F 
ENDBRANCH  14  15
ENDBRANCH   4   8
BRANCH   2  19
ATOM     19  O   UNL     1       0.984   8.533  21.904  0.00  0.00    +0.000 OA
ATOM     20  H   UNL     1       0.009   8.541  21.866  0.00  0.00    +0.000 HD
ENDBRANCH   2  19
BRANCH   1  21
ATOM     21  S   UNL     1      -0.483   9.927  19.548  0.00  0.00    +0.000 S 
BRANCH  21  27
ATOM     22  C   UNL     1      -0.201  12.242  21.066  0.00  0.00    +0.000 A 
ATOM     23  C   UNL     1      -0.024  13.620  21.212  0.00  0.00    +0.000 A 
ATOM     24  C   UNL     1       0.162  14.426  20.087  0.00  0.00    +0.000 A 
ATOM     25  C   UNL     1       0.160  13.863  18.819  0.00  0.00    +0.000 A 
ATOM     26  C   UNL     1      -0.017  12.489  18.664  0.00  0.00    +0.000 A 
ATOM     27  C   UNL     1      -0.173  11.660  19.786  0.00  0.00    +0.000 A 
BRANCH  22  29
ATOM     28  N   UNL     1      -0.557  10.778  23.181  0.00  0.00    +0.000 NA
ATOM     29  C   UNL     1      -0.430  11.442  22.239  0.00  0.00    +0.000 C 
ENDBRANCH  22  29
ENDBRANCH  21  27
ENDBRANCH   1  21
TORSDOF 6
ENDMDL
MODEL 2
REMARK VINA RESULT:      -7.8      1.408      1.738
REMARK  Name = 
REMARK  6 active torsions:
REMARK  status: ('A' for Active; 'I' for Inactive)
REMARK    1  A    between atoms: C_2  and  C_3
REMARK    2  A    between atoms: C_8  and  S_9
REMARK    3  A    between atoms: S_9  and  C_10
REMARK    4  A    between atoms: C_11  and  O_12
REMARK    5  A    between atoms: C_14  and  C_15
REMARK    6  A    between atoms: C_21  and  C_22
REMARK                            x       y       z     vdW  Elec       q    Type
REMARK                         _______ _______ _______ _____ _____    ______ ____
ROOT
ATOM      1  C   UNL     1       1.263   9.062  19.613  0.00  0.00    +0.000 C 
ATOM      2  C   UNL     1       1.743   8.316  20.633  0.00  0.00    +0.000 C 
ATOM      3  C   UNL     1       2.589   7.084  20.382  0.00  0.00    +0.000 C 
ATOM      4  C   UNL     1       2.187   6.497  19.011  0.00  0.00    +0.000 C 
ATOM      5  C   UNL     1       2.469   7.526  17.910  0.00  0.00    +0.000 C 
ATOM      6  C   UNL     1       1.862   8.867  18.250  0.00  0.00    +0.000 C 
ATOM      7  O   UNL     1       1.911   9.784  17.431  0.00  0.00    +0.000 OA
ENDROOT
BRANCH   4   8
ATOM      8  C   UNL     1       2.690   5.111  18.613  0.00  0.00    +0.000 A 
ATOM      9  C   UNL     1       3.615   4.936  17.555  0.00  0.00    +0.000 A 
ATOM     10 CL   UNL     1       4.498   6.236  16.831  0.00  0.00    +0.000 Cl
ATOM     11  C   UNL     1       3.863   3.675  17.001  0.00  0.00    +0.000 A 
ATOM     12  C   UNL     1       3.205   2.554  17.478  0.00  0.00    +0.000 A 
ATOM     13  C   UNL     1       2.358   2.680  18.569  0.00  0.00    +0.000 A 
ATOM     14  C   UNL     1       2.114   3.932  19.183  0.00  0.00    +0.000 A 
BRANCH  14  15
ATOM     15  C   UNL     1       1.223   3.848  20.419  0.00  0.00    +0.000 C 
ATOM     16  F   UNL     1       0.189   4.725  20.485  0.00  0.00    +0.000 F 
ATOM     17  F   UNL     1       0.676   2.609  20.569  0.00  0.00    +0.000 F 
ATOM     18  F   UNL     1       1.937   4.072  21.564  0.00  0.00    +0.000 F 
ENDBRANCH  14  15
ENDBRANCH   4   8
BRANCH   2  19
ATOM     19  O   UNL     1       1.341   8.449  21.948  0.00  0.00    +0.000 OA
ATOM     20  H   UNL     1       1.683   9.285  22.318  0.00  0.00    +0.000 HD
ENDBRANCH   2  19
BRANCH   1  21
ATOM     21  S   UNL     1      -0.304   9.802  19.689  0.00  0.00    +0.000 S 
BRANCH  21  27
ATOM     22  C   UNL     1      -0.641  12.372  18.677  0.00  0.00    +0.000 A 
ATOM     23  C   UNL     1      -0.289  13.719  18.560  0.00  0.00    +0.000 A 
ATOM     24  C   UNL     1       0.762  14.238  19.318  0.00  0.00    +0.000 A 
ATOM     25  C   UNL     1       1.469  13.415  20.183  0.00  0.00    +0.000 A 
ATOM     26  C   UNL     1       1.126  12.070  20.305  0.00  0.00    +0.000 A 
ATOM     27  C   UNL     1       0.051  11.539  19.574  0.00  0.00    +0.000 A 
BRANCH  22  29
ATOM     28  N   UNL     1      -2.592  11.483  17.213  0.00  0.00    +0.000 NA
ATOM     29  C   UNL     1      -1.702  11.856  17.854  0.00  0.00    +0.000 C 
ENDBRANCH  22  29
ENDBRANCH  21  27
ENDBRANCH   1  21
TORSDOF 6
ENDMDL
MODEL 3
REMARK VINA RESULT:      -7.6      5.944      8.246
REMARK  Name = 
REMARK  6 active torsions:
REMARK  status: ('A' for Active; 'I' for Inactive)
REMARK    1  A    between atoms: C_2  and  C_3
REMARK    2  A    between atoms: C_8  and  S_9
REMARK    3  A    between atoms: S_9  and  C_10
REMARK    4  A    between atoms: C_11  and  O_12
REMARK    5  A    between atoms: C_14  and  C_15
REMARK    6  A    between atoms: C_21  and  C_22
REMARK                            x       y       z     vdW  Elec       q    Type
REMARK                         _______ _______ _______ _____ _____    ______ ____
ROOT
ATOM      1  C   UNL     1       6.569   5.977  17.250  0.00  0.00    +0.000 C 
ATOM      2  C   UNL     1       5.419   6.495  16.764  0.00  0.00    +0.000 C 
ATOM      3  C   UNL     1       4.105   6.334  17.501  0.00  0.00    +0.000 C 
ATOM      4  C   UNL     1       4.172   5.026  18.321  0.00  0.00    +0.000 C 
ATOM      5  C   UNL     1       5.308   5.121  19.345  0.00  0.00    +0.000 C 
ATOM      6  C   UNL     1       6.600   5.547  18.688  0.00  0.00    +0.000 C 
ATOM      7  O   UNL     1       7.638   5.582  19.348  0.00  0.00    +0.000 OA
ENDROOT
BRANCH   4   8
ATOM      8  C   UNL     1       2.898   4.475  18.959  0.00  0.00    +0.000 A 
ATOM      9  C   UNL     1       2.077   5.282  19.784  0.00  0.00    +0.000 A 
ATOM     10 CL   UNL     1       2.233   7.001  19.901  0.00  0.00    +0.000 Cl
ATOM     11  C   UNL     1       1.080   4.724  20.592  0.00  0.00    +0.000 A 
ATOM     12  C   UNL     1       0.865   3.357  20.605  0.00  0.00    +0.000 A 
ATOM     13  C   UNL     1       1.596   2.549  19.744  0.00  0.00    +0.000 A 
ATOM     14  C   UNL     1       2.585   3.082  18.882  0.00  0.00    +0.000 A 
BRANCH  14  15
ATOM     15  C   UNL     1       3.214   2.046  17.955  0.00  0.00    +0.000 C 
ATOM     16  F   UNL     1       4.397   2.383  17.380  0.00  0.00    +0.000 F 
ATOM     17  F   UNL     1       3.427   0.858  18.587  0.00  0.00    +0.000 F 
ATOM     18  F   UNL     1       2.391   1.756  16.902  0.00  0.00    +0.000 F 
ENDBRANCH  14  15
ENDBRANCH   4   8
BRANCH   2  19
ATOM     19  O   UNL     1       5.274   7.003  15.487  0.00  0.00    +0.000 OA
ATOM     20  H   UNL     1       6.115   6.920  14.998  0.00  0.00    +0.000 HD
ENDBRANCH   2  19
BRANCH   1  21
ATOM     21  S   UNL     1       7.779   5.311  16.200  0.00  0.00    +0.000 S 
BRANCH  21  27
ATOM     22  C   UNL     1       7.145   4.771  13.545  0.00  0.00    +0.000 A 
ATOM     23  C   UNL     1       6.337   4.223  12.545  0.00  0.00    +0.000 A 
ATOM     24  C   UNL     1       5.205   3.480  12.887  0.00  0.00    +0.000 A 
ATOM     25  C   UNL     1       4.872   3.292  14.220  0.00  0.00    +0.000 A 
ATOM     26  C   UNL     1       5.672   3.836  15.224  0.00  0.00    +0.000 A 
ATOM     27  C   UNL     1       6.831   4.559  14.899  0.00  0.00    +0.000 A 
BRANCH  22  29
ATOM     28  N   UNL     1       9.223   6.191  12.907  0.00  0.00    +0.000 NA
ATOM     29  C   UNL     1       8.282   5.565  13.163  0.00  0.00    +0.000 C 
ENDBRANCH  22  29
ENDBRANCH  21  27
ENDBRANCH   1  21
TORSDOF 6
ENDMDL
MODEL 4
REMARK VINA RESULT:      -7.4      1.168      1.512
REMARK  Name = 
REMARK  6 active torsions:
REMARK  status: ('A' for Active; 'I' for Inactive)
REMARK    1  A    between atoms: C_2  and  C_3
REMARK    2  A    between atoms: C_8  and  S_9
REMARK    3  A    between atoms: S_9  and  C_10
REMARK    4  A    between atoms: C_11  and  O_12
REMARK    5  A    between atoms: C_14  and  C_15
REMARK    6  A    between atoms: C_21  and  C_22
REMARK                            x       y       z     vdW  Elec       q    Type
REMARK                         _______ _______ _______ _____ _____    ______ ____
ROOT
ATOM      1  C   UNL     1       1.318   9.030  19.368  0.00  0.00    +0.000 C 
ATOM      2  C   UNL     1       1.797   8.152  20.278  0.00  0.00    +0.000 C 
ATOM      3  C   UNL     1       2.875   7.150  19.919  0.00  0.00    +0.000 C 
ATOM      4  C   UNL     1       2.757   6.836  18.411  0.00  0.00    +0.000 C 
ATOM      5  C   UNL     1       2.979   8.117  17.601  0.00  0.00    +0.000 C 
ATOM      6  C   UNL     1       2.104   9.240  18.106  0.00  0.00    +0.000 C 
ATOM      7  O   UNL     1       2.086  10.315  17.508  0.00  0.00    +0.000 OA
ENDROOT
BRANCH   4   8
ATOM      8  C   UNL     1       3.546   5.667  17.825  0.00  0.00    +0.000 A 
ATOM      9  C   UNL     1       4.876   5.831  17.365  0.00  0.00    +0.000 A 
ATOM     10 CL   UNL     1       5.836   7.231  17.695  0.00  0.00    +0.000 Cl
ATOM     11  C   UNL     1       5.501   4.858  16.577  0.00  0.00    +0.000 A 
ATOM     12  C   UNL     1       4.833   3.698  16.226  0.00  0.00    +0.000 A 
ATOM     13  C   UNL     1       3.561   3.470  16.732  0.00  0.00    +0.000 A 
ATOM     14  C   UNL     1       2.911   4.412  17.565  0.00  0.00    +0.000 A 
BRANCH  14  15
ATOM     15  C   UNL     1       1.557   3.939  18.087  0.00  0.00    +0.000 C 
ATOM     16  F   UNL     1       1.263   4.243  19.377  0.00  0.00    +0.000 F 
ATOM     17  F   UNL     1       0.526   4.424  17.342  0.00  0.00    +0.000 F 
ATOM     18  F   UNL     1       1.446   2.578  18.021  0.00  0.00    +0.000 F 
ENDBRANCH  14  15
ENDBRANCH   4   8
BRANCH   2  19
ATOM     19  O   UNL     1       1.221   7.921  21.512  0.00  0.00    +0.000 OA
ATOM     20  H   UNL     1       1.112   8.765  21.992  0.00  0.00    +0.000 HD
ENDBRANCH   2  19
BRANCH   1  21
ATOM     21  S   UNL     1      -0.354   9.490  19.344  0.00  0.00    +0.000 S 
BRANCH  21  27
ATOM     22  C   UNL     1      -0.252  11.756  20.955  0.00  0.00    +0.000 A 
ATOM     23  C   UNL     1      -0.290  13.137  21.164  0.00  0.00    +0.000 A 
ATOM     24  C   UNL     1      -0.404  14.007  20.078  0.00  0.00    +0.000 A 
ATOM     25  C   UNL     1      -0.491  13.504  18.789  0.00  0.00    +0.000 A 
ATOM     26  C   UNL     1      -0.455  12.127  18.571  0.00  0.00    +0.000 A 
ATOM     27  C   UNL     1      -0.309  11.239  19.649  0.00  0.00    +0.000 A 
BRANCH  22  29
ATOM     28  N   UNL     1      -0.079  10.219  23.041  0.00  0.00    +0.000 NA
ATOM     29  C   UNL     1      -0.174  10.882  22.095  0.00  0.00    +0.000 C 
ENDBRANCH  22  29
ENDBRANCH  21  27
ENDBRANCH   1  21
TORSDOF 6
ENDMDL
MODEL 5
REMARK VINA RESULT:      -7.2      5.446      9.061
REMARK  Name = 
REMARK  6 active torsions:
REMARK  status: ('A' for Active; 'I' for Inactive)
REMARK    1  A    between atoms: C_2  and  C_3
REMARK    2  A    between atoms: C_8  and  S_9
REMARK    3  A    between atoms: S_9  and  C_10
REMARK    4  A    between atoms: C_11  and  O_12
REMARK    5  A    between atoms: C_14  and  C_15
REMARK    6  A    between atoms: C_21  and  C_22
REMARK                            x       y       z     vdW  Elec       q    Type
REMARK                         _______ _______ _______ _____ _____    ______ ____
ROOT
ATOM      1  C   UNL     1      -1.192  13.027  19.597  0.00  0.00    +0.000 C 
ATOM      2  C   UNL     1      -2.128  12.179  19.114  0.00  0.00    +0.000 C 
ATOM      3  C   UNL     1      -3.580  12.280  19.535  0.00  0.00    +0.000 C 
ATOM      4  C   UNL     1      -3.626  12.881  20.957  0.00  0.00    +0.000 C 
ATOM      5  C   UNL     1      -3.015  14.286  20.941  0.00  0.00    +0.000 C 
ATOM      6  C   UNL     1      -1.658  14.281  20.277  0.00  0.00    +0.000 C 
ATOM      7  O   UNL     1      -0.983  15.311  20.263  0.00  0.00    +0.000 OA
ENDROOT
BRANCH   4   8
ATOM      8  C   UNL     1      -4.939  12.859  21.737  0.00  0.00    +0.000 A 
ATOM      9  C   UNL     1      -6.190  12.965  21.081  0.00  0.00    +0.000 A 
ATOM     10 CL   UNL     1      -6.388  12.809  19.369  0.00  0.00    +0.000 Cl
ATOM     11  C   UNL     1      -7.368  13.229  21.790  0.00  0.00    +0.000 A 
ATOM     12  C   UNL     1      -7.342  13.394  23.164  0.00  0.00    +0.000 A 
ATOM     13  C   UNL     1      -6.146  13.212  23.845  0.00  0.00    +0.000 A 
ATOM     14  C   UNL     1      -4.943  12.903  23.167  0.00  0.00    +0.000 A 
BRANCH  14  15
ATOM     15  C   UNL     1      -3.759  12.657  24.098  0.00  0.00    +0.000 C 
ATOM     16  F   UNL     1      -2.756  13.572  24.063  0.00  0.00    +0.000 F 
ATOM     17  F   UNL     1      -4.145  12.573  25.402  0.00  0.00    +0.000 F 
ATOM     18  F   UNL     1      -3.147  11.466  23.822  0.00  0.00    +0.000 F 
ENDBRANCH  14  15
ENDBRANCH   4   8
BRANCH   2  19
ATOM     19  O   UNL     1      -1.842  11.032  18.398  0.00  0.00    +0.000 OA
ATOM     20  H   UNL     1      -2.443  10.312  18.669  0.00  0.00    +0.000 HD
ENDBRANCH   2  19
BRANCH   1  21
ATOM     21  S   UNL     1       0.423  12.496  19.938  0.00  0.00    +0.000 S 
BRANCH  21  27
ATOM     22  C   UNL     1       0.496   9.792  20.591  0.00  0.00    +0.000 A 
ATOM     23  C   UNL     1       0.229   8.707  21.430  0.00  0.00    +0.000 A 
ATOM     24  C   UNL     1      -0.365   8.913  22.675  0.00  0.00    +0.000 A 
ATOM     25  C   UNL     1      -0.704  10.196  23.081  0.00  0.00    +0.000 A 
ATOM     26  C   UNL     1      -0.443  11.284  22.251  0.00  0.00    +0.000 A 
ATOM     27  C   UNL     1       0.184  11.098  21.008  0.00  0.00    +0.000 A 
BRANCH  22  29
ATOM     28  N   UNL     1       1.495   9.305  18.244  0.00  0.00    +0.000 NA
ATOM     29  C   UNL     1       1.073   9.545  19.296  0.00  0.00    +0.000 C 
ENDBRANCH  22  29
ENDBRANCH  21  27
ENDBRANCH   1  21
TORSDOF 6
ENDMDL
MODEL 6
REMARK VINA RESULT:      -7.2      6.379      7.843
REMARK  Name = 
REMARK  6 active torsions:
REMARK  status: ('A' for Active; 'I' for Inactive)
REMARK    1  A    between atoms: C_2  and  C_3
REMARK    2  A    between atoms: C_8  and  S_9
REMARK    3  A    between atoms: S_9  and  C_10
REMARK    4  A    between atoms: C_11  and  O_12
REMARK    5  A    between atoms: C_14  and  C_15
REMARK    6  A    between atoms: C_21  and  C_22
REMARK                            x       y       z     vdW  Elec       q    Type
REMARK                         _______ _______ _______ _____ _____    ______ ____
ROOT
ATOM      1  C   UNL     1      -0.791  13.396  22.290  0.00  0.00    +0.000 C 
ATOM      2  C   UNL     1      -0.744  12.047  22.220  0.00  0.00    +0.000 C 
ATOM      3  C   UNL     1      -1.057  11.311  20.933  0.00  0.00    +0.000 C 
ATOM      4  C   UNL     1      -2.042  12.174  20.114  0.00  0.00    +0.000 C 
ATOM      5  C   UNL     1      -1.386  13.515  19.771  0.00  0.00    +0.000 C 
ATOM      6  C   UNL     1      -0.812  14.171  21.005  0.00  0.00    +0.000 C 
ATOM      7  O   UNL     1      -0.332  15.302  20.927  0.00  0.00    +0.000 OA
ENDROOT
BRANCH   4   8
ATOM      8  C   UNL     1      -2.732  11.568  18.893  0.00  0.00    +0.000 A 
ATOM      9  C   UNL     1      -2.002  10.856  17.909  0.00  0.00    +0.000 A 
ATOM     10 CL   UNL     1      -0.369  10.328  18.126  0.00  0.00    +0.000 Cl
ATOM     11  C   UNL     1      -2.562  10.547  16.665  0.00  0.00    +0.000 A 
ATOM     12  C   UNL     1      -3.856  10.931  16.358  0.00  0.00    +0.000 A 
ATOM     13  C   UNL     1      -4.625  11.554  17.331  0.00  0.00    +0.000 A 
ATOM     14  C   UNL     1      -4.107  11.846  18.616  0.00  0.00    +0.000 A 
BRANCH  14  15
ATOM     15  C   UNL     1      -5.134  12.453  19.568  0.00  0.00    +0.000 C 
ATOM     16  F   UNL     1      -5.230  11.889  20.799  0.00  0.00    +0.000 F 
ATOM     17  F   UNL     1      -4.911  13.781  19.779  0.00  0.00    +0.000 F 
ATOM     18  F   UNL     1      -6.398  12.374  19.054  0.00  0.00    +0.000 F 
ENDBRANCH  14  15
ENDBRANCH   4   8
BRANCH   2  19
ATOM     19  O   UNL     1      -0.640  11.215  23.318  0.00  0.00    +0.000 OA
ATOM     20  H   UNL     1      -1.456  10.688  23.414  0.00  0.00    +0.000 HD
ENDBRANCH   2  19
BRANCH   1  21
ATOM     21  S   UNL     1      -1.354  14.210  23.714  0.00  0.00    +0.000 S 
BRANCH  21  27
ATOM     22  C   UNL     1      -3.952  15.023  23.137  0.00  0.00    +0.000 A 
ATOM     23  C   UNL     1      -5.339  14.862  23.158  0.00  0.00    +0.000 A 
ATOM     24  C   UNL     1      -5.902  13.703  23.696  0.00  0.00    +0.000 A 
ATOM     25  C   UNL     1      -5.087  12.712  24.221  0.00  0.00    +0.000 A 
ATOM     26  C   UNL     1      -3.702  12.864  24.206  0.00  0.00    +0.000 A 
ATOM     27  C   UNL     1      -3.117  14.009  23.639  0.00  0.00    +0.000 A 
BRANCH  22  29
ATOM     28  N   UNL     1      -2.905  17.202  22.188  0.00  0.00    +0.000 NA
ATOM     29  C   UNL     1      -3.401  16.245  22.614  0.00  0.00    +0.000 C 
ENDBRANCH  22  29
ENDBRANCH  21  27
ENDBRANCH   1  21
TORSDOF 6
ENDMDL
MODEL 7
REMARK VINA RESULT:      -7.2      5.658      8.992
REMARK  Name = 
REMARK  6 active torsions:
REMARK  status: ('A' for Active; 'I' for Inactive)
REMARK    1  A    between atoms: C_2  and  C_3
REMARK    2  A    between atoms: C_8  and  S_9
REMARK    3  A    between atoms: S_9  and  C_10
REMARK    4  A    between atoms: C_11  and  O_12
REMARK    5  A    between atoms: C_14  and  C_15
REMARK    6  A    between atoms: C_21  and  C_22
REMARK                            x       y       z     vdW  Elec       q    Type
REMARK                         _______ _______ _______ _____ _____    ______ ____
ROOT
ATOM      1  C   UNL     1      -1.091  13.426  21.046  0.00  0.00    +0.000 C 
ATOM      2  C   UNL     1      -1.914  14.447  20.718  0.00  0.00    +0.000 C 
ATOM      3  C   UNL     1      -3.367  14.461  21.148  0.00  0.00    +0.000 C 
ATOM      4  C   UNL     1      -3.839  12.997  21.293  0.00  0.00    +0.000 C 
ATOM      5  C   UNL     1      -3.008  12.295  22.372  0.00  0.00    +0.000 C 
ATOM      6  C   UNL     1      -1.529  12.484  22.130  0.00  0.00    +0.000 C 
ATOM      7  O   UNL     1      -0.714  11.906  22.849  0.00  0.00    +0.000 OA
ENDROOT
BRANCH   4   8
ATOM      8  C   UNL     1      -5.328  12.704  21.463  0.00  0.00    +0.000 A 
ATOM      9  C   UNL     1      -6.007  13.008  22.669  0.00  0.00    +0.000 A 
ATOM     10 CL   UNL     1      -5.341  14.001  23.918  0.00  0.00    +0.000 Cl
ATOM     11  C   UNL     1      -7.280  12.493  22.940  0.00  0.00    +0.000 A 
ATOM     12  C   UNL     1      -7.917  11.668  22.029  0.00  0.00    +0.000 A 
ATOM     13  C   UNL     1      -7.313  11.421  20.803  0.00  0.00    +0.000 A 
ATOM     14  C   UNL     1      -6.044  11.957  20.476  0.00  0.00    +0.000 A 
BRANCH  14  15
ATOM     15  C   UNL     1      -5.593  11.642  19.052  0.00  0.00    +0.000 C 
ATOM     16  F   UNL     1      -4.479  10.878  18.923  0.00  0.00    +0.000 F 
ATOM     17  F   UNL     1      -6.567  11.013  18.337  0.00  0.00    +0.000 F 
ATOM     18  F   UNL     1      -5.310  12.785  18.356  0.00  0.00    +0.000 F 
ENDBRANCH  14  15
ENDBRANCH   4   8
BRANCH   2  19
ATOM     19  O   UNL     1      -1.603  15.432  19.799  0.00  0.00    +0.000 OA
ATOM     20  H   UNL     1      -2.322  16.091  19.763  0.00  0.00    +0.000 HD
ENDBRANCH   2  19
BRANCH   1  21
ATOM     21  S   UNL     1       0.134  12.862  19.955  0.00  0.00    +0.000 S 
BRANCH  21  27
ATOM     22  C   UNL     1      -0.556  10.367  18.936  0.00  0.00    +0.000 A 
ATOM     23  C   UNL     1      -1.210   9.532  18.026  0.00  0.00    +0.000 A 
ATOM     24  C   UNL     1      -2.038  10.077  17.043  0.00  0.00    +0.000 A 
ATOM     25  C   UNL     1      -2.206  11.452  16.959  0.00  0.00    +0.000 A 
ATOM     26  C   UNL     1      -1.558  12.293  17.862  0.00  0.00    +0.000 A 
ATOM     27  C   UNL     1      -0.747  11.759  18.877  0.00  0.00    +0.000 A 
BRANCH  22  29
ATOM     28  N   UNL     1       0.989   9.263  20.707  0.00  0.00    +0.000 NA
ATOM     29  C   UNL     1       0.322   9.779  19.912  0.00  0.00    +0.000 C 
ENDBRANCH  22  29
ENDBRANCH  21  27
ENDBRANCH   1  21
TORSDOF 6
ENDMDL
MODEL 8
REMARK VINA RESULT:      -7.2      1.782      2.215
REMARK  Name = 
REMARK  6 active torsions:
REMARK  status: ('A' for Active; 'I' for Inactive)
REMARK    1  A    between atoms: C_2  and  C_3
REMARK    2  A    between atoms: C_8  and  S_9
REMARK    3  A    between atoms: S_9  and  C_10
REMARK    4  A    between atoms: C_11  and  O_12
REMARK    5  A    between atoms: C_14  and  C_15
REMARK    6  A    between atoms: C_21  and  C_22
REMARK                            x       y       z     vdW  Elec       q    Type
REMARK                         _______ _______ _______ _____ _____    ______ ____
ROOT
ATOM      1  C   UNL     1       1.211   9.161  19.152  0.00  0.00    +0.000 C 
ATOM      2  C   UNL     1       1.544   8.255  20.098  0.00  0.00    +0.000 C 
ATOM      3  C   UNL     1       2.636   7.230  19.862  0.00  0.00    +0.000 C 
ATOM      4  C   UNL     1       2.707   6.946  18.346  0.00  0.00    +0.000 C 
ATOM      5  C   UNL     1       3.065   8.235  17.598  0.00  0.00    +0.000 C 
ATOM      6  C   UNL     1       2.159   9.372  18.009  0.00  0.00    +0.000 C 
ATOM      7  O   UNL     1       2.246  10.458  17.435  0.00  0.00    +0.000 OA
ENDROOT
BRANCH   4   8
ATOM      8  C   UNL     1       3.538   5.767  17.843  0.00  0.00    +0.000 A 
ATOM      9  C   UNL     1       4.889   5.929  17.450  0.00  0.00    +0.000 A 
ATOM     10 CL   UNL     1       5.818   7.349  17.785  0.00  0.00    +0.000 Cl
ATOM     11  C   UNL     1       5.565   4.937  16.731  0.00  0.00    +0.000 A 
ATOM     12  C   UNL     1       4.927   3.759  16.383  0.00  0.00    +0.000 A 
ATOM     13  C   UNL     1       3.631   3.535  16.826  0.00  0.00    +0.000 A 
ATOM     14  C   UNL     1       2.929   4.497  17.591  0.00  0.00    +0.000 A 
BRANCH  14  15
ATOM     15  C   UNL     1       1.552   4.028  18.055  0.00  0.00    +0.000 C 
ATOM     16  F   UNL     1       1.199   4.343  19.327  0.00  0.00    +0.000 F 
ATOM     17  F   UNL     1       0.556   4.505  17.258  0.00  0.00    +0.000 F 
ATOM     18  F   UNL     1       1.445   2.666  17.995  0.00  0.00    +0.000 F 
ENDBRANCH  14  15
ENDBRANCH   4   8
BRANCH   2  19
ATOM     19  O   UNL     1       0.806   8.018  21.242  0.00  0.00    +0.000 OA
ATOM     20  H   UNL     1       1.399   7.978  22.018  0.00  0.00    +0.000 HD
ENDBRANCH   2  19
BRANCH   1  21
ATOM     21  S   UNL     1      -0.432   9.666  18.921  0.00  0.00    +0.000 S 
BRANCH  21  27
ATOM     22  C   UNL     1      -1.567  12.136  19.514  0.00  0.00    +0.000 A 
ATOM     23  C   UNL     1      -1.554  13.402  20.106  0.00  0.00    +0.000 A 
ATOM     24  C   UNL     1      -0.470  13.796  20.893  0.00  0.00    +0.000 A 
ATOM     25  C   UNL     1       0.603  12.938  21.082  0.00  0.00    +0.000 A 
ATOM     26  C   UNL     1       0.598  11.673  20.494  0.00  0.00    +0.000 A 
ATOM     27  C   UNL     1      -0.498  11.248  19.726  0.00  0.00    +0.000 A 
BRANCH  22  29
ATOM     28  N   UNL     1      -3.570  11.424  18.023  0.00  0.00    +0.000 NA
ATOM     29  C   UNL     1      -2.679  11.772  18.676  0.00  0.00    +0.000 C 
ENDBRANCH  22  29
ENDBRANCH  21  27
ENDBRANCH   1  21
TORSDOF 6
ENDMDL
MODEL 9
REMARK VINA RESULT:      -7.2      4.581      6.462
REMARK  Name = 
REMARK  6 active torsions:
REMARK  status: ('A' for Active; 'I' for Inactive)
REMARK    1  A    between atoms: C_2  and  C_3
REMARK    2  A    between atoms: C_8  and  S_9
REMARK    3  A    between atoms: S_9  and  C_10
REMARK    4  A    between atoms: C_11  and  O_12
REMARK    5  A    between atoms: C_14  and  C_15
REMARK    6  A    between atoms: C_21  and  C_22
REMARK                            x       y       z     vdW  Elec       q    Type
REMARK                         _______ _______ _______ _____ _____    ______ ____
ROOT
ATOM      1  C   UNL     1      -2.523  13.043  22.312  0.00  0.00    +0.000 C 
ATOM      2  C   UNL     1      -1.236  13.343  22.596  0.00  0.00    +0.000 C 
ATOM      3  C   UNL     1      -0.110  12.959  21.658  0.00  0.00    +0.000 C 
ATOM      4  C   UNL     1      -0.540  11.694  20.882  0.00  0.00    +0.000 C 
ATOM      5  C   UNL     1      -1.793  12.001  20.055  0.00  0.00    +0.000 C 
ATOM      6  C   UNL     1      -2.863  12.643  20.906  0.00  0.00    +0.000 C 
ATOM      7  O   UNL     1      -3.973  12.869  20.422  0.00  0.00    +0.000 OA
ENDROOT
BRANCH   4   8
ATOM      8  C   UNL     1       0.495  10.933  20.056  0.00  0.00    +0.000 A 
ATOM      9  C   UNL     1       1.056  11.490  18.881  0.00  0.00    +0.000 A 
ATOM     10 CL   UNL     1       0.891  13.154  18.438  0.00  0.00    +0.000 Cl
ATOM     11  C   UNL     1       1.778  10.707  17.973  0.00  0.00    +0.000 A 
ATOM     12  C   UNL     1       1.966   9.355  18.202  0.00  0.00    +0.000 A 
ATOM     13  C   UNL     1       1.501   8.798  19.386  0.00  0.00    +0.000 A 
ATOM     14  C   UNL     1       0.803   9.568  20.347  0.00  0.00    +0.000 A 
BRANCH  14  15
ATOM     15  C   UNL     1       0.453   8.794  21.616  0.00  0.00    +0.000 C 
ATOM     16  F   UNL     1       1.229   7.719  21.906  0.00  0.00    +0.000 F 
ATOM     17  F   UNL     1       0.481   9.589  22.721  0.00  0.00    +0.000 F 
ATOM     18  F   UNL     1      -0.819   8.295  21.559  0.00  0.00    +0.000 F 
ENDBRANCH  14  15
ENDBRANCH   4   8
BRANCH   2  19
ATOM     19  O   UNL     1      -0.797  13.801  23.823  0.00  0.00    +0.000 OA
ATOM     20  H   UNL     1      -1.328  14.573  24.099  0.00  0.00    +0.000 HD
ENDBRANCH   2  19
BRANCH   1  21
ATOM     21  S   UNL     1      -3.644  12.591  23.556  0.00  0.00    +0.000 S 
BRANCH  21  27
ATOM     22  C   UNL     1      -6.088  13.899  23.798  0.00  0.00    +0.000 A 
ATOM     23  C   UNL     1      -6.886  15.045  23.848  0.00  0.00    +0.000 A 
ATOM     24  C   UNL     1      -6.301  16.310  23.794  0.00  0.00    +0.000 A 
ATOM     25  C   UNL     1      -4.924  16.436  23.679  0.00  0.00    +0.000 A 
ATOM     26  C   UNL     1      -4.119  15.299  23.627  0.00  0.00    +0.000 A 
ATOM     27  C   UNL     1      -4.690  14.018  23.713  0.00  0.00    +0.000 A 
BRANCH  22  29
ATOM     28  N   UNL     1      -7.283  11.594  23.848  0.00  0.00    +0.000 NA
ATOM     29  C   UNL     1      -6.722  12.608  23.816  0.00  0.00    +0.000 C 
ENDBRANCH  22  29
ENDBRANCH  21  27
ENDBRANCH   1  21
TORSDOF 6
ENDMDL
