MODEL 1
REMARK VINA RESULT:      -8.0      0.000      0.000
REMARK  Name = 
REMARK  4 active torsions:
REMARK  status: ('A' for Active; 'I' for Inactive)
REMARK    1  A    between atoms: C_1  and  C_2
REMARK    2  A    between atoms: N_4  and  C_5
REMARK    3  A    between atoms: C_14  and  C_15
REMARK    4  A    between atoms: C_18  and  O_19
REMARK                            x       y       z     vdW  Elec       q    Type
REMARK                         _______ _______ _______ _____ _____    ______ ____
ROOT
ATOM      1  C   UNL     1       0.668  10.619  20.179  0.00  0.00    +0.000 A 
ATOM      2  C   UNL     1      -0.036  10.883  21.361  0.00  0.00    +0.000 A 
ATOM      3  C   UNL     1      -0.207   9.901  22.363  0.00  0.00    +0.000 A 
ATOM      4  C   UNL     1       0.314   8.612  22.220  0.00  0.00    +0.000 A 
ATOM      5  C   UNL     1       0.973   8.338  21.048  0.00  0.00    +0.000 A 
ATOM      6  C   UNL     1       1.134   9.325  20.036  0.00  0.00    +0.000 A 
ATOM      7  C   UNL     1       1.926   8.718  18.911  0.00  0.00    +0.000 C 
ATOM      8  O   UNL     1       2.234   9.283  17.876  0.00  0.00    +0.000 OA
ATOM      9  C   UNL     1       2.213   7.370  19.347  0.00  0.00    +0.000 A 
ATOM     10  C   UNL     1       2.890   6.180  19.038  0.00  0.00    +0.000 A 
ATOM     11  N   UNL     1       2.736   5.295  20.056  0.00  0.00    +0.000 NA
ATOM     12  N   UNL     1       1.974   5.930  20.979  0.00  0.00    +0.000 N 
ATOM     13  C   UNL     1       1.645   7.171  20.577  0.00  0.00    +0.000 A 
ATOM     14  H   UNL     1       1.752   5.445  21.845  0.00  0.00    +0.000 HD
ENDROOT
BRANCH  10  15
ATOM     15  C   UNL     1       3.711   5.876  17.867  0.00  0.00    +0.000 A 
ATOM     16  C   UNL     1       3.811   4.557  17.393  0.00  0.00    +0.000 A 
ATOM     17  C   UNL     1       4.668   4.242  16.334  0.00  0.00    +0.000 A 
ATOM     18  C   UNL     1       5.420   5.250  15.742  0.00  0.00    +0.000 A 
ATOM     19  C   UNL     1       5.302   6.569  16.164  0.00  0.00    +0.000 A 
ATOM     20  C   UNL     1       4.445   6.880  17.222  0.00  0.00    +0.000 A 
BRANCH  18  21
ATOM     21  O   UNL     1       6.301   4.984  14.737  0.00  0.00    +0.000 OA
ATOM     22  H   UNL     1       5.835   5.074  13.889  0.00  0.00    +0.000 HD
ENDBRANCH  18  21
ENDBRANCH  10  15
BRANCH   1  26
ATOM     23  C   UNL     1       1.787  13.556  18.085  0.00  0.00    +0.000 C 
ATOM     24  C   UNL     1       1.738  12.693  19.317  0.00  0.00    +0.000 C 
ATOM     25  O   UNL     1       2.384  12.998  20.317  0.00  0.00    +0.000 OA
ATOM     26  N   UNL     1       0.921  11.584  19.176  0.00  0.00    +0.000 N 
ATOM     27  H   UNL     1       0.591  11.358  18.240  0.00  0.00    +0.000 HD
ENDBRANCH   1  26
TORSDOF 3
ENDMDL
MODEL 2
REMARK VINA RESULT:      -8.0      2.479      7.680
REMARK  Name = 
REMARK  4 active torsions:
REMARK  status: ('A' for Active; 'I' for Inactive)
REMARK    1  A    between atoms: C_1  and  C_2
REMARK    2  A    between atoms: N_4  and  C_5
REMARK    3  A    between atoms: C_14  and  C_15
REMARK    4  A    between atoms: C_18  and  O_19
REMARK                            x       y       z     vdW  Elec       q    Type
REMARK                         _______ _______ _______ _____ _____    ______ ____
ROOT
ATOM      1  C   UNL     1       3.225   5.702  19.289  0.00  0.00    +0.000 A 
ATOM      2  C   UNL     1       4.078   5.314  18.249  0.00  0.00    +0.000 A 
ATOM      3  C   UNL     1       4.342   6.157  17.146  0.00  0.00    +0.000 A 
ATOM      4  C   UNL     1       3.756   7.421  17.036  0.00  0.00    +0.000 A 
ATOM      5  C   UNL     1       2.891   7.791  18.035  0.00  0.00    +0.000 A 
ATOM      6  C   UNL     1       2.619   6.936  19.139  0.00  0.00    +0.000 A 
ATOM      7  C   UNL     1       1.669   7.649  20.061  0.00  0.00    +0.000 C 
ATOM      8  O   UNL     1       1.217   7.197  21.099  0.00  0.00    +0.000 OA
ATOM      9  C   UNL     1       1.445   8.933  19.438  0.00  0.00    +0.000 A 
ATOM     10  C   UNL     1       0.825  10.185  19.573  0.00  0.00    +0.000 A 
ATOM     11  N   UNL     1       1.155  10.969  18.516  0.00  0.00    +0.000 NA
ATOM     12  N   UNL     1       1.965  10.212  17.738  0.00  0.00    +0.000 N 
ATOM     13  C   UNL     1       2.151   8.989  18.266  0.00  0.00    +0.000 A 
ATOM     14  H   UNL     1       2.349  10.621  16.890  0.00  0.00    +0.000 HD
ENDROOT
BRANCH  10  15
ATOM     15  C   UNL     1      -0.002  10.680  20.674  0.00  0.00    +0.000 A 
ATOM     16  C   UNL     1       0.101  10.106  21.952  0.00  0.00    +0.000 A 
ATOM     17  C   UNL     1      -0.751  10.507  22.985  0.00  0.00    +0.000 A 
ATOM     18  C   UNL     1      -1.702  11.492  22.742  0.00  0.00    +0.000 A 
ATOM     19  C   UNL     1      -1.791  12.105  21.498  0.00  0.00    +0.000 A 
ATOM     20  C   UNL     1      -0.938  11.702  20.468  0.00  0.00    +0.000 A 
BRANCH  18  21
ATOM     21  O   UNL     1      -2.584  11.883  23.704  0.00  0.00    +0.000 OA
ATOM     22  H   UNL     1      -2.513  12.846  23.811  0.00  0.00    +0.000 HD
ENDBRANCH  18  21
ENDBRANCH  10  15
BRANCH   1  26
ATOM     23  C   UNL     1       2.039   3.234  21.891  0.00  0.00    +0.000 C 
ATOM     24  C   UNL     1       2.112   3.845  20.517  0.00  0.00    +0.000 C 
ATOM     25  O   UNL     1       1.443   3.387  19.594  0.00  0.00    +0.000 OA
ATOM     26  N   UNL     1       2.980   4.922  20.444  0.00  0.00    +0.000 N 
ATOM     27  H   UNL     1       3.602   5.080  21.234  0.00  0.00    +0.000 HD
ENDBRANCH   1  26
TORSDOF 3
ENDMDL
MODEL 3
REMARK VINA RESULT:      -7.9      2.631      7.658
REMARK  Name = 
REMARK  4 active torsions:
REMARK  status: ('A' for Active; 'I' for Inactive)
REMARK    1  A    between atoms: C_1  and  C_2
REMARK    2  A    between atoms: N_4  and  C_5
REMARK    3  A    between atoms: C_14  and  C_15
REMARK    4  A    between atoms: C_18  and  O_19
REMARK                            x       y       z     vdW  Elec       q    Type
REMARK                         _______ _______ _______ _____ _____    ______ ____
ROOT
ATOM      1  C   UNL     1       3.654   4.422  19.084  0.00  0.00    +0.000 A 
ATOM      2  C   UNL     1       4.516   3.977  18.073  0.00  0.00    +0.000 A 
ATOM      3  C   UNL     1       4.871   4.800  16.980  0.00  0.00    +0.000 A 
ATOM      4  C   UNL     1       4.372   6.099  16.851  0.00  0.00    +0.000 A 
ATOM      5  C   UNL     1       3.499   6.526  17.820  0.00  0.00    +0.000 A 
ATOM      6  C   UNL     1       3.135   5.692  18.913  0.00  0.00    +0.000 A 
ATOM      7  C   UNL     1       2.202   6.466  19.803  0.00  0.00    +0.000 C 
ATOM      8  O   UNL     1       1.687   6.047  20.825  0.00  0.00    +0.000 OA
ATOM      9  C   UNL     1       2.082   7.761  19.173  0.00  0.00    +0.000 A 
ATOM     10  C   UNL     1       1.540   9.051  19.287  0.00  0.00    +0.000 A 
ATOM     11  N   UNL     1       1.956   9.810  18.242  0.00  0.00    +0.000 NA
ATOM     12  N   UNL     1       2.742   9.001  17.492  0.00  0.00    +0.000 N 
ATOM     13  C   UNL     1       2.830   7.769  18.026  0.00  0.00    +0.000 A 
ATOM     14  H   UNL     1       3.180   9.382  16.658  0.00  0.00    +0.000 HD
ENDROOT
BRANCH  10  15
ATOM     15  C   UNL     1       0.710   9.600  20.359  0.00  0.00    +0.000 A 
ATOM     16  C   UNL     1      -0.185  10.650  20.097  0.00  0.00    +0.000 A 
ATOM     17  C   UNL     1      -0.912  11.244  21.133  0.00  0.00    +0.000 A 
ATOM     18  C   UNL     1      -0.750  10.779  22.434  0.00  0.00    +0.000 A 
ATOM     19  C   UNL     1       0.095   9.711  22.709  0.00  0.00    +0.000 A 
ATOM     20  C   UNL     1       0.820   9.121  21.671  0.00  0.00    +0.000 A 
BRANCH  18  21
ATOM     21  O   UNL     1      -1.403  11.356  23.481  0.00  0.00    +0.000 OA
ATOM     22  H   UNL     1      -0.791  11.402  24.235  0.00  0.00    +0.000 HD
ENDBRANCH  18  21
ENDBRANCH  10  15
BRANCH   1  26
ATOM     23  C   UNL     1       2.097   2.201  21.712  0.00  0.00    +0.000 C 
ATOM     24  C   UNL     1       2.197   2.862  20.364  0.00  0.00    +0.000 C 
ATOM     25  O   UNL     1       1.336   2.669  19.509  0.00  0.00    +0.000 OA
ATOM     26  N   UNL     1       3.320   3.662  20.230  0.00  0.00    +0.000 N 
ATOM     27  H   UNL     1       4.039   3.588  20.946  0.00  0.00    +0.000 HD
ENDBRANCH   1  26
TORSDOF 3
ENDMDL
MODEL 4
REMARK VINA RESULT:      -7.6      0.932      1.317
REMARK  Name = 
REMARK  4 active torsions:
REMARK  status: ('A' for Active; 'I' for Inactive)
REMARK    1  A    between atoms: C_1  and  C_2
REMARK    2  A    between atoms: N_4  and  C_5
REMARK    3  A    between atoms: C_14  and  C_15
REMARK    4  A    between atoms: C_18  and  O_19
REMARK                            x       y       z     vdW  Elec       q    Type
REMARK                         _______ _______ _______ _____ _____    ______ ____
ROOT
ATOM      1  C   UNL     1       0.888   9.936  19.670  0.00  0.00    +0.000 A 
ATOM      2  C   UNL     1      -0.015  10.099  20.728  0.00  0.00    +0.000 A 
ATOM      3  C   UNL     1      -0.251   9.075  21.674  0.00  0.00    +0.000 A 
ATOM      4  C   UNL     1       0.404   7.843  21.594  0.00  0.00    +0.000 A 
ATOM      5  C   UNL     1       1.263   7.666  20.539  0.00  0.00    +0.000 A 
ATOM      6  C   UNL     1       1.490   8.694  19.583  0.00  0.00    +0.000 A 
ATOM      7  C   UNL     1       2.503   8.195  18.590  0.00  0.00    +0.000 C 
ATOM      8  O   UNL     1       2.917   8.818  17.627  0.00  0.00    +0.000 OA
ATOM      9  C   UNL     1       2.841   6.866  19.044  0.00  0.00    +0.000 A 
ATOM     10  C   UNL     1       3.666   5.751  18.828  0.00  0.00    +0.000 A 
ATOM     11  N   UNL     1       3.436   4.825  19.793  0.00  0.00    +0.000 NA
ATOM     12  N   UNL     1       2.482   5.359  20.593  0.00  0.00    +0.000 N 
ATOM     13  C   UNL     1       2.107   6.578  20.163  0.00  0.00    +0.000 A 
ATOM     14  H   UNL     1       2.171   4.830  21.404  0.00  0.00    +0.000 HD
ENDROOT
BRANCH  10  15
ATOM     15  C   UNL     1       4.687   5.557  17.799  0.00  0.00    +0.000 A 
ATOM     16  C   UNL     1       5.885   6.290  17.842  0.00  0.00    +0.000 A 
ATOM     17  C   UNL     1       6.825   6.182  16.812  0.00  0.00    +0.000 A 
ATOM     18  C   UNL     1       6.570   5.331  15.743  0.00  0.00    +0.000 A 
ATOM     19  C   UNL     1       5.413   4.562  15.703  0.00  0.00    +0.000 A 
ATOM     20  C   UNL     1       4.477   4.673  16.734  0.00  0.00    +0.000 A 
BRANCH  18  21
ATOM     21  O   UNL     1       7.435   5.226  14.695  0.00  0.00    +0.000 OA
ATOM     22  H   UNL     1       7.140   5.829  13.993  0.00  0.00    +0.000 HD
ENDBRANCH  18  21
ENDBRANCH  10  15
BRANCH   1  26
ATOM     23  C   UNL     1       1.903  13.084  17.847  0.00  0.00    +0.000 C 
ATOM     24  C   UNL     1       1.687  12.211  19.053  0.00  0.00    +0.000 C 
ATOM     25  O   UNL     1       1.933  12.633  20.180  0.00  0.00    +0.000 OA
ATOM     26  N   UNL     1       1.206  10.951  18.737  0.00  0.00    +0.000 N 
ATOM     27  H   UNL     1       1.219  10.674  17.758  0.00  0.00    +0.000 HD
ENDBRANCH   1  26
TORSDOF 3
ENDMDL
MODEL 5
REMARK VINA RESULT:      -7.4      1.040      1.040
REMARK  Name = 
REMARK  4 active torsions:
REMARK  status: ('A' for Active; 'I' for Inactive)
REMARK    1  A    between atoms: C_1  and  C_2
REMARK    2  A    between atoms: N_4  and  C_5
REMARK    3  A    between atoms: C_14  and  C_15
REMARK    4  A    between atoms: C_18  and  O_19
REMARK                            x       y       z     vdW  Elec       q    Type
REMARK                         _______ _______ _______ _____ _____    ______ ____
ROOT
ATOM      1  C   UNL     1       0.470  10.655  20.632  0.00  0.00    +0.000 A 
ATOM      2  C   UNL     1      -0.241  10.825  21.826  0.00  0.00    +0.000 A 
ATOM      3  C   UNL     1      -0.408   9.770  22.752  0.00  0.00    +0.000 A 
ATOM      4  C   UNL     1       0.126   8.501  22.517  0.00  0.00    +0.000 A 
ATOM      5  C   UNL     1       0.793   8.319  21.332  0.00  0.00    +0.000 A 
ATOM      6  C   UNL     1       0.950   9.379  20.396  0.00  0.00    +0.000 A 
ATOM      7  C   UNL     1       1.752   8.864  19.234  0.00  0.00    +0.000 C 
ATOM      8  O   UNL     1       2.060   9.506  18.245  0.00  0.00    +0.000 OA
ATOM      9  C   UNL     1       2.050   7.490  19.571  0.00  0.00    +0.000 A 
ATOM     10  C   UNL     1       2.739   6.332  19.179  0.00  0.00    +0.000 A 
ATOM     11  N   UNL     1       2.588   5.374  20.128  0.00  0.00    +0.000 NA
ATOM     12  N   UNL     1       1.816   5.931  21.092  0.00  0.00    +0.000 N 
ATOM     13  C   UNL     1       1.478   7.196  20.780  0.00  0.00    +0.000 A 
ATOM     14  H   UNL     1       1.595   5.383  21.918  0.00  0.00    +0.000 HD
ENDROOT
BRANCH  10  15
ATOM     15  C   UNL     1       3.569   6.122  17.994  0.00  0.00    +0.000 A 
ATOM     16  C   UNL     1       3.757   4.829  17.479  0.00  0.00    +0.000 A 
ATOM     17  C   UNL     1       4.625   4.607  16.405  0.00  0.00    +0.000 A 
ATOM     18  C   UNL     1       5.297   5.684  15.838  0.00  0.00    +0.000 A 
ATOM     19  C   UNL     1       5.090   6.977  16.301  0.00  0.00    +0.000 A 
ATOM     20  C   UNL     1       4.223   7.195  17.374  0.00  0.00    +0.000 A 
BRANCH  18  21
ATOM     21  O   UNL     1       6.185   5.511  14.819  0.00  0.00    +0.000 OA
ATOM     22  H   UNL     1       5.773   4.945  14.146  0.00  0.00    +0.000 HD
ENDBRANCH  18  21
ENDBRANCH  10  15
BRANCH   1  26
ATOM     23  C   UNL     1       0.322  13.467  18.115  0.00  0.00    +0.000 C 
ATOM     24  C   UNL     1      -0.249  12.458  19.074  0.00  0.00    +0.000 C 
ATOM     25  O   UNL     1      -1.463  12.370  19.237  0.00  0.00    +0.000 OA
ATOM     26  N   UNL     1       0.720  11.694  19.704  0.00  0.00    +0.000 N 
ATOM     27  H   UNL     1       1.689  11.992  19.613  0.00  0.00    +0.000 HD
ENDBRANCH   1  26
TORSDOF 3
ENDMDL
MODEL 6
REMARK VINA RESULT:      -7.3      1.964      6.929
REMARK  Name = 
REMARK  4 active torsions:
REMARK  status: ('A' for Active; 'I' for Inactive)
REMARK    1  A    between atoms: C_1  and  C_2
REMARK    2  A    between atoms: N_4  and  C_5
REMARK    3  A    between atoms: C_14  and  C_15
REMARK    4  A    between atoms: C_18  and  O_19
REMARK                            x       y       z     vdW  Elec       q    Type
REMARK                         _______ _______ _______ _____ _____    ______ ____
ROOT
ATOM      1  C   UNL     1       4.303   3.546  17.248  0.00  0.00    +0.000 A 
ATOM      2  C   UNL     1       4.348   2.193  17.604  0.00  0.00    +0.000 A 
ATOM      3  C   UNL     1       3.708   1.706  18.767  0.00  0.00    +0.000 A 
ATOM      4  C   UNL     1       3.003   2.555  19.623  0.00  0.00    +0.000 A 
ATOM      5  C   UNL     1       2.987   3.888  19.297  0.00  0.00    +0.000 A 
ATOM      6  C   UNL     1       3.640   4.378  18.132  0.00  0.00    +0.000 A 
ATOM      7  C   UNL     1       3.401   5.859  18.048  0.00  0.00    +0.000 C 
ATOM      8  O   UNL     1       3.831   6.598  17.180  0.00  0.00    +0.000 OA
ATOM      9  C   UNL     1       2.575   6.165  19.195  0.00  0.00    +0.000 A 
ATOM     10  C   UNL     1       1.854   7.170  19.859  0.00  0.00    +0.000 A 
ATOM     11  N   UNL     1       1.220   6.636  20.933  0.00  0.00    +0.000 NA
ATOM     12  N   UNL     1       1.545   5.321  20.933  0.00  0.00    +0.000 N 
ATOM     13  C   UNL     1       2.358   5.015  19.906  0.00  0.00    +0.000 A 
ATOM     14  H   UNL     1       1.153   4.721  21.654  0.00  0.00    +0.000 HD
ENDROOT
BRANCH  10  15
ATOM     15  C   UNL     1       1.696   8.576  19.488  0.00  0.00    +0.000 A 
ATOM     16  C   UNL     1       1.062   9.473  20.362  0.00  0.00    +0.000 A 
ATOM     17  C   UNL     1       0.822  10.796  19.977  0.00  0.00    +0.000 A 
ATOM     18  C   UNL     1       1.226  11.224  18.718  0.00  0.00    +0.000 A 
ATOM     19  C   UNL     1       1.897  10.366  17.855  0.00  0.00    +0.000 A 
ATOM     20  C   UNL     1       2.134   9.045  18.243  0.00  0.00    +0.000 A 
BRANCH  18  21
ATOM     21  O   UNL     1       0.974  12.490  18.281  0.00  0.00    +0.000 OA
ATOM     22  H   UNL     1       1.080  12.507  17.316  0.00  0.00    +0.000 HD
ENDBRANCH  18  21
ENDBRANCH  10  15
BRANCH   1  26
ATOM     23  C   UNL     1       6.505   4.965  14.527  0.00  0.00    +0.000 C 
ATOM     24  C   UNL     1       6.206   4.396  15.888  0.00  0.00    +0.000 C 
ATOM     25  O   UNL     1       7.102   4.258  16.716  0.00  0.00    +0.000 OA
ATOM     26  N   UNL     1       4.871   4.072  16.063  0.00  0.00    +0.000 N 
ATOM     27  H   UNL     1       4.274   4.069  15.239  0.00  0.00    +0.000 HD
ENDBRANCH   1  26
TORSDOF 3
ENDMDL
MODEL 7
REMARK VINA RESULT:      -7.2      1.896      6.843
REMARK  Name = 
REMARK  4 active torsions:
REMARK  status: ('A' for Active; 'I' for Inactive)
REMARK    1  A    between atoms: C_1  and  C_2
REMARK    2  A    between atoms: N_4  and  C_5
REMARK    3  A    between atoms: C_14  and  C_15
REMARK    4  A    between atoms: C_18  and  O_19
REMARK                            x       y       z     vdW  Elec       q    Type
REMARK                         _______ _______ _______ _____ _____    ______ ____
ROOT
ATOM      1  C   UNL     1       4.218   3.746  17.432  0.00  0.00    +0.000 A 
ATOM      2  C   UNL     1       4.317   2.426  17.891  0.00  0.00    +0.000 A 
ATOM      3  C   UNL     1       3.760   2.022  19.126  0.00  0.00    +0.000 A 
ATOM      4  C   UNL     1       3.087   2.925  19.954  0.00  0.00    +0.000 A 
ATOM      5  C   UNL     1       3.019   4.226  19.524  0.00  0.00    +0.000 A 
ATOM      6  C   UNL     1       3.590   4.633  18.287  0.00  0.00    +0.000 A 
ATOM      7  C   UNL     1       3.310   6.098  18.100  0.00  0.00    +0.000 C 
ATOM      8  O   UNL     1       3.670   6.772  17.151  0.00  0.00    +0.000 OA
ATOM      9  C   UNL     1       2.547   6.479  19.267  0.00  0.00    +0.000 A 
ATOM     10  C   UNL     1       1.843   7.520  19.892  0.00  0.00    +0.000 A 
ATOM     11  N   UNL     1       1.287   7.063  21.042  0.00  0.00    +0.000 NA
ATOM     12  N   UNL     1       1.643   5.758  21.127  0.00  0.00    +0.000 N 
ATOM     13  C   UNL     1       2.401   5.387  20.079  0.00  0.00    +0.000 A 
ATOM     14  H   UNL     1       1.309   5.211  21.916  0.00  0.00    +0.000 HD
ENDROOT
BRANCH  10  15
ATOM     15  C   UNL     1       1.630   8.889  19.421  0.00  0.00    +0.000 A 
ATOM     16  C   UNL     1       2.153   9.303  18.185  0.00  0.00    +0.000 A 
ATOM     17  C   UNL     1       2.035  10.634  17.771  0.00  0.00    +0.000 A 
ATOM     18  C   UNL     1       1.385  11.549  18.591  0.00  0.00    +0.000 A 
ATOM     19  C   UNL     1       0.819  11.150  19.796  0.00  0.00    +0.000 A 
ATOM     20  C   UNL     1       0.939   9.820  20.206  0.00  0.00    +0.000 A 
BRANCH  18  21
ATOM     21  O   UNL     1       1.285  12.864  18.250  0.00  0.00    +0.000 OA
ATOM     22  H   UNL     1       0.368  13.149  18.395  0.00  0.00    +0.000 HD
ENDBRANCH  18  21
ENDBRANCH  10  15
BRANCH   1  26
ATOM     23  C   UNL     1       6.229   4.931  14.463  0.00  0.00    +0.000 C 
ATOM     24  C   UNL     1       6.027   4.448  15.874  0.00  0.00    +0.000 C 
ATOM     25  O   UNL     1       6.985   4.321  16.633  0.00  0.00    +0.000 OA
ATOM     26  N   UNL     1       4.702   4.185  16.177  0.00  0.00    +0.000 N 
ATOM     27  H   UNL     1       4.038   4.159  15.405  0.00  0.00    +0.000 HD
ENDBRANCH   1  26
TORSDOF 3
ENDMDL
MODEL 8
REMARK VINA RESULT:      -7.2      3.089      4.187
REMARK  Name = 
REMARK  4 active torsions:
REMARK  status: ('A' for Active; 'I' for Inactive)
REMARK    1  A    between atoms: C_1  and  C_2
REMARK    2  A    between atoms: N_4  and  C_5
REMARK    3  A    between atoms: C_14  and  C_15
REMARK    4  A    between atoms: C_18  and  O_19
REMARK                            x       y       z     vdW  Elec       q    Type
REMARK                         _______ _______ _______ _____ _____    ______ ____
ROOT
ATOM      1  C   UNL     1      -2.371  12.078  19.229  0.00  0.00    +0.000 A 
ATOM      2  C   UNL     1      -2.990  13.007  20.074  0.00  0.00    +0.000 A 
ATOM      3  C   UNL     1      -2.685  13.082  21.453  0.00  0.00    +0.000 A 
ATOM      4  C   UNL     1      -1.754  12.224  22.042  0.00  0.00    +0.000 A 
ATOM      5  C   UNL     1      -1.171  11.288  21.225  0.00  0.00    +0.000 A 
ATOM      6  C   UNL     1      -1.487  11.208  19.841  0.00  0.00    +0.000 A 
ATOM      7  C   UNL     1      -0.656  10.112  19.233  0.00  0.00    +0.000 C 
ATOM      8  O   UNL     1      -0.686   9.765  18.065  0.00  0.00    +0.000 OA
ATOM      9  C   UNL     1       0.143   9.606  20.325  0.00  0.00    +0.000 A 
ATOM     10  C   UNL     1       1.166   8.716  20.687  0.00  0.00    +0.000 A 
ATOM     11  N   UNL     1       1.453   8.868  22.005  0.00  0.00    +0.000 NA
ATOM     12  N   UNL     1       0.619   9.837  22.451  0.00  0.00    +0.000 N 
ATOM     13  C   UNL     1      -0.178  10.292  21.466  0.00  0.00    +0.000 A 
ATOM     14  H   UNL     1       0.681  10.126  23.423  0.00  0.00    +0.000 HD
ENDROOT
BRANCH  10  15
ATOM     15  C   UNL     1       1.911   7.788  19.836  0.00  0.00    +0.000 A 
ATOM     16  C   UNL     1       2.427   8.215  18.601  0.00  0.00    +0.000 A 
ATOM     17  C   UNL     1       3.057   7.311  17.740  0.00  0.00    +0.000 A 
ATOM     18  C   UNL     1       3.179   5.979  18.119  0.00  0.00    +0.000 A 
ATOM     19  C   UNL     1       2.717   5.545  19.356  0.00  0.00    +0.000 A 
ATOM     20  C   UNL     1       2.088   6.450  20.213  0.00  0.00    +0.000 A 
BRANCH  18  21
ATOM     21  O   UNL     1       3.744   5.054  17.294  0.00  0.00    +0.000 OA
ATOM     22  H   UNL     1       3.768   4.202  17.760  0.00  0.00    +0.000 HD
ENDBRANCH  18  21
ENDBRANCH  10  15
BRANCH   1  26
ATOM     23  C   UNL     1      -3.520  11.326  15.710  0.00  0.00    +0.000 C 
ATOM     24  C   UNL     1      -3.543  11.213  17.211  0.00  0.00    +0.000 C 
ATOM     25  O   UNL     1      -4.349  10.472  17.768  0.00  0.00    +0.000 OA
ATOM     26  N   UNL     1      -2.593  12.006  17.834  0.00  0.00    +0.000 N 
ATOM     27  H   UNL     1      -2.115  12.702  17.266  0.00  0.00    +0.000 HD
ENDBRANCH   1  26
TORSDOF 3
ENDMDL
MODEL 9
REMARK VINA RESULT:      -7.1      2.546      7.722
REMARK  Name = 
REMARK  4 active torsions:
REMARK  status: ('A' for Active; 'I' for Inactive)
REMARK    1  A    between atoms: C_1  and  C_2
REMARK    2  A    between atoms: N_4  and  C_5
REMARK    3  A    between atoms: C_14  and  C_15
REMARK    4  A    between atoms: C_18  and  O_19
REMARK                            x       y       z     vdW  Elec       q    Type
REMARK                         _______ _______ _______ _____ _____    ______ ____
ROOT
ATOM      1  C   UNL     1       4.884   4.597  18.282  0.00  0.00    +0.000 A 
ATOM      2  C   UNL     1       5.688   4.384  17.156  0.00  0.00    +0.000 A 
ATOM      3  C   UNL     1       5.719   5.297  16.077  0.00  0.00    +0.000 A 
ATOM      4  C   UNL     1       4.941   6.458  16.080  0.00  0.00    +0.000 A 
ATOM      5  C   UNL     1       4.125   6.653  17.166  0.00  0.00    +0.000 A 
ATOM      6  C   UNL     1       4.088   5.727  18.245  0.00  0.00    +0.000 A 
ATOM      7  C   UNL     1       3.130   6.250  19.279  0.00  0.00    +0.000 C 
ATOM      8  O   UNL     1       2.848   5.698  20.328  0.00  0.00    +0.000 OA
ATOM      9  C   UNL     1       2.657   7.506  18.742  0.00  0.00    +0.000 A 
ATOM     10  C   UNL     1       1.871   8.642  18.991  0.00  0.00    +0.000 A 
ATOM     11  N   UNL     1       1.980   9.505  17.949  0.00  0.00    +0.000 NA
ATOM     12  N   UNL     1       2.821   8.911  17.069  0.00  0.00    +0.000 N 
ATOM     13  C   UNL     1       3.237   7.713  17.518  0.00  0.00    +0.000 A 
ATOM     14  H   UNL     1       3.060   9.404  16.213  0.00  0.00    +0.000 HD
ENDROOT
BRANCH  10  15
ATOM     15  C   UNL     1       1.083   8.962  20.181  0.00  0.00    +0.000 A 
ATOM     16  C   UNL     1      -0.043   9.796  20.083  0.00  0.00    +0.000 A 
ATOM     17  C   UNL     1      -0.746  10.184  21.229  0.00  0.00    +0.000 A 
ATOM     18  C   UNL     1      -0.325   9.729  22.473  0.00  0.00    +0.000 A 
ATOM     19  C   UNL     1       0.758   8.867  22.589  0.00  0.00    +0.000 A 
ATOM     20  C   UNL     1       1.457   8.482  21.442  0.00  0.00    +0.000 A 
BRANCH  18  21
ATOM     21  O   UNL     1      -0.950  10.117  23.620  0.00  0.00    +0.000 OA
ATOM     22  H   UNL     1      -1.897   9.917  23.535  0.00  0.00    +0.000 HD
ENDBRANCH  18  21
ENDBRANCH  10  15
BRANCH   1  26
ATOM     23  C   UNL     1       4.335   1.879  20.846  0.00  0.00    +0.000 C 
ATOM     24  C   UNL     1       4.192   2.542  19.503  0.00  0.00    +0.000 C 
ATOM     25  O   UNL     1       3.529   2.013  18.614  0.00  0.00    +0.000 OA
ATOM     26  N   UNL     1       4.866   3.748  19.414  0.00  0.00    +0.000 N 
ATOM     27  H   UNL     1       5.520   3.978  20.159  0.00  0.00    +0.000 HD
ENDBRANCH   1  26
TORSDOF 3
ENDMDL
