MODEL 1
REMARK VINA RESULT:      -7.9      0.000      0.000
REMARK  Name = 
REMARK  8 active torsions:
REMARK  status: ('A' for Active; 'I' for Inactive)
REMARK    1  A    between atoms: C_1  and  C_2
REMARK    2  A    between atoms: C_2  and  N_3
REMARK    3  A    between atoms: C_2  and  C_18
REMARK    4  A    between atoms: C_4  and  C_6
REMARK    5  A    between atoms: C_6  and  C_7
REMARK    6  A    between atoms: C_9  and  C_10
REMARK    7  A    between atoms: C_13  and  O_14
REMARK    8  A    between atoms: C_15  and  O_16
REMARK                            x       y       z     vdW  Elec       q    Type
REMARK                         _______ _______ _______ _____ _____    ______ ____
ROOT
ATOM      1  C   UNL     1       2.988   7.091  17.867  0.00  0.00    +0.000 C 
ATOM      2  C   UNL     1       2.278   6.040  18.329  0.00  0.00    +0.000 C 
ENDROOT
BRANCH   2   3
ATOM      3  C   UNL     1       2.776   4.661  18.290  0.00  0.00    +0.000 A 
ATOM      4  C   UNL     1       2.140   3.707  17.480  0.00  0.00    +0.000 A 
ATOM      5  C   UNL     1       2.518   2.363  17.538  0.00  0.00    +0.000 A 
ATOM      6  C   UNL     1       3.536   1.983  18.404  0.00  0.00    +0.000 A 
ATOM      7  C   UNL     1       4.195   2.937  19.177  0.00  0.00    +0.000 A 
ATOM      8  C   UNL     1       3.828   4.274  19.128  0.00  0.00    +0.000 A 
BRANCH   6   9
ATOM      9  O   UNL     1       3.917   0.678  18.544  0.00  0.00    +0.000 OA
ATOM     10  H   UNL     1       4.294   0.380  17.698  0.00  0.00    +0.000 HD
ENDBRANCH   6   9
BRANCH   7  11
ATOM     11  O   UNL     1       5.198   2.555  20.021  0.00  0.00    +0.000 OA
ATOM     12  H   UNL     1       4.843   1.772  20.486  0.00  0.00    +0.000 HD
ENDBRANCH   7  11
ENDBRANCH   2   3
BRANCH   1  14
ATOM     13  N   UNL     1       1.500   8.647  19.022  0.00  0.00    +0.000 N 
ATOM     14  C   UNL     1       2.369   8.455  17.972  0.00  0.00    +0.000 C 
ATOM     15  O   UNL     1       2.627   9.334  17.154  0.00  0.00    +0.000 OA
ATOM     16  H   UNL     1       1.330   7.915  19.699  0.00  0.00    +0.000 HD
BRANCH  13  18
ATOM     17  C   UNL     1      -0.255  10.173  18.239  0.00  0.00    +0.000 C 
ATOM     18  C   UNL     1       0.843   9.924  19.274  0.00  0.00    +0.000 C 
BRANCH  18  19
ATOM     19  C   UNL     1       0.301   9.968  20.693  0.00  0.00    +0.000 A 
ATOM     20  C   UNL     1      -0.452  11.076  21.116  0.00  0.00    +0.000 A 
ATOM     21  C   UNL     1      -0.938  11.154  22.421  0.00  0.00    +0.000 A 
ATOM     22  C   UNL     1      -0.678  10.127  23.325  0.00  0.00    +0.000 A 
ATOM     23  C   UNL     1       0.055   9.014  22.919  0.00  0.00    +0.000 A 
ATOM     24  C   UNL     1       0.537   8.931  21.611  0.00  0.00    +0.000 A 
ENDBRANCH  18  19
ENDBRANCH  13  18
ENDBRANCH   1  14
BRANCH   1  25
ATOM     25  C   UNL     1       4.286   6.943  17.309  0.00  0.00    +0.000 C 
ATOM     26  N   UNL     1       5.338   6.766  16.847  0.00  0.00    +0.000 NA
ENDBRANCH   1  25
TORSDOF 7
ENDMDL
MODEL 2
REMARK VINA RESULT:      -7.9      0.088      1.009
REMARK  Name = 
REMARK  8 active torsions:
REMARK  status: ('A' for Active; 'I' for Inactive)
REMARK    1  A    between atoms: C_1  and  C_2
REMARK    2  A    between atoms: C_2  and  N_3
REMARK    3  A    between atoms: C_2  and  C_18
REMARK    4  A    between atoms: C_4  and  C_6
REMARK    5  A    between atoms: C_6  and  C_7
REMARK    6  A    between atoms: C_9  and  C_10
REMARK    7  A    between atoms: C_13  and  O_14
REMARK    8  A    between atoms: C_15  and  O_16
REMARK                            x       y       z     vdW  Elec       q    Type
REMARK                         _______ _______ _______ _____ _____    ______ ____
ROOT
ATOM      1  C   UNL     1       2.999   7.114  17.836  0.00  0.00    +0.000 C 
ATOM      2  C   UNL     1       2.313   6.078  18.362  0.00  0.00    +0.000 C 
ENDROOT
BRANCH   2   3
ATOM      3  C   UNL     1       2.797   4.694  18.315  0.00  0.00    +0.000 A 
ATOM      4  C   UNL     1       2.152   3.751  17.499  0.00  0.00    +0.000 A 
ATOM      5  C   UNL     1       2.518   2.402  17.550  0.00  0.00    +0.000 A 
ATOM      6  C   UNL     1       3.531   2.008  18.415  0.00  0.00    +0.000 A 
ATOM      7  C   UNL     1       4.197   2.950  19.195  0.00  0.00    +0.000 A 
ATOM      8  C   UNL     1       3.844   4.291  19.152  0.00  0.00    +0.000 A 
BRANCH   6   9
ATOM      9  O   UNL     1       3.898   0.698  18.549  0.00  0.00    +0.000 OA
ATOM     10  H   UNL     1       3.632   0.225  17.741  0.00  0.00    +0.000 HD
ENDBRANCH   6   9
BRANCH   7  11
ATOM     11  O   UNL     1       5.196   2.553  20.038  0.00  0.00    +0.000 OA
ATOM     12  H   UNL     1       5.355   3.328  20.611  0.00  0.00    +0.000 HD
ENDBRANCH   7  11
ENDBRANCH   2   3
BRANCH   1  14
ATOM     13  N   UNL     1       1.457   8.649  18.947  0.00  0.00    +0.000 N 
ATOM     14  C   UNL     1       2.398   8.485  17.956  0.00  0.00    +0.000 C 
ATOM     15  O   UNL     1       2.733   9.393  17.200  0.00  0.00    +0.000 OA
ATOM     16  H   UNL     1       1.224   7.893  19.576  0.00  0.00    +0.000 HD
BRANCH  13  18
ATOM     17  C   UNL     1      -0.329  10.161  18.208  0.00  0.00    +0.000 C 
ATOM     18  C   UNL     1       0.806   9.928  19.207  0.00  0.00    +0.000 C 
BRANCH  18  19
ATOM     19  C   UNL     1       0.315   9.987  20.643  0.00  0.00    +0.000 A 
ATOM     20  C   UNL     1       0.610   8.933  21.523  0.00  0.00    +0.000 A 
ATOM     21  C   UNL     1       0.148   8.950  22.839  0.00  0.00    +0.000 A 
ATOM     22  C   UNL     1      -0.616  10.020  23.297  0.00  0.00    +0.000 A 
ATOM     23  C   UNL     1      -0.905  11.081  22.443  0.00  0.00    +0.000 A 
ATOM     24  C   UNL     1      -0.439  11.070  21.126  0.00  0.00    +0.000 A 
ENDBRANCH  18  19
ENDBRANCH  13  18
ENDBRANCH   1  14
BRANCH   1  25
ATOM     25  C   UNL     1       4.258   6.945  17.199  0.00  0.00    +0.000 C 
ATOM     26  N   UNL     1       5.269   6.840  16.635  0.00  0.00    +0.000 NA
ENDBRANCH   1  25
TORSDOF 7
ENDMDL
MODEL 3
REMARK VINA RESULT:      -7.7      1.924      2.816
REMARK  Name = 
REMARK  8 active torsions:
REMARK  status: ('A' for Active; 'I' for Inactive)
REMARK    1  A    between atoms: C_1  and  C_2
REMARK    2  A    between atoms: C_2  and  N_3
REMARK    3  A    between atoms: C_2  and  C_18
REMARK    4  A    between atoms: C_4  and  C_6
REMARK    5  A    between atoms: C_6  and  C_7
REMARK    6  A    between atoms: C_9  and  C_10
REMARK    7  A    between atoms: C_13  and  O_14
REMARK    8  A    between atoms: C_15  and  O_16
REMARK                            x       y       z     vdW  Elec       q    Type
REMARK                         _______ _______ _______ _____ _____    ______ ____
ROOT
ATOM      1  C   UNL     1       2.370   6.997  19.140  0.00  0.00    +0.000 C 
ATOM      2  C   UNL     1       2.026   5.804  19.668  0.00  0.00    +0.000 C 
ENDROOT
BRANCH   2   3
ATOM      3  C   UNL     1       2.576   4.531  19.191  0.00  0.00    +0.000 A 
ATOM      4  C   UNL     1       1.920   3.821  18.172  0.00  0.00    +0.000 A 
ATOM      5  C   UNL     1       2.357   2.544  17.804  0.00  0.00    +0.000 A 
ATOM      6  C   UNL     1       3.452   1.990  18.456  0.00  0.00    +0.000 A 
ATOM      7  C   UNL     1       4.126   2.712  19.438  0.00  0.00    +0.000 A 
ATOM      8  C   UNL     1       3.702   3.980  19.811  0.00  0.00    +0.000 A 
BRANCH   6   9
ATOM      9  O   UNL     1       3.895   0.727  18.179  0.00  0.00    +0.000 OA
ATOM     10  H   UNL     1       4.807   0.793  17.846  0.00  0.00    +0.000 HD
ENDBRANCH   6   9
BRANCH   7  11
ATOM     11  O   UNL     1       5.205   2.161  20.069  0.00  0.00    +0.000 OA
ATOM     12  H   UNL     1       5.912   2.164  19.394  0.00  0.00    +0.000 HD
ENDBRANCH   7  11
ENDBRANCH   2   3
BRANCH   1  14
ATOM     13  N   UNL     1       1.397   9.217  18.829  0.00  0.00    +0.000 N 
ATOM     14  C   UNL     1       1.741   8.229  19.724  0.00  0.00    +0.000 C 
ATOM     15  O   UNL     1       1.561   8.337  20.934  0.00  0.00    +0.000 OA
ATOM     16  H   UNL     1       1.528   9.088  17.834  0.00  0.00    +0.000 HD
BRANCH  13  18
ATOM     17  C   UNL     1       1.618  11.660  18.858  0.00  0.00    +0.000 C 
ATOM     18  C   UNL     1       0.751  10.458  19.238  0.00  0.00    +0.000 C 
BRANCH  18  19
ATOM     19  C   UNL     1      -0.641  10.553  18.638  0.00  0.00    +0.000 A 
ATOM     20  C   UNL     1      -0.979   9.748  17.538  0.00  0.00    +0.000 A 
ATOM     21  C   UNL     1      -2.241   9.835  16.950  0.00  0.00    +0.000 A 
ATOM     22  C   UNL     1      -3.185  10.728  17.451  0.00  0.00    +0.000 A 
ATOM     23  C   UNL     1      -2.871  11.524  18.550  0.00  0.00    +0.000 A 
ATOM     24  C   UNL     1      -1.610  11.434  19.144  0.00  0.00    +0.000 A 
ENDBRANCH  18  19
ENDBRANCH  13  18
ENDBRANCH   1  14
BRANCH   1  25
ATOM     25  C   UNL     1       3.306   7.115  18.076  0.00  0.00    +0.000 C 
ATOM     26  N   UNL     1       4.083   7.155  17.214  0.00  0.00    +0.000 NA
ENDBRANCH   1  25
TORSDOF 7
ENDMDL
MODEL 4
REMARK VINA RESULT:      -7.7      1.937      2.636
REMARK  Name = 
REMARK  8 active torsions:
REMARK  status: ('A' for Active; 'I' for Inactive)
REMARK    1  A    between atoms: C_1  and  C_2
REMARK    2  A    between atoms: C_2  and  N_3
REMARK    3  A    between atoms: C_2  and  C_18
REMARK    4  A    between atoms: C_4  and  C_6
REMARK    5  A    between atoms: C_6  and  C_7
REMARK    6  A    between atoms: C_9  and  C_10
REMARK    7  A    between atoms: C_13  and  O_14
REMARK    8  A    between atoms: C_15  and  O_16
REMARK                            x       y       z     vdW  Elec       q    Type
REMARK                         _______ _______ _______ _____ _____    ______ ____
ROOT
ATOM      1  C   UNL     1       2.439   6.994  19.028  0.00  0.00    +0.000 C 
ATOM      2  C   UNL     1       2.095   5.812  19.581  0.00  0.00    +0.000 C 
ENDROOT
BRANCH   2   3
ATOM      3  C   UNL     1       2.637   4.529  19.125  0.00  0.00    +0.000 A 
ATOM      4  C   UNL     1       2.001   3.825  18.089  0.00  0.00    +0.000 A 
ATOM      5  C   UNL     1       2.428   2.540  17.739  0.00  0.00    +0.000 A 
ATOM      6  C   UNL     1       3.493   1.971  18.426  0.00  0.00    +0.000 A 
ATOM      7  C   UNL     1       4.149   2.685  19.426  0.00  0.00    +0.000 A 
ATOM      8  C   UNL     1       3.735   3.961  19.781  0.00  0.00    +0.000 A 
BRANCH   6   9
ATOM      9  O   UNL     1       3.924   0.700  18.167  0.00  0.00    +0.000 OA
ATOM     10  H   UNL     1       4.325   0.345  18.980  0.00  0.00    +0.000 HD
ENDBRANCH   6   9
BRANCH   7  11
ATOM     11  O   UNL     1       5.199   2.119  20.091  0.00  0.00    +0.000 OA
ATOM     12  H   UNL     1       5.834   2.851  20.215  0.00  0.00    +0.000 HD
ENDBRANCH   7  11
ENDBRANCH   2   3
BRANCH   1  14
ATOM     13  N   UNL     1       1.596   9.263  18.699  0.00  0.00    +0.000 N 
ATOM     14  C   UNL     1       1.817   8.239  19.592  0.00  0.00    +0.000 C 
ATOM     15  O   UNL     1       1.538   8.324  20.784  0.00  0.00    +0.000 OA
ATOM     16  H   UNL     1       1.807   9.154  17.717  0.00  0.00    +0.000 HD
BRANCH  13  18
ATOM     17  C   UNL     1       1.817  11.705  18.608  0.00  0.00    +0.000 C 
ATOM     18  C   UNL     1       0.973  10.523  19.089  0.00  0.00    +0.000 C 
BRANCH  18  19
ATOM     19  C   UNL     1      -0.450  10.593  18.562  0.00  0.00    +0.000 A 
ATOM     20  C   UNL     1      -1.359  11.497  19.136  0.00  0.00    +0.000 A 
ATOM     21  C   UNL     1      -2.680  11.562  18.690  0.00  0.00    +0.000 A 
ATOM     22  C   UNL     1      -3.112  10.725  17.664  0.00  0.00    +0.000 A 
ATOM     23  C   UNL     1      -2.220   9.833  17.074  0.00  0.00    +0.000 A 
ATOM     24  C   UNL     1      -0.896   9.771  17.515  0.00  0.00    +0.000 A 
ENDBRANCH  18  19
ENDBRANCH  13  18
ENDBRANCH   1  14
BRANCH   1  25
ATOM     25  C   UNL     1       3.369   7.088  17.957  0.00  0.00    +0.000 C 
ATOM     26  N   UNL     1       4.170   7.147  17.117  0.00  0.00    +0.000 NA
ENDBRANCH   1  25
TORSDOF 7
ENDMDL
MODEL 5
REMARK VINA RESULT:      -7.6      0.727      1.749
REMARK  Name = 
REMARK  8 active torsions:
REMARK  status: ('A' for Active; 'I' for Inactive)
REMARK    1  A    between atoms: C_1  and  C_2
REMARK    2  A    between atoms: C_2  and  N_3
REMARK    3  A    between atoms: C_2  and  C_18
REMARK    4  A    between atoms: C_4  and  C_6
REMARK    5  A    between atoms: C_6  and  C_7
REMARK    6  A    between atoms: C_9  and  C_10
REMARK    7  A    between atoms: C_13  and  O_14
REMARK    8  A    between atoms: C_15  and  O_16
REMARK                            x       y       z     vdW  Elec       q    Type
REMARK                         _______ _______ _______ _____ _____    ______ ____
ROOT
ATOM      1  C   UNL     1       2.765   7.294  18.082  0.00  0.00    +0.000 C 
ATOM      2  C   UNL     1       2.173   6.328  18.816  0.00  0.00    +0.000 C 
ENDROOT
BRANCH   2   3
ATOM      3  C   UNL     1       2.675   4.952  18.879  0.00  0.00    +0.000 A 
ATOM      4  C   UNL     1       3.855   4.666  19.585  0.00  0.00    +0.000 A 
ATOM      5  C   UNL     1       4.416   3.386  19.538  0.00  0.00    +0.000 A 
ATOM      6  C   UNL     1       3.788   2.399  18.788  0.00  0.00    +0.000 A 
ATOM      7  C   UNL     1       2.595   2.673  18.122  0.00  0.00    +0.000 A 
ATOM      8  C   UNL     1       2.030   3.939  18.161  0.00  0.00    +0.000 A 
BRANCH   6   9
ATOM      9  O   UNL     1       4.313   1.144  18.660  0.00  0.00    +0.000 OA
ATOM     10  H   UNL     1       5.274   1.202  18.803  0.00  0.00    +0.000 HD
ENDBRANCH   6   9
BRANCH   7  11
ATOM     11  O   UNL     1       1.982   1.695  17.392  0.00  0.00    +0.000 OA
ATOM     12  H   UNL     1       1.380   2.176  16.793  0.00  0.00    +0.000 HD
ENDBRANCH   7  11
ENDBRANCH   2   3
BRANCH   1  14
ATOM     13  N   UNL     1       1.133   8.858  19.009  0.00  0.00    +0.000 N 
ATOM     14  C   UNL     1       2.156   8.666  18.108  0.00  0.00    +0.000 C 
ATOM     15  O   UNL     1       2.555   9.551  17.356  0.00  0.00    +0.000 OA
ATOM     16  H   UNL     1       0.847   8.121  19.638  0.00  0.00    +0.000 HD
BRANCH  13  18
ATOM     17  C   UNL     1      -0.674  10.284  18.160  0.00  0.00    +0.000 C 
ATOM     18  C   UNL     1       0.463  10.143  19.173  0.00  0.00    +0.000 C 
BRANCH  18  19
ATOM     19  C   UNL     1      -0.031  10.302  20.601  0.00  0.00    +0.000 A 
ATOM     20  C   UNL     1       0.082   9.228  21.499  0.00  0.00    +0.000 A 
ATOM     21  C   UNL     1      -0.388   9.338  22.808  0.00  0.00    +0.000 A 
ATOM     22  C   UNL     1      -0.979  10.522  23.240  0.00  0.00    +0.000 A 
ATOM     23  C   UNL     1      -1.088  11.602  22.367  0.00  0.00    +0.000 A 
ATOM     24  C   UNL     1      -0.612  11.496  21.058  0.00  0.00    +0.000 A 
ENDBRANCH  18  19
ENDBRANCH  13  18
ENDBRANCH   1  14
BRANCH   1  25
ATOM     25  C   UNL     1       3.935   7.052  17.313  0.00  0.00    +0.000 C 
ATOM     26  N   UNL     1       4.918   6.834  16.731  0.00  0.00    +0.000 NA
ENDBRANCH   1  25
TORSDOF 7
ENDMDL
MODEL 6
REMARK VINA RESULT:      -7.6      0.730      1.434
REMARK  Name = 
REMARK  8 active torsions:
REMARK  status: ('A' for Active; 'I' for Inactive)
REMARK    1  A    between atoms: C_1  and  C_2
REMARK    2  A    between atoms: C_2  and  N_3
REMARK    3  A    between atoms: C_2  and  C_18
REMARK    4  A    between atoms: C_4  and  C_6
REMARK    5  A    between atoms: C_6  and  C_7
REMARK    6  A    between atoms: C_9  and  C_10
REMARK    7  A    between atoms: C_13  and  O_14
REMARK    8  A    between atoms: C_15  and  O_16
REMARK                            x       y       z     vdW  Elec       q    Type
REMARK                         _______ _______ _______ _____ _____    ______ ____
ROOT
ATOM      1  C   UNL     1       2.774   7.279  18.083  0.00  0.00    +0.000 C 
ATOM      2  C   UNL     1       2.206   6.319  18.843  0.00  0.00    +0.000 C 
ENDROOT
BRANCH   2   3
ATOM      3  C   UNL     1       2.707   4.942  18.897  0.00  0.00    +0.000 A 
ATOM      4  C   UNL     1       3.893   4.653  19.592  0.00  0.00    +0.000 A 
ATOM      5  C   UNL     1       4.452   3.372  19.536  0.00  0.00    +0.000 A 
ATOM      6  C   UNL     1       3.817   2.389  18.788  0.00  0.00    +0.000 A 
ATOM      7  C   UNL     1       2.619   2.666  18.132  0.00  0.00    +0.000 A 
ATOM      8  C   UNL     1       2.055   3.933  18.181  0.00  0.00    +0.000 A 
BRANCH   6   9
ATOM      9  O   UNL     1       4.340   1.134  18.652  0.00  0.00    +0.000 OA
ATOM     10  H   UNL     1       5.307   1.215  18.581  0.00  0.00    +0.000 HD
ENDBRANCH   6   9
BRANCH   7  11
ATOM     11  O   UNL     1       2.000   1.691  17.405  0.00  0.00    +0.000 OA
ATOM     12  H   UNL     1       2.697   1.345  16.813  0.00  0.00    +0.000 HD
ENDBRANCH   7  11
ENDBRANCH   2   3
BRANCH   1  14
ATOM     13  N   UNL     1       1.128   8.832  19.004  0.00  0.00    +0.000 N 
ATOM     14  C   UNL     1       2.169   8.653  18.122  0.00  0.00    +0.000 C 
ATOM     15  O   UNL     1       2.586   9.550  17.395  0.00  0.00    +0.000 OA
ATOM     16  H   UNL     1       0.827   8.084  19.614  0.00  0.00    +0.000 HD
BRANCH  13  18
ATOM     17  C   UNL     1      -0.655  10.280  18.143  0.00  0.00    +0.000 C 
ATOM     18  C   UNL     1       0.458  10.115  19.178  0.00  0.00    +0.000 C 
BRANCH  18  19
ATOM     19  C   UNL     1      -0.066  10.249  20.597  0.00  0.00    +0.000 A 
ATOM     20  C   UNL     1      -0.703  11.436  20.994  0.00  0.00    +0.000 A 
ATOM     21  C   UNL     1      -1.170  11.596  22.300  0.00  0.00    +0.000 A 
ATOM     22  C   UNL     1      -1.006  10.572  23.229  0.00  0.00    +0.000 A 
ATOM     23  C   UNL     1      -0.389   9.382  22.849  0.00  0.00    +0.000 A 
ATOM     24  C   UNL     1       0.073   9.218  21.541  0.00  0.00    +0.000 A 
ENDBRANCH  18  19
ENDBRANCH  13  18
ENDBRANCH   1  14
BRANCH   1  25
ATOM     25  C   UNL     1       3.917   7.030  17.276  0.00  0.00    +0.000 C 
ATOM     26  N   UNL     1       4.880   6.812  16.663  0.00  0.00    +0.000 NA
ENDBRANCH   1  25
TORSDOF 7
ENDMDL
MODEL 7
REMARK VINA RESULT:      -7.5      4.611      8.655
REMARK  Name = 
REMARK  8 active torsions:
REMARK  status: ('A' for Active; 'I' for Inactive)
REMARK    1  A    between atoms: C_1  and  C_2
REMARK    2  A    between atoms: C_2  and  N_3
REMARK    3  A    between atoms: C_2  and  C_18
REMARK    4  A    between atoms: C_4  and  C_6
REMARK    5  A    between atoms: C_6  and  C_7
REMARK    6  A    between atoms: C_9  and  C_10
REMARK    7  A    between atoms: C_13  and  O_14
REMARK    8  A    between atoms: C_15  and  O_16
REMARK                            x       y       z     vdW  Elec       q    Type
REMARK                         _______ _______ _______ _____ _____    ______ ____
ROOT
ATOM      1  C   UNL     1       5.400   4.917  16.747  0.00  0.00    +0.000 C 
ATOM      2  C   UNL     1       4.122   4.598  17.041  0.00  0.00    +0.000 C 
ENDROOT
BRANCH   2   3
ATOM      3  C   UNL     1       3.698   4.133  18.365  0.00  0.00    +0.000 A 
ATOM      4  C   UNL     1       3.628   2.757  18.638  0.00  0.00    +0.000 A 
ATOM      5  C   UNL     1       3.097   2.301  19.849  0.00  0.00    +0.000 A 
ATOM      6  C   UNL     1       2.645   3.227  20.781  0.00  0.00    +0.000 A 
ATOM      7  C   UNL     1       2.753   4.592  20.526  0.00  0.00    +0.000 A 
ATOM      8  C   UNL     1       3.278   5.056  19.329  0.00  0.00    +0.000 A 
BRANCH   6   9
ATOM      9  O   UNL     1       2.069   2.844  21.959  0.00  0.00    +0.000 OA
ATOM     10  H   UNL     1       2.277   1.905  22.107  0.00  0.00    +0.000 HD
ENDBRANCH   6   9
BRANCH   7  11
ATOM     11  O   UNL     1       2.311   5.494  21.451  0.00  0.00    +0.000 OA
ATOM     12  H   UNL     1       1.476   5.113  21.787  0.00  0.00    +0.000 HD
ENDBRANCH   7  11
ENDBRANCH   2   3
BRANCH   1  14
ATOM     13  N   UNL     1       6.384   4.503  14.550  0.00  0.00    +0.000 N 
ATOM     14  C   UNL     1       5.702   5.388  15.354  0.00  0.00    +0.000 C 
ATOM     15  O   UNL     1       5.361   6.505  14.974  0.00  0.00    +0.000 OA
ATOM     16  H   UNL     1       6.623   3.578  14.879  0.00  0.00    +0.000 HD
BRANCH  13  18
ATOM     17  C   UNL     1       8.149   5.350  13.072  0.00  0.00    +0.000 C 
ATOM     18  C   UNL     1       6.724   4.803  13.164  0.00  0.00    +0.000 C 
BRANCH  18  19
ATOM     19  C   UNL     1       6.534   3.572  12.295  0.00  0.00    +0.000 A 
ATOM     20  C   UNL     1       5.240   3.081  12.059  0.00  0.00    +0.000 A 
ATOM     21  C   UNL     1       5.039   1.936  11.287  0.00  0.00    +0.000 A 
ATOM     22  C   UNL     1       6.129   1.263  10.741  0.00  0.00    +0.000 A 
ATOM     23  C   UNL     1       7.419   1.743  10.954  0.00  0.00    +0.000 A 
ATOM     24  C   UNL     1       7.621   2.893  11.720  0.00  0.00    +0.000 A 
ENDBRANCH  18  19
ENDBRANCH  13  18
ENDBRANCH   1  14
BRANCH   1  25
ATOM     25  C   UNL     1       6.441   4.836  17.710  0.00  0.00    +0.000 C 
ATOM     26  N   UNL     1       7.255   4.779  18.539  0.00  0.00    +0.000 NA
ENDBRANCH   1  25
TORSDOF 7
ENDMDL
MODEL 8
REMARK VINA RESULT:      -7.4      4.598      8.669
REMARK  Name = 
REMARK  8 active torsions:
REMARK  status: ('A' for Active; 'I' for Inactive)
REMARK    1  A    between atoms: C_1  and  C_2
REMARK    2  A    between atoms: C_2  and  N_3
REMARK    3  A    between atoms: C_2  and  C_18
REMARK    4  A    between atoms: C_4  and  C_6
REMARK    5  A    between atoms: C_6  and  C_7
REMARK    6  A    between atoms: C_9  and  C_10
REMARK    7  A    between atoms: C_13  and  O_14
REMARK    8  A    between atoms: C_15  and  O_16
REMARK                            x       y       z     vdW  Elec       q    Type
REMARK                         _______ _______ _______ _____ _____    ______ ____
ROOT
ATOM      1  C   UNL     1       5.392   4.974  16.783  0.00  0.00    +0.000 C 
ATOM      2  C   UNL     1       4.120   4.629  17.074  0.00  0.00    +0.000 C 
ENDROOT
BRANCH   2   3
ATOM      3  C   UNL     1       3.700   4.178  18.404  0.00  0.00    +0.000 A 
ATOM      4  C   UNL     1       3.701   2.808  18.715  0.00  0.00    +0.000 A 
ATOM      5  C   UNL     1       3.174   2.357  19.929  0.00  0.00    +0.000 A 
ATOM      6  C   UNL     1       2.655   3.281  20.826  0.00  0.00    +0.000 A 
ATOM      7  C   UNL     1       2.691   4.643  20.535  0.00  0.00    +0.000 A 
ATOM      8  C   UNL     1       3.211   5.102  19.333  0.00  0.00    +0.000 A 
BRANCH   6   9
ATOM      9  O   UNL     1       2.079   2.899  22.006  0.00  0.00    +0.000 OA
ATOM     10  H   UNL     1       1.306   3.469  22.163  0.00  0.00    +0.000 HD
ENDBRANCH   6   9
BRANCH   7  11
ATOM     11  O   UNL     1       2.183   5.544  21.426  0.00  0.00    +0.000 OA
ATOM     12  H   UNL     1       2.234   5.090  22.290  0.00  0.00    +0.000 HD
ENDBRANCH   7  11
ENDBRANCH   2   3
BRANCH   1  14
ATOM     13  N   UNL     1       6.352   4.523  14.582  0.00  0.00    +0.000 N 
ATOM     14  C   UNL     1       5.692   5.427  15.383  0.00  0.00    +0.000 C 
ATOM     15  O   UNL     1       5.369   6.547  14.996  0.00  0.00    +0.000 OA
ATOM     16  H   UNL     1       6.578   3.597  14.918  0.00  0.00    +0.000 HD
BRANCH  13  18
ATOM     17  C   UNL     1       8.119   5.331  13.084  0.00  0.00    +0.000 C 
ATOM     18  C   UNL     1       6.687   4.805  13.191  0.00  0.00    +0.000 C 
BRANCH  18  19
ATOM     19  C   UNL     1       6.475   3.567  12.336  0.00  0.00    +0.000 A 
ATOM     20  C   UNL     1       7.584   2.901  11.790  0.00  0.00    +0.000 A 
ATOM     21  C   UNL     1       7.416   1.779  10.979  0.00  0.00    +0.000 A 
ATOM     22  C   UNL     1       6.136   1.305  10.700  0.00  0.00    +0.000 A 
ATOM     23  C   UNL     1       5.025   1.945  11.245  0.00  0.00    +0.000 A 
ATOM     24  C   UNL     1       5.192   3.065  12.062  0.00  0.00    +0.000 A 
ENDBRANCH  18  19
ENDBRANCH  13  18
ENDBRANCH   1  14
BRANCH   1  25
ATOM     25  C   UNL     1       6.429   4.936  17.754  0.00  0.00    +0.000 C 
ATOM     26  N   UNL     1       7.309   4.876  18.511  0.00  0.00    +0.000 NA
ENDBRANCH   1  25
TORSDOF 7
ENDMDL
MODEL 9
REMARK VINA RESULT:      -7.3      4.660      8.476
REMARK  Name = 
REMARK  8 active torsions:
REMARK  status: ('A' for Active; 'I' for Inactive)
REMARK    1  A    between atoms: C_1  and  C_2
REMARK    2  A    between atoms: C_2  and  N_3
REMARK    3  A    between atoms: C_2  and  C_18
REMARK    4  A    between atoms: C_4  and  C_6
REMARK    5  A    between atoms: C_6  and  C_7
REMARK    6  A    between atoms: C_9  and  C_10
REMARK    7  A    between atoms: C_13  and  O_14
REMARK    8  A    between atoms: C_15  and  O_16
REMARK                            x       y       z     vdW  Elec       q    Type
REMARK                         _______ _______ _______ _____ _____    ______ ____
ROOT
ATOM      1  C   UNL     1       5.214   5.017  16.818  0.00  0.00    +0.000 C 
ATOM      2  C   UNL     1       4.121   4.237  16.952  0.00  0.00    +0.000 C 
ENDROOT
BRANCH   2   3
ATOM      3  C   UNL     1       3.660   3.724  18.246  0.00  0.00    +0.000 A 
ATOM      4  C   UNL     1       2.424   4.142  18.768  0.00  0.00    +0.000 A 
ATOM      5  C   UNL     1       2.038   3.768  20.059  0.00  0.00    +0.000 A 
ATOM      6  C   UNL     1       2.889   2.974  20.816  0.00  0.00    +0.000 A 
ATOM      7  C   UNL     1       4.095   2.526  20.283  0.00  0.00    +0.000 A 
ATOM      8  C   UNL     1       4.489   2.890  19.003  0.00  0.00    +0.000 A 
BRANCH   6   9
ATOM      9  O   UNL     1       2.592   2.618  22.102  0.00  0.00    +0.000 OA
ATOM     10  H   UNL     1       3.274   2.993  22.685  0.00  0.00    +0.000 HD
ENDBRANCH   6   9
BRANCH   7  11
ATOM     11  O   UNL     1       4.922   1.740  21.034  0.00  0.00    +0.000 OA
ATOM     12  H   UNL     1       4.581   1.826  21.946  0.00  0.00    +0.000 HD
ENDBRANCH   7  11
ENDBRANCH   2   3
BRANCH   1  14
ATOM     13  N   UNL     1       6.274   4.587  14.659  0.00  0.00    +0.000 N 
ATOM     14  C   UNL     1       5.577   5.483  15.437  0.00  0.00    +0.000 C 
ATOM     15  O   UNL     1       5.268   6.605  15.045  0.00  0.00    +0.000 OA
ATOM     16  H   UNL     1       6.486   3.658  14.996  0.00  0.00    +0.000 HD
BRANCH  13  18
ATOM     17  C   UNL     1       8.121   5.369  13.245  0.00  0.00    +0.000 C 
ATOM     18  C   UNL     1       6.672   4.882  13.287  0.00  0.00    +0.000 C 
BRANCH  18  19
ATOM     19  C   UNL     1       6.460   3.665  12.403  0.00  0.00    +0.000 A 
ATOM     20  C   UNL     1       5.154   3.237  12.111  0.00  0.00    +0.000 A 
ATOM     21  C   UNL     1       4.931   2.106  11.324  0.00  0.00    +0.000 A 
ATOM     22  C   UNL     1       6.010   1.385  10.818  0.00  0.00    +0.000 A 
ATOM     23  C   UNL     1       7.311   1.803  11.087  0.00  0.00    +0.000 A 
ATOM     24  C   UNL     1       7.536   2.938  11.868  0.00  0.00    +0.000 A 
ENDBRANCH  18  19
ENDBRANCH  13  18
ENDBRANCH   1  14
BRANCH   1  25
ATOM     25  C   UNL     1       6.004   5.413  17.930  0.00  0.00    +0.000 C 
ATOM     26  N   UNL     1       6.697   5.732  18.808  0.00  0.00    +0.000 NA
ENDBRANCH   1  25
TORSDOF 7
ENDMDL
