MODEL 1
REMARK VINA RESULT:      -7.8      0.000      0.000
REMARK  Name = 
REMARK  9 active torsions:
REMARK  status: ('A' for Active; 'I' for Inactive)
REMARK    1  A    between atoms: C_1  and  O_2
REMARK    2  A    between atoms: O_2  and  C_3
REMARK    3  A    between atoms: C_6  and  N_7
REMARK    4  A    between atoms: C_8  and  C_10
REMARK    5  A    between atoms: C_10  and  N_11
REMARK    6  A    between atoms: N_13  and  C_14
REMARK    7  A    between atoms: C_14  and  C_15
REMARK    8  A    between atoms: C_15  and  C_16
REMARK    9  A    between atoms: C_15  and  O_17
REMARK                            x       y       z     vdW  Elec       q    Type
REMARK                         _______ _______ _______ _____ _____    ______ ____
ROOT
ATOM      1  N   UNL     1       3.415   5.263  18.569  0.00  0.00    +0.000 N 
ATOM      2  C   UNL     1       4.731   4.828  18.549  0.00  0.00    +0.000 A 
ATOM      3  N   UNL     1       5.646   5.348  17.694  0.00  0.00    +0.000 N 
ATOM      4  N   UNL     1       4.899   3.836  19.386  0.00  0.00    +0.000 NA
ATOM      5  C   UNL     1       3.669   3.575  19.931  0.00  0.00    +0.000 A 
ATOM      6  C   UNL     1       3.294   2.600  20.869  0.00  0.00    +0.000 A 
ATOM      7  C   UNL     1       1.946   2.499  21.244  0.00  0.00    +0.000 A 
ATOM      8  C   UNL     1       0.988   3.334  20.682  0.00  0.00    +0.000 A 
ATOM      9  C   UNL     1       1.342   4.301  19.739  0.00  0.00    +0.000 A 
ATOM     10  C   UNL     1       2.703   4.420  19.402  0.00  0.00    +0.000 A 
ATOM     11  H   UNL     1       5.859   6.344  17.738  0.00  0.00    +0.000 HD
ENDROOT
BRANCH   1  12
ATOM     12  C   UNL     1       2.852   6.297  17.716  0.00  0.00    +0.000 C 
BRANCH  12  14
ATOM     13  N   UNL     1       1.791   8.504  17.671  0.00  0.00    +0.000 N 
ATOM     14  C   UNL     1       2.370   7.527  18.465  0.00  0.00    +0.000 C 
ATOM     15  O   UNL     1       2.475   7.587  19.690  0.00  0.00    +0.000 OA
ATOM     16  H   UNL     1       1.578   8.260  16.710  0.00  0.00    +0.000 HD
BRANCH  13  20
ATOM     17  C   UNL     1       0.468  12.329  18.957  0.00  0.00    +0.000 A 
ATOM     18  C   UNL     1       1.809  12.131  18.602  0.00  0.00    +0.000 A 
ATOM     19  C   UNL     1       2.274  10.877  18.186  0.00  0.00    +0.000 A 
ATOM     20  C   UNL     1       1.401   9.794  18.093  0.00  0.00    +0.000 A 
ATOM     21  C   UNL     1       0.051  10.000  18.394  0.00  0.00    +0.000 A 
ATOM     22  C   UNL     1      -0.416  11.252  18.830  0.00  0.00    +0.000 A 
ATOM     23 CL   UNL     1      -2.118  11.354  19.120  0.00  0.00    +0.000 Cl
BRANCH  17  25
ATOM     24  C   UNL     1       1.061  14.632  18.822  0.00  0.00    +0.000 C 
ATOM     25  O   UNL     1       0.182  13.622  19.300  0.00  0.00    +0.000 OA
ENDBRANCH  17  25
ENDBRANCH  13  20
ENDBRANCH  12  14
ENDBRANCH   1  12
BRANCH   3  26
ATOM     26  C   UNL     1       6.831   4.548  17.352  0.00  0.00    +0.000 C 
BRANCH  26  27
ATOM     27  C   UNL     1       7.145   4.554  15.843  0.00  0.00    +0.000 C 
ATOM     28  C   UNL     1       5.960   4.023  15.035  0.00  0.00    +0.000 C 
BRANCH  27  29
ATOM     29  O   UNL     1       7.437   5.893  15.409  0.00  0.00    +0.000 OA
ATOM     30  H   UNL     1       7.632   6.423  16.202  0.00  0.00    +0.000 HD
ENDBRANCH  27  29
ENDBRANCH  26  27
ENDBRANCH   3  26
TORSDOF 7
ENDMDL
MODEL 2
REMARK VINA RESULT:      -7.7      1.198      1.505
REMARK  Name = 
REMARK  9 active torsions:
REMARK  status: ('A' for Active; 'I' for Inactive)
REMARK    1  A    between atoms: C_1  and  O_2
REMARK    2  A    between atoms: O_2  and  C_3
REMARK    3  A    between atoms: C_6  and  N_7
REMARK    4  A    between atoms: C_8  and  C_10
REMARK    5  A    between atoms: C_10  and  N_11
REMARK    6  A    between atoms: N_13  and  C_14
REMARK    7  A    between atoms: C_14  and  C_15
REMARK    8  A    between atoms: C_15  and  C_16
REMARK    9  A    between atoms: C_15  and  O_17
REMARK                            x       y       z     vdW  Elec       q    Type
REMARK                         _______ _______ _______ _____ _____    ______ ____
ROOT
ATOM      1  N   UNL     1       3.456   5.337  18.662  0.00  0.00    +0.000 N 
ATOM      2  C   UNL     1       4.774   4.911  18.701  0.00  0.00    +0.000 A 
ATOM      3  N   UNL     1       5.733   5.473  17.925  0.00  0.00    +0.000 N 
ATOM      4  N   UNL     1       4.900   3.883  19.501  0.00  0.00    +0.000 NA
ATOM      5  C   UNL     1       3.642   3.590  19.960  0.00  0.00    +0.000 A 
ATOM      6  C   UNL     1       3.220   2.572  20.830  0.00  0.00    +0.000 A 
ATOM      7  C   UNL     1       1.853   2.448  21.120  0.00  0.00    +0.000 A 
ATOM      8  C   UNL     1       0.923   3.302  20.540  0.00  0.00    +0.000 A 
ATOM      9  C   UNL     1       1.325   4.313  19.664  0.00  0.00    +0.000 A 
ATOM     10  C   UNL     1       2.703   4.454  19.414  0.00  0.00    +0.000 A 
ATOM     11  H   UNL     1       5.936   6.467  18.027  0.00  0.00    +0.000 HD
ENDROOT
BRANCH   1  12
ATOM     12  C   UNL     1       2.935   6.405  17.825  0.00  0.00    +0.000 C 
BRANCH  12  14
ATOM     13  N   UNL     1       1.801   8.576  17.817  0.00  0.00    +0.000 N 
ATOM     14  C   UNL     1       2.370   7.583  18.599  0.00  0.00    +0.000 C 
ATOM     15  O   UNL     1       2.406   7.591  19.829  0.00  0.00    +0.000 OA
ATOM     16  H   UNL     1       1.650   8.370  16.836  0.00  0.00    +0.000 HD
BRANCH  13  20
ATOM     17  C   UNL     1       0.561  12.417  19.137  0.00  0.00    +0.000 A 
ATOM     18  C   UNL     1      -0.267  11.304  19.337  0.00  0.00    +0.000 A 
ATOM     19  C   UNL     1       0.113  10.028  18.900  0.00  0.00    +0.000 A 
ATOM     20  C   UNL     1       1.342   9.832  18.273  0.00  0.00    +0.000 A 
ATOM     21  C   UNL     1       2.195  10.930  18.121  0.00  0.00    +0.000 A 
ATOM     22  C   UNL     1       1.810  12.216  18.540  0.00  0.00    +0.000 A 
ATOM     23 CL   UNL     1       2.992  13.457  18.320  0.00  0.00    +0.000 Cl
BRANCH  17  25
ATOM     24  C   UNL     1       0.313  13.839  21.033  0.00  0.00    +0.000 C 
ATOM     25  O   UNL     1       0.051  13.574  19.660  0.00  0.00    +0.000 OA
ENDBRANCH  17  25
ENDBRANCH  13  20
ENDBRANCH  12  14
ENDBRANCH   1  12
BRANCH   3  26
ATOM     26  C   UNL     1       6.942   4.695  17.619  0.00  0.00    +0.000 C 
BRANCH  26  27
ATOM     27  C   UNL     1       7.164   4.502  16.105  0.00  0.00    +0.000 C 
ATOM     28  C   UNL     1       5.911   3.935  15.437  0.00  0.00    +0.000 C 
BRANCH  27  29
ATOM     29  O   UNL     1       7.485   5.762  15.493  0.00  0.00    +0.000 OA
ATOM     30  H   UNL     1       6.913   6.438  15.896  0.00  0.00    +0.000 HD
ENDBRANCH  27  29
ENDBRANCH  26  27
ENDBRANCH   3  26
TORSDOF 7
ENDMDL
MODEL 3
REMARK VINA RESULT:      -7.7      2.384      4.608
REMARK  Name = 
REMARK  9 active torsions:
REMARK  status: ('A' for Active; 'I' for Inactive)
REMARK    1  A    between atoms: C_1  and  O_2
REMARK    2  A    between atoms: O_2  and  C_3
REMARK    3  A    between atoms: C_6  and  N_7
REMARK    4  A    between atoms: C_8  and  C_10
REMARK    5  A    between atoms: C_10  and  N_11
REMARK    6  A    between atoms: N_13  and  C_14
REMARK    7  A    between atoms: C_14  and  C_15
REMARK    8  A    between atoms: C_15  and  C_16
REMARK    9  A    between atoms: C_15  and  O_17
REMARK                            x       y       z     vdW  Elec       q    Type
REMARK                         _______ _______ _______ _____ _____    ______ ____
ROOT
ATOM      1  N   UNL     1       4.612   4.843  18.074  0.00  0.00    +0.000 N 
ATOM      2  C   UNL     1       4.640   4.029  19.196  0.00  0.00    +0.000 A 
ATOM      3  N   UNL     1       3.585   3.252  19.543  0.00  0.00    +0.000 N 
ATOM      4  N   UNL     1       5.755   4.201  19.859  0.00  0.00    +0.000 NA
ATOM      5  C   UNL     1       6.455   5.177  19.199  0.00  0.00    +0.000 A 
ATOM      6  C   UNL     1       7.702   5.745  19.502  0.00  0.00    +0.000 A 
ATOM      7  C   UNL     1       8.196   6.775  18.688  0.00  0.00    +0.000 A 
ATOM      8  C   UNL     1       7.457   7.246  17.609  0.00  0.00    +0.000 A 
ATOM      9  C   UNL     1       6.210   6.699  17.301  0.00  0.00    +0.000 A 
ATOM     10  C   UNL     1       5.743   5.639  18.100  0.00  0.00    +0.000 A 
ATOM     11  H   UNL     1       3.260   2.535  18.895  0.00  0.00    +0.000 HD
ENDROOT
BRANCH   1  12
ATOM     12  C   UNL     1       3.500   4.970  17.146  0.00  0.00    +0.000 C 
BRANCH  12  14
ATOM     13  N   UNL     1       2.803   7.177  17.946  0.00  0.00    +0.000 N 
ATOM     14  C   UNL     1       2.393   5.893  17.624  0.00  0.00    +0.000 C 
ATOM     15  O   UNL     1       1.230   5.493  17.670  0.00  0.00    +0.000 OA
ATOM     16  H   UNL     1       3.742   7.449  17.680  0.00  0.00    +0.000 HD
BRANCH  13  20
ATOM     17  C   UNL     1       0.439  10.111  19.906  0.00  0.00    +0.000 A 
ATOM     18  C   UNL     1       0.574  10.134  18.512  0.00  0.00    +0.000 A 
ATOM     19  C   UNL     1       1.357   9.185  17.841  0.00  0.00    +0.000 A 
ATOM     20  C   UNL     1       2.007   8.176  18.551  0.00  0.00    +0.000 A 
ATOM     21  C   UNL     1       1.831   8.116  19.936  0.00  0.00    +0.000 A 
ATOM     22  C   UNL     1       1.061   9.077  20.615  0.00  0.00    +0.000 A 
ATOM     23 CL   UNL     1       0.906   8.840  22.321  0.00  0.00    +0.000 Cl
BRANCH  17  25
ATOM     24  C   UNL     1       0.218  12.253  20.925  0.00  0.00    +0.000 C 
ATOM     25  O   UNL     1      -0.392  11.085  20.388  0.00  0.00    +0.000 OA
ENDBRANCH  17  25
ENDBRANCH  13  20
ENDBRANCH  12  14
ENDBRANCH   1  12
BRANCH   3  26
ATOM     26  C   UNL     1       3.451   2.826  20.944  0.00  0.00    +0.000 C 
BRANCH  26  27
ATOM     27  C   UNL     1       2.177   3.375  21.619  0.00  0.00    +0.000 C 
ATOM     28  C   UNL     1       1.191   3.904  20.577  0.00  0.00    +0.000 C 
BRANCH  27  29
ATOM     29  O   UNL     1       1.537   2.334  22.375  0.00  0.00    +0.000 OA
ATOM     30  H   UNL     1       1.966   2.299  23.248  0.00  0.00    +0.000 HD
ENDBRANCH  27  29
ENDBRANCH  26  27
ENDBRANCH   3  26
TORSDOF 7
ENDMDL
MODEL 4
REMARK VINA RESULT:      -7.7      1.269      1.562
REMARK  Name = 
REMARK  9 active torsions:
REMARK  status: ('A' for Active; 'I' for Inactive)
REMARK    1  A    between atoms: C_1  and  O_2
REMARK    2  A    between atoms: O_2  and  C_3
REMARK    3  A    between atoms: C_6  and  N_7
REMARK    4  A    between atoms: C_8  and  C_10
REMARK    5  A    between atoms: C_10  and  N_11
REMARK    6  A    between atoms: N_13  and  C_14
REMARK    7  A    between atoms: C_14  and  C_15
REMARK    8  A    between atoms: C_15  and  C_16
REMARK    9  A    between atoms: C_15  and  O_17
REMARK                            x       y       z     vdW  Elec       q    Type
REMARK                         _______ _______ _______ _____ _____    ______ ____
ROOT
ATOM      1  N   UNL     1       3.181   5.505  18.778  0.00  0.00    +0.000 N 
ATOM      2  C   UNL     1       4.530   5.199  18.863  0.00  0.00    +0.000 A 
ATOM      3  N   UNL     1       5.463   5.860  18.134  0.00  0.00    +0.000 N 
ATOM      4  N   UNL     1       4.719   4.174  19.654  0.00  0.00    +0.000 NA
ATOM      5  C   UNL     1       3.477   3.760  20.059  0.00  0.00    +0.000 A 
ATOM      6  C   UNL     1       3.117   2.693  20.897  0.00  0.00    +0.000 A 
ATOM      7  C   UNL     1       1.757   2.440  21.131  0.00  0.00    +0.000 A 
ATOM      8  C   UNL     1       0.775   3.216  20.526  0.00  0.00    +0.000 A 
ATOM      9  C   UNL     1       1.116   4.273  19.680  0.00  0.00    +0.000 A 
ATOM     10  C   UNL     1       2.484   4.544  19.487  0.00  0.00    +0.000 A 
ATOM     11  H   UNL     1       5.569   6.867  18.257  0.00  0.00    +0.000 HD
ENDROOT
BRANCH   1  12
ATOM     12  C   UNL     1       2.597   6.535  17.935  0.00  0.00    +0.000 C 
BRANCH  12  14
ATOM     13  N   UNL     1       1.789   8.846  17.882  0.00  0.00    +0.000 N 
ATOM     14  C   UNL     1       2.162   7.781  18.686  0.00  0.00    +0.000 C 
ATOM     15  O   UNL     1       2.125   7.782  19.916  0.00  0.00    +0.000 OA
ATOM     16  H   UNL     1       1.668   8.666  16.892  0.00  0.00    +0.000 HD
BRANCH  13  20
ATOM     17  C   UNL     1       0.747  12.726  19.260  0.00  0.00    +0.000 A 
ATOM     18  C   UNL     1       1.976  12.513  18.621  0.00  0.00    +0.000 A 
ATOM     19  C   UNL     1       2.349  11.241  18.167  0.00  0.00    +0.000 A 
ATOM     20  C   UNL     1       1.490  10.155  18.323  0.00  0.00    +0.000 A 
ATOM     21  C   UNL     1       0.240  10.373  18.911  0.00  0.00    +0.000 A 
ATOM     22  C   UNL     1      -0.131  11.644  19.385  0.00  0.00    +0.000 A 
ATOM     23 CL   UNL     1      -1.724  11.758  20.047  0.00  0.00    +0.000 Cl
BRANCH  17  25
ATOM     24  C   UNL     1       1.091  15.028  18.752  0.00  0.00    +0.000 C 
ATOM     25  O   UNL     1       0.531  14.033  19.601  0.00  0.00    +0.000 OA
ENDBRANCH  17  25
ENDBRANCH  13  20
ENDBRANCH  12  14
ENDBRANCH   1  12
BRANCH   3  26
ATOM     26  C   UNL     1       6.749   5.201  17.866  0.00  0.00    +0.000 C 
BRANCH  26  27
ATOM     27  C   UNL     1       7.901   5.759  18.726  0.00  0.00    +0.000 C 
ATOM     28  C   UNL     1       8.107   7.251  18.462  0.00  0.00    +0.000 C 
BRANCH  27  29
ATOM     29  O   UNL     1       7.606   5.573  20.120  0.00  0.00    +0.000 OA
ATOM     30  H   UNL     1       8.171   6.183  20.624  0.00  0.00    +0.000 HD
ENDBRANCH  27  29
ENDBRANCH  26  27
ENDBRANCH   3  26
TORSDOF 7
ENDMDL
MODEL 5
REMARK VINA RESULT:      -7.6      1.933      2.046
REMARK  Name = 
REMARK  9 active torsions:
REMARK  status: ('A' for Active; 'I' for Inactive)
REMARK    1  A    between atoms: C_1  and  O_2
REMARK    2  A    between atoms: O_2  and  C_3
REMARK    3  A    between atoms: C_6  and  N_7
REMARK    4  A    between atoms: C_8  and  C_10
REMARK    5  A    between atoms: C_10  and  N_11
REMARK    6  A    between atoms: N_13  and  C_14
REMARK    7  A    between atoms: C_14  and  C_15
REMARK    8  A    between atoms: C_15  and  C_16
REMARK    9  A    between atoms: C_15  and  O_17
REMARK                            x       y       z     vdW  Elec       q    Type
REMARK                         _______ _______ _______ _____ _____    ______ ____
ROOT
ATOM      1  N   UNL     1       3.409   5.142  18.562  0.00  0.00    +0.000 N 
ATOM      2  C   UNL     1       4.745   4.772  18.546  0.00  0.00    +0.000 A 
ATOM      3  N   UNL     1       5.626   5.303  17.662  0.00  0.00    +0.000 N 
ATOM      4  N   UNL     1       4.969   3.823  19.419  0.00  0.00    +0.000 NA
ATOM      5  C   UNL     1       3.758   3.522  19.986  0.00  0.00    +0.000 A 
ATOM      6  C   UNL     1       3.440   2.567  20.964  0.00  0.00    +0.000 A 
ATOM      7  C   UNL     1       2.102   2.414  21.357  0.00  0.00    +0.000 A 
ATOM      8  C   UNL     1       1.099   3.178  20.773  0.00  0.00    +0.000 A 
ATOM      9  C   UNL     1       1.397   4.124  19.790  0.00  0.00    +0.000 A 
ATOM     10  C   UNL     1       2.747   4.297  19.435  0.00  0.00    +0.000 A 
ATOM     11  H   UNL     1       5.789   6.310  17.666  0.00  0.00    +0.000 HD
ENDROOT
BRANCH   1  12
ATOM     12  C   UNL     1       2.788   6.112  17.676  0.00  0.00    +0.000 C 
BRANCH  12  14
ATOM     13  N   UNL     1       1.760   7.560  19.363  0.00  0.00    +0.000 N 
ATOM     14  C   UNL     1       2.626   7.495  18.283  0.00  0.00    +0.000 C 
ATOM     15  O   UNL     1       3.265   8.446  17.836  0.00  0.00    +0.000 OA
ATOM     16  H   UNL     1       1.448   6.684  19.766  0.00  0.00    +0.000 HD
BRANCH  13  20
ATOM     17  C   UNL     1       0.428  11.020  21.434  0.00  0.00    +0.000 A 
ATOM     18  C   UNL     1       0.746  11.095  20.071  0.00  0.00    +0.000 A 
ATOM     19  C   UNL     1       1.199   9.972  19.367  0.00  0.00    +0.000 A 
ATOM     20  C   UNL     1       1.323   8.739  20.007  0.00  0.00    +0.000 A 
ATOM     21  C   UNL     1       0.955   8.647  21.353  0.00  0.00    +0.000 A 
ATOM     22  C   UNL     1       0.518   9.776  22.068  0.00  0.00    +0.000 A 
ATOM     23 CL   UNL     1       0.060   9.488  23.710  0.00  0.00    +0.000 Cl
BRANCH  17  25
ATOM     24  C   UNL     1      -1.432  12.446  21.862  0.00  0.00    +0.000 C 
ATOM     25  O   UNL     1      -0.033  12.201  21.950  0.00  0.00    +0.000 OA
ENDBRANCH  17  25
ENDBRANCH  13  20
ENDBRANCH  12  14
ENDBRANCH   1  12
BRANCH   3  26
ATOM     26  C   UNL     1       6.846   4.550  17.340  0.00  0.00    +0.000 C 
BRANCH  26  27
ATOM     27  C   UNL     1       7.082   4.411  15.822  0.00  0.00    +0.000 C 
ATOM     28  C   UNL     1       5.780   4.075  15.095  0.00  0.00    +0.000 C 
BRANCH  27  29
ATOM     29  O   UNL     1       7.604   5.641  15.293  0.00  0.00    +0.000 OA
ATOM     30  H   UNL     1       6.911   6.038  14.735  0.00  0.00    +0.000 HD
ENDBRANCH  27  29
ENDBRANCH  26  27
ENDBRANCH   3  26
TORSDOF 7
ENDMDL
MODEL 6
REMARK VINA RESULT:      -7.6      2.334      4.564
REMARK  Name = 
REMARK  9 active torsions:
REMARK  status: ('A' for Active; 'I' for Inactive)
REMARK    1  A    between atoms: C_1  and  O_2
REMARK    2  A    between atoms: O_2  and  C_3
REMARK    3  A    between atoms: C_6  and  N_7
REMARK    4  A    between atoms: C_8  and  C_10
REMARK    5  A    between atoms: C_10  and  N_11
REMARK    6  A    between atoms: N_13  and  C_14
REMARK    7  A    between atoms: C_14  and  C_15
REMARK    8  A    between atoms: C_15  and  C_16
REMARK    9  A    between atoms: C_15  and  O_17
REMARK                            x       y       z     vdW  Elec       q    Type
REMARK                         _______ _______ _______ _____ _____    ______ ____
ROOT
ATOM      1  N   UNL     1       4.759   5.270  17.813  0.00  0.00    +0.000 N 
ATOM      2  C   UNL     1       4.832   4.226  18.722  0.00  0.00    +0.000 A 
ATOM      3  N   UNL     1       3.784   3.397  18.948  0.00  0.00    +0.000 N 
ATOM      4  N   UNL     1       5.985   4.238  19.341  0.00  0.00    +0.000 NA
ATOM      5  C   UNL     1       6.666   5.332  18.875  0.00  0.00    +0.000 A 
ATOM      6  C   UNL     1       7.939   5.811  19.225  0.00  0.00    +0.000 A 
ATOM      7  C   UNL     1       8.407   6.994  18.635  0.00  0.00    +0.000 A 
ATOM      8  C   UNL     1       7.619   7.698  17.733  0.00  0.00    +0.000 A 
ATOM      9  C   UNL     1       6.346   7.242  17.383  0.00  0.00    +0.000 A 
ATOM     10  C   UNL     1       5.904   6.033  17.951  0.00  0.00    +0.000 A 
ATOM     11  H   UNL     1       3.410   2.845  18.175  0.00  0.00    +0.000 HD
ENDROOT
BRANCH   1  12
ATOM     12  C   UNL     1       3.600   5.609  17.003  0.00  0.00    +0.000 C 
BRANCH  12  14
ATOM     13  N   UNL     1       2.627   7.535  18.162  0.00  0.00    +0.000 N 
ATOM     14  C   UNL     1       2.448   6.213  17.787  0.00  0.00    +0.000 C 
ATOM     15  O   UNL     1       1.438   5.548  18.014  0.00  0.00    +0.000 OA
ATOM     16  H   UNL     1       3.405   8.037  17.750  0.00  0.00    +0.000 HD
BRANCH  13  20
ATOM     17  C   UNL     1       0.044   9.857  20.605  0.00  0.00    +0.000 A 
ATOM     18  C   UNL     1       0.804   8.824  21.169  0.00  0.00    +0.000 A 
ATOM     19  C   UNL     1       1.655   8.034  20.384  0.00  0.00    +0.000 A 
ATOM     20  C   UNL     1       1.782   8.278  19.017  0.00  0.00    +0.000 A 
ATOM     21  C   UNL     1       1.068   9.342  18.460  0.00  0.00    +0.000 A 
ATOM     22  C   UNL     1       0.198  10.125  19.241  0.00  0.00    +0.000 A 
ATOM     23 CL   UNL     1      -0.578  11.429  18.413  0.00  0.00    +0.000 Cl
BRANCH  17  25
ATOM     24  C   UNL     1      -0.294  11.878  21.821  0.00  0.00    +0.000 C 
ATOM     25  O   UNL     1      -0.700  10.547  21.523  0.00  0.00    +0.000 OA
ENDBRANCH  17  25
ENDBRANCH  13  20
ENDBRANCH  12  14
ENDBRANCH   1  12
BRANCH   3  26
ATOM     26  C   UNL     1       3.719   2.669  20.223  0.00  0.00    +0.000 C 
BRANCH  26  27
ATOM     27  C   UNL     1       2.539   3.117  21.110  0.00  0.00    +0.000 C 
ATOM     28  C   UNL     1       1.208   2.937  20.379  0.00  0.00    +0.000 C 
BRANCH  27  29
ATOM     29  O   UNL     1       2.512   2.339  22.318  0.00  0.00    +0.000 OA
ATOM     30  H   UNL     1       2.037   2.857  22.991  0.00  0.00    +0.000 HD
ENDBRANCH  27  29
ENDBRANCH  26  27
ENDBRANCH   3  26
TORSDOF 7
ENDMDL
MODEL 7
REMARK VINA RESULT:      -7.5      2.171      2.507
REMARK  Name = 
REMARK  9 active torsions:
REMARK  status: ('A' for Active; 'I' for Inactive)
REMARK    1  A    between atoms: C_1  and  O_2
REMARK    2  A    between atoms: O_2  and  C_3
REMARK    3  A    between atoms: C_6  and  N_7
REMARK    4  A    between atoms: C_8  and  C_10
REMARK    5  A    between atoms: C_10  and  N_11
REMARK    6  A    between atoms: N_13  and  C_14
REMARK    7  A    between atoms: C_14  and  C_15
REMARK    8  A    between atoms: C_15  and  C_16
REMARK    9  A    between atoms: C_15  and  O_17
REMARK                            x       y       z     vdW  Elec       q    Type
REMARK                         _______ _______ _______ _____ _____    ______ ____
ROOT
ATOM      1  N   UNL     1       3.209   5.276  18.829  0.00  0.00    +0.000 N 
ATOM      2  C   UNL     1       4.561   5.000  18.951  0.00  0.00    +0.000 A 
ATOM      3  N   UNL     1       5.492   5.625  18.189  0.00  0.00    +0.000 N 
ATOM      4  N   UNL     1       4.756   4.033  19.811  0.00  0.00    +0.000 NA
ATOM      5  C   UNL     1       3.516   3.627  20.229  0.00  0.00    +0.000 A 
ATOM      6  C   UNL     1       3.162   2.613  21.133  0.00  0.00    +0.000 A 
ATOM      7  C   UNL     1       1.804   2.353  21.367  0.00  0.00    +0.000 A 
ATOM      8  C   UNL     1       0.818   3.069  20.700  0.00  0.00    +0.000 A 
ATOM      9  C   UNL     1       1.153   4.073  19.788  0.00  0.00    +0.000 A 
ATOM     10  C   UNL     1       2.518   4.353  19.593  0.00  0.00    +0.000 A 
ATOM     11  H   UNL     1       5.581   6.640  18.245  0.00  0.00    +0.000 HD
ENDROOT
BRANCH   1  12
ATOM     12  C   UNL     1       2.619   6.237  17.912  0.00  0.00    +0.000 C 
BRANCH  12  14
ATOM     13  N   UNL     1       1.621   7.659  19.637  0.00  0.00    +0.000 N 
ATOM     14  C   UNL     1       2.418   7.621  18.504  0.00  0.00    +0.000 C 
ATOM     15  O   UNL     1       2.972   8.597  18.000  0.00  0.00    +0.000 OA
ATOM     16  H   UNL     1       1.386   6.776  20.075  0.00  0.00    +0.000 HD
BRANCH  13  20
ATOM     17  C   UNL     1       0.223  11.236  21.451  0.00  0.00    +0.000 A 
ATOM     18  C   UNL     1       0.553  10.129  22.243  0.00  0.00    +0.000 A 
ATOM     19  C   UNL     1       1.005   8.933  21.670  0.00  0.00    +0.000 A 
ATOM     20  C   UNL     1       1.159   8.826  20.288  0.00  0.00    +0.000 A 
ATOM     21  C   UNL     1       0.884   9.945  19.498  0.00  0.00    +0.000 A 
ATOM     22  C   UNL     1       0.412  11.142  20.068  0.00  0.00    +0.000 A 
ATOM     23 CL   UNL     1       0.159  12.446  18.962  0.00  0.00    +0.000 Cl
BRANCH  17  25
ATOM     24  C   UNL     1      -1.315  12.190  22.999  0.00  0.00    +0.000 C 
ATOM     25  O   UNL     1      -0.162  12.329  22.178  0.00  0.00    +0.000 OA
ENDBRANCH  17  25
ENDBRANCH  13  20
ENDBRANCH  12  14
ENDBRANCH   1  12
BRANCH   3  26
ATOM     26  C   UNL     1       6.792   4.971  17.981  0.00  0.00    +0.000 C 
BRANCH  26  27
ATOM     27  C   UNL     1       7.928   5.617  18.802  0.00  0.00    +0.000 C 
ATOM     28  C   UNL     1       8.062   7.104  18.473  0.00  0.00    +0.000 C 
BRANCH  27  29
ATOM     29  O   UNL     1       7.657   5.476  20.206  0.00  0.00    +0.000 OA
ATOM     30  H   UNL     1       6.726   5.210  20.301  0.00  0.00    +0.000 HD
ENDBRANCH  27  29
ENDBRANCH  26  27
ENDBRANCH   3  26
TORSDOF 7
ENDMDL
MODEL 8
REMARK VINA RESULT:      -7.5      1.952      2.252
REMARK  Name = 
REMARK  9 active torsions:
REMARK  status: ('A' for Active; 'I' for Inactive)
REMARK    1  A    between atoms: C_1  and  O_2
REMARK    2  A    between atoms: O_2  and  C_3
REMARK    3  A    between atoms: C_6  and  N_7
REMARK    4  A    between atoms: C_8  and  C_10
REMARK    5  A    between atoms: C_10  and  N_11
REMARK    6  A    between atoms: N_13  and  C_14
REMARK    7  A    between atoms: C_14  and  C_15
REMARK    8  A    between atoms: C_15  and  C_16
REMARK    9  A    between atoms: C_15  and  O_17
REMARK                            x       y       z     vdW  Elec       q    Type
REMARK                         _______ _______ _______ _____ _____    ______ ____
ROOT
ATOM      1  N   UNL     1       3.314   5.498  18.640  0.00  0.00    +0.000 N 
ATOM      2  C   UNL     1       4.042   5.151  17.513  0.00  0.00    +0.000 A 
ATOM      3  N   UNL     1       4.896   6.018  16.916  0.00  0.00    +0.000 N 
ATOM      4  N   UNL     1       3.715   3.951  17.107  0.00  0.00    +0.000 NA
ATOM      5  C   UNL     1       2.721   3.514  17.943  0.00  0.00    +0.000 A 
ATOM      6  C   UNL     1       2.011   2.303  17.935  0.00  0.00    +0.000 A 
ATOM      7  C   UNL     1       0.995   2.103  18.881  0.00  0.00    +0.000 A 
ATOM      8  C   UNL     1       0.675   3.095  19.801  0.00  0.00    +0.000 A 
ATOM      9  C   UNL     1       1.364   4.310  19.815  0.00  0.00    +0.000 A 
ATOM     10  C   UNL     1       2.409   4.482  18.888  0.00  0.00    +0.000 A 
ATOM     11  H   UNL     1       5.685   6.387  17.448  0.00  0.00    +0.000 HD
ENDROOT
BRANCH   1  12
ATOM     12  C   UNL     1       3.362   6.782  19.318  0.00  0.00    +0.000 C 
BRANCH  12  14
ATOM     13  N   UNL     1       1.712   8.546  19.725  0.00  0.00    +0.000 N 
ATOM     14  C   UNL     1       2.394   7.815  18.766  0.00  0.00    +0.000 C 
ATOM     15  O   UNL     1       2.287   7.976  17.551  0.00  0.00    +0.000 OA
ATOM     16  H   UNL     1       2.026   8.467  20.686  0.00  0.00    +0.000 HD
BRANCH  13  20
ATOM     17  C   UNL     1      -1.463  11.308  19.152  0.00  0.00    +0.000 A 
ATOM     18  C   UNL     1      -0.948  10.592  18.063  0.00  0.00    +0.000 A 
ATOM     19  C   UNL     1       0.107   9.684  18.222  0.00  0.00    +0.000 A 
ATOM     20  C   UNL     1       0.657   9.454  19.482  0.00  0.00    +0.000 A 
ATOM     21  C   UNL     1       0.111  10.125  20.580  0.00  0.00    +0.000 A 
ATOM     22  C   UNL     1      -0.935  11.051  20.422  0.00  0.00    +0.000 A 
ATOM     23 CL   UNL     1      -1.527  11.765  21.881  0.00  0.00    +0.000 Cl
BRANCH  17  25
ATOM     24  C   UNL     1      -3.633  11.509  18.192  0.00  0.00    +0.000 C 
ATOM     25  O   UNL     1      -2.514  12.120  18.821  0.00  0.00    +0.000 OA
ENDBRANCH  17  25
ENDBRANCH  13  20
ENDBRANCH  12  14
ENDBRANCH   1  12
BRANCH   3  26
ATOM     26  C   UNL     1       5.237   5.816  15.500  0.00  0.00    +0.000 C 
BRANCH  26  27
ATOM     27  C   UNL     1       6.519   4.982  15.305  0.00  0.00    +0.000 C 
ATOM     28  C   UNL     1       6.513   4.280  13.947  0.00  0.00    +0.000 C 
BRANCH  27  29
ATOM     29  O   UNL     1       7.673   5.836  15.379  0.00  0.00    +0.000 OA
ATOM     30  H   UNL     1       7.653   6.426  14.605  0.00  0.00    +0.000 HD
ENDBRANCH  27  29
ENDBRANCH  26  27
ENDBRANCH   3  26
TORSDOF 7
ENDMDL
MODEL 9
REMARK VINA RESULT:      -7.5      1.501      1.871
REMARK  Name = 
REMARK  9 active torsions:
REMARK  status: ('A' for Active; 'I' for Inactive)
REMARK    1  A    between atoms: C_1  and  O_2
REMARK    2  A    between atoms: O_2  and  C_3
REMARK    3  A    between atoms: C_6  and  N_7
REMARK    4  A    between atoms: C_8  and  C_10
REMARK    5  A    between atoms: C_10  and  N_11
REMARK    6  A    between atoms: N_13  and  C_14
REMARK    7  A    between atoms: C_14  and  C_15
REMARK    8  A    between atoms: C_15  and  C_16
REMARK    9  A    between atoms: C_15  and  O_17
REMARK                            x       y       z     vdW  Elec       q    Type
REMARK                         _______ _______ _______ _____ _____    ______ ____
ROOT
ATOM      1  N   UNL     1       3.020   5.422  18.518  0.00  0.00    +0.000 N 
ATOM      2  C   UNL     1       4.309   5.024  18.201  0.00  0.00    +0.000 A 
ATOM      3  N   UNL     1       5.010   5.599  17.193  0.00  0.00    +0.000 N 
ATOM      4  N   UNL     1       4.670   4.006  18.941  0.00  0.00    +0.000 NA
ATOM      5  C   UNL     1       3.590   3.692  19.724  0.00  0.00    +0.000 A 
ATOM      6  C   UNL     1       3.443   2.674  20.679  0.00  0.00    +0.000 A 
ATOM      7  C   UNL     1       2.208   2.522  21.328  0.00  0.00    +0.000 A 
ATOM      8  C   UNL     1       1.137   3.351  21.018  0.00  0.00    +0.000 A 
ATOM      9  C   UNL     1       1.264   4.361  20.062  0.00  0.00    +0.000 A 
ATOM     10  C   UNL     1       2.518   4.530  19.448  0.00  0.00    +0.000 A 
ATOM     11  H   UNL     1       5.210   6.598  17.232  0.00  0.00    +0.000 HD
ENDROOT
BRANCH   1  12
ATOM     12  C   UNL     1       2.268   6.470  17.849  0.00  0.00    +0.000 C 
BRANCH  12  14
ATOM     13  N   UNL     1       1.403   8.753  18.048  0.00  0.00    +0.000 N 
ATOM     14  C   UNL     1       2.010   7.696  18.707  0.00  0.00    +0.000 C 
ATOM     15  O   UNL     1       2.303   7.688  19.903  0.00  0.00    +0.000 OA
ATOM     16  H   UNL     1       1.028   8.574  17.123  0.00  0.00    +0.000 HD
BRANCH  13  20
ATOM     17  C   UNL     1       0.894  12.696  19.541  0.00  0.00    +0.000 A 
ATOM     18  C   UNL     1       0.030  11.672  19.951  0.00  0.00    +0.000 A 
ATOM     19  C   UNL     1       0.169  10.365  19.465  0.00  0.00    +0.000 A 
ATOM     20  C   UNL     1       1.191  10.048  18.572  0.00  0.00    +0.000 A 
ATOM     21  C   UNL     1       2.089  11.053  18.203  0.00  0.00    +0.000 A 
ATOM     22  C   UNL     1       1.943  12.370  18.674  0.00  0.00    +0.000 A 
ATOM     23 CL   UNL     1       3.158  13.487  18.158  0.00  0.00    +0.000 Cl
BRANCH  17  25
ATOM     24  C   UNL     1      -0.051  14.876  19.377  0.00  0.00    +0.000 C 
ATOM     25  O   UNL     1       0.639  13.897  20.144  0.00  0.00    +0.000 OA
ENDBRANCH  17  25
ENDBRANCH  13  20
ENDBRANCH  12  14
ENDBRANCH   1  12
BRANCH   3  26
ATOM     26  C   UNL     1       6.109   4.844  16.574  0.00  0.00    +0.000 C 
BRANCH  26  27
ATOM     27  C   UNL     1       7.484   5.166  17.195  0.00  0.00    +0.000 C 
ATOM     28  C   UNL     1       7.517   6.596  17.736  0.00  0.00    +0.000 C 
BRANCH  27  29
ATOM     29  O   UNL     1       7.759   4.258  18.274  0.00  0.00    +0.000 OA
ATOM     30  H   UNL     1       8.422   4.677  18.850  0.00  0.00    +0.000 HD
ENDBRANCH  27  29
ENDBRANCH  26  27
ENDBRANCH   3  26
TORSDOF 7
ENDMDL
