MODEL 1
REMARK VINA RESULT:      -7.5      0.000      0.000
REMARK  Name = 
REMARK  6 active torsions:
REMARK  status: ('A' for Active; 'I' for Inactive)
REMARK    1  A    between atoms: C_1  and  N_2
REMARK    2  A    between atoms: C_4  and  C_5
REMARK    3  A    between atoms: C_5  and  N_6
REMARK    4  A    between atoms: C_12  and  C_13
REMARK    5  A    between atoms: C_13  and  O_14
REMARK    6  A    between atoms: O_14  and  C_15
REMARK                            x       y       z     vdW  Elec       q    Type
REMARK                         _______ _______ _______ _____ _____    ______ ____
ROOT
ATOM      1  N   UNL     1       6.798   6.338  16.200  0.00  0.00    +0.000 NA
ATOM      2  C   UNL     1       7.667   6.950  17.240  0.00  0.00    +0.000 C 
ATOM      3  C   UNL     1       7.587   6.280  18.633  0.00  0.00    +0.000 C 
ATOM      4  C   UNL     1       6.240   5.695  18.793  0.00  0.00    +0.000 A 
ATOM      5  O   UNL     1       5.992   4.790  19.748  0.00  0.00    +0.000 OA
ATOM      6  N   UNL     1       4.661   4.443  19.672  0.00  0.00    +0.000 NA
ATOM      7  C   UNL     1       4.118   5.231  18.712  0.00  0.00    +0.000 A 
ATOM      8  C   UNL     1       5.161   5.815  17.945  0.00  0.00    +0.000 A 
ATOM      9  C   UNL     1       5.342   6.498  16.626  0.00  0.00    +0.000 C 
ENDROOT
BRANCH   1  10
ATOM     10  C   UNL     1       7.103   4.895  15.942  0.00  0.00    +0.000 C 
BRANCH  10  14
ATOM     11  C   UNL     1       4.943   3.221  11.753  0.00  0.00    +0.000 C 
ATOM     12  N   UNL     1       5.948   3.668  12.686  0.00  0.00    +0.000 N 
ATOM     13  C   UNL     1       5.880   3.592  14.048  0.00  0.00    +0.000 A 
ATOM     14  C   UNL     1       6.826   4.474  14.531  0.00  0.00    +0.000 A 
ATOM     15  C   UNL     1       7.536   4.866  13.366  0.00  0.00    +0.000 A 
ATOM     16  N   UNL     1       7.004   4.372  12.245  0.00  0.00    +0.000 NA
ENDBRANCH  10  14
ENDBRANCH   1  10
BRANCH   7  17
ATOM     17  C   UNL     1       2.682   5.615  18.943  0.00  0.00    +0.000 C 
BRANCH  17  18
ATOM     18  O   UNL     1       2.347   6.526  19.997  0.00  0.00    +0.000 OA
BRANCH  18  19
ATOM     19  C   UNL     1       1.954   7.772  19.538  0.00  0.00    +0.000 A 
ATOM     20  C   UNL     1       1.215   8.729  20.246  0.00  0.00    +0.000 A 
ATOM     21  C   UNL     1       0.861   9.946  19.655  0.00  0.00    +0.000 A 
ATOM     22  C   UNL     1       1.260  10.183  18.355  0.00  0.00    +0.000 A 
ATOM     23  N   UNL     1       1.990   9.299  17.636  0.00  0.00    +0.000 NA
ATOM     24  C   UNL     1       2.306   8.125  18.237  0.00  0.00    +0.000 A 
ENDBRANCH  18  19
ENDBRANCH  17  18
ENDBRANCH   7  17
TORSDOF 5
ENDMDL
MODEL 2
REMARK VINA RESULT:      -7.3      2.557      3.256
REMARK  Name = 
REMARK  6 active torsions:
REMARK  status: ('A' for Active; 'I' for Inactive)
REMARK    1  A    between atoms: C_1  and  N_2
REMARK    2  A    between atoms: C_4  and  C_5
REMARK    3  A    between atoms: C_5  and  N_6
REMARK    4  A    between atoms: C_12  and  C_13
REMARK    5  A    between atoms: C_13  and  O_14
REMARK    6  A    between atoms: O_14  and  C_15
REMARK                            x       y       z     vdW  Elec       q    Type
REMARK                         _______ _______ _______ _____ _____    ______ ____
ROOT
ATOM      1  N   UNL     1       6.393   6.274  16.210  0.00  0.00    +0.000 NA
ATOM      2  C   UNL     1       6.607   6.737  17.606  0.00  0.00    +0.000 C 
ATOM      3  C   UNL     1       6.404   5.652  18.691  0.00  0.00    +0.000 C 
ATOM      4  C   UNL     1       5.420   4.670  18.192  0.00  0.00    +0.000 A 
ATOM      5  O   UNL     1       5.291   3.470  18.770  0.00  0.00    +0.000 OA
ATOM      6  N   UNL     1       4.294   2.784  18.113  0.00  0.00    +0.000 NA
ATOM      7  C   UNL     1       3.782   3.644  17.199  0.00  0.00    +0.000 A 
ATOM      8  C   UNL     1       4.677   4.734  17.034  0.00  0.00    +0.000 A 
ATOM      9  C   UNL     1       4.940   5.838  16.057  0.00  0.00    +0.000 C 
ENDROOT
BRANCH   1  10
ATOM     10  C   UNL     1       7.310   5.161  15.804  0.00  0.00    +0.000 C 
BRANCH  10  14
ATOM     11  C   UNL     1       5.242   3.033  11.779  0.00  0.00    +0.000 C 
ATOM     12  N   UNL     1       6.212   3.649  12.651  0.00  0.00    +0.000 N 
ATOM     13  C   UNL     1       6.202   3.626  14.017  0.00  0.00    +0.000 A 
ATOM     14  C   UNL     1       7.040   4.645  14.424  0.00  0.00    +0.000 A 
ATOM     15  C   UNL     1       7.651   5.072  13.216  0.00  0.00    +0.000 A 
ATOM     16  N   UNL     1       7.149   4.463  12.138  0.00  0.00    +0.000 NA
ENDBRANCH  10  14
ENDBRANCH   1  10
BRANCH   7  17
ATOM     17  C   UNL     1       2.311   3.478  16.925  0.00  0.00    +0.000 C 
BRANCH  17  18
ATOM     18  O   UNL     1       1.352   4.137  17.759  0.00  0.00    +0.000 OA
BRANCH  18  19
ATOM     19  C   UNL     1       1.529   3.876  19.107  0.00  0.00    +0.000 A 
ATOM     20  C   UNL     1       1.201   2.692  19.780  0.00  0.00    +0.000 A 
ATOM     21  C   UNL     1       1.411   2.566  21.158  0.00  0.00    +0.000 A 
ATOM     22  C   UNL     1       1.954   3.637  21.839  0.00  0.00    +0.000 A 
ATOM     23  N   UNL     1       2.305   4.794  21.231  0.00  0.00    +0.000 NA
ATOM     24  C   UNL     1       2.077   4.885  19.897  0.00  0.00    +0.000 A 
ENDBRANCH  18  19
ENDBRANCH  17  18
ENDBRANCH   7  17
TORSDOF 5
ENDMDL
MODEL 3
REMARK VINA RESULT:      -7.3      0.969      1.246
REMARK  Name = 
REMARK  6 active torsions:
REMARK  status: ('A' for Active; 'I' for Inactive)
REMARK    1  A    between atoms: C_1  and  N_2
REMARK    2  A    between atoms: C_4  and  C_5
REMARK    3  A    between atoms: C_5  and  N_6
REMARK    4  A    between atoms: C_12  and  C_13
REMARK    5  A    between atoms: C_13  and  O_14
REMARK    6  A    between atoms: O_14  and  C_15
REMARK                            x       y       z     vdW  Elec       q    Type
REMARK                         _______ _______ _______ _____ _____    ______ ____
ROOT
ATOM      1  N   UNL     1       6.676   6.493  16.143  0.00  0.00    +0.000 NA
ATOM      2  C   UNL     1       7.557   7.366  16.963  0.00  0.00    +0.000 C 
ATOM      3  C   UNL     1       7.916   6.803  18.360  0.00  0.00    +0.000 C 
ATOM      4  C   UNL     1       6.810   5.935  18.811  0.00  0.00    +0.000 A 
ATOM      5  O   UNL     1       6.980   5.072  19.820  0.00  0.00    +0.000 OA
ATOM      6  N   UNL     1       5.784   4.420  20.031  0.00  0.00    +0.000 NA
ATOM      7  C   UNL     1       4.890   4.987  19.186  0.00  0.00    +0.000 A 
ATOM      8  C   UNL     1       5.589   5.737  18.203  0.00  0.00    +0.000 A 
ATOM      9  C   UNL     1       5.337   6.342  16.858  0.00  0.00    +0.000 C 
ENDROOT
BRANCH   1  10
ATOM     10  C   UNL     1       7.266   5.144  15.865  0.00  0.00    +0.000 C 
BRANCH  10  14
ATOM     11  C   UNL     1       5.001   3.189  11.858  0.00  0.00    +0.000 C 
ATOM     12  N   UNL     1       6.028   3.703  12.730  0.00  0.00    +0.000 N 
ATOM     13  C   UNL     1       6.001   3.713  14.095  0.00  0.00    +0.000 A 
ATOM     14  C   UNL     1       6.951   4.632  14.492  0.00  0.00    +0.000 A 
ATOM     15  C   UNL     1       7.623   4.955  13.284  0.00  0.00    +0.000 A 
ATOM     16  N   UNL     1       7.063   4.386  12.213  0.00  0.00    +0.000 NA
ENDBRANCH  10  14
ENDBRANCH   1  10
BRANCH   7  17
ATOM     17  C   UNL     1       3.477   5.043  19.700  0.00  0.00    +0.000 C 
BRANCH  17  18
ATOM     18  O   UNL     1       2.417   5.458  18.831  0.00  0.00    +0.000 OA
BRANCH  18  19
ATOM     19  C   UNL     1       2.100   6.800  18.958  0.00  0.00    +0.000 A 
ATOM     20  C   UNL     1       2.136   7.767  17.946  0.00  0.00    +0.000 A 
ATOM     21  C   UNL     1       1.812   9.101  18.213  0.00  0.00    +0.000 A 
ATOM     22  C   UNL     1       1.450   9.441  19.502  0.00  0.00    +0.000 A 
ATOM     23  N   UNL     1       1.381   8.541  20.510  0.00  0.00    +0.000 NA
ATOM     24  C   UNL     1       1.714   7.259  20.215  0.00  0.00    +0.000 A 
ENDBRANCH  18  19
ENDBRANCH  17  18
ENDBRANCH   7  17
TORSDOF 5
ENDMDL
MODEL 4
REMARK VINA RESULT:      -7.3      1.775      7.481
REMARK  Name = 
REMARK  6 active torsions:
REMARK  status: ('A' for Active; 'I' for Inactive)
REMARK    1  A    between atoms: C_1  and  N_2
REMARK    2  A    between atoms: C_4  and  C_5
REMARK    3  A    between atoms: C_5  and  N_6
REMARK    4  A    between atoms: C_12  and  C_13
REMARK    5  A    between atoms: C_13  and  O_14
REMARK    6  A    between atoms: O_14  and  C_15
REMARK                            x       y       z     vdW  Elec       q    Type
REMARK                         _______ _______ _______ _____ _____    ______ ____
ROOT
ATOM      1  N   UNL     1       2.562   6.138  18.050  0.00  0.00    +0.000 NA
ATOM      2  C   UNL     1       2.020   4.757  18.129  0.00  0.00    +0.000 C 
ATOM      3  C   UNL     1       2.943   3.733  18.834  0.00  0.00    +0.000 C 
ATOM      4  C   UNL     1       4.344   4.158  18.641  0.00  0.00    +0.000 A 
ATOM      5  O   UNL     1       5.326   3.653  19.397  0.00  0.00    +0.000 OA
ATOM      6  N   UNL     1       6.515   4.212  18.981  0.00  0.00    +0.000 NA
ATOM      7  C   UNL     1       6.216   4.982  17.907  0.00  0.00    +0.000 A 
ATOM      8  C   UNL     1       4.813   5.193  17.862  0.00  0.00    +0.000 A 
ATOM      9  C   UNL     1       3.833   6.117  17.208  0.00  0.00    +0.000 C 
ENDROOT
BRANCH   1  10
ATOM     10  C   UNL     1       2.842   6.745  19.391  0.00  0.00    +0.000 C 
BRANCH  10  14
ATOM     11  C   UNL     1       0.276  10.349  21.723  0.00  0.00    +0.000 C 
ATOM     12  N   UNL     1       0.751   9.462  20.690  0.00  0.00    +0.000 N 
ATOM     13  C   UNL     1       1.292   8.221  20.873  0.00  0.00    +0.000 A 
ATOM     14  C   UNL     1       1.963   7.917  19.706  0.00  0.00    +0.000 A 
ATOM     15  C   UNL     1       1.580   8.961  18.824  0.00  0.00    +0.000 A 
ATOM     16  N   UNL     1       0.840   9.899  19.422  0.00  0.00    +0.000 NA
ENDBRANCH  10  14
ENDBRANCH   1  10
BRANCH   7  17
ATOM     17  C   UNL     1       7.296   5.059  16.861  0.00  0.00    +0.000 C 
BRANCH  17  18
ATOM     18  O   UNL     1       7.094   5.851  15.685  0.00  0.00    +0.000 OA
BRANCH  18  19
ATOM     19  C   UNL     1       6.802   5.096  14.561  0.00  0.00    +0.000 A 
ATOM     20  C   UNL     1       5.722   4.218  14.401  0.00  0.00    +0.000 A 
ATOM     21  C   UNL     1       5.554   3.494  13.216  0.00  0.00    +0.000 A 
ATOM     22  C   UNL     1       6.478   3.669  12.205  0.00  0.00    +0.000 A 
ATOM     23  N   UNL     1       7.526   4.518  12.304  0.00  0.00    +0.000 NA
ATOM     24  C   UNL     1       7.664   5.195  13.471  0.00  0.00    +0.000 A 
ENDBRANCH  18  19
ENDBRANCH  17  18
ENDBRANCH   7  17
TORSDOF 5
ENDMDL
MODEL 5
REMARK VINA RESULT:      -7.2      1.780      7.468
REMARK  Name = 
REMARK  6 active torsions:
REMARK  status: ('A' for Active; 'I' for Inactive)
REMARK    1  A    between atoms: C_1  and  N_2
REMARK    2  A    between atoms: C_4  and  C_5
REMARK    3  A    between atoms: C_5  and  N_6
REMARK    4  A    between atoms: C_12  and  C_13
REMARK    5  A    between atoms: C_13  and  O_14
REMARK    6  A    between atoms: O_14  and  C_15
REMARK                            x       y       z     vdW  Elec       q    Type
REMARK                         _______ _______ _______ _____ _____    ______ ____
ROOT
ATOM      1  N   UNL     1       2.600   6.122  17.978  0.00  0.00    +0.000 NA
ATOM      2  C   UNL     1       2.025   4.759  18.122  0.00  0.00    +0.000 C 
ATOM      3  C   UNL     1       2.926   3.745  18.869  0.00  0.00    +0.000 C 
ATOM      4  C   UNL     1       4.336   4.127  18.650  0.00  0.00    +0.000 A 
ATOM      5  O   UNL     1       5.311   3.632  19.423  0.00  0.00    +0.000 OA
ATOM      6  N   UNL     1       6.510   4.142  18.977  0.00  0.00    +0.000 NA
ATOM      7  C   UNL     1       6.224   4.870  17.870  0.00  0.00    +0.000 A 
ATOM      8  C   UNL     1       4.826   5.113  17.823  0.00  0.00    +0.000 A 
ATOM      9  C   UNL     1       3.865   6.030  17.132  0.00  0.00    +0.000 C 
ENDROOT
BRANCH   1  10
ATOM     10  C   UNL     1       2.903   6.782  19.288  0.00  0.00    +0.000 C 
BRANCH  10  14
ATOM     11  C   UNL     1      -0.315  10.597  18.979  0.00  0.00    +0.000 C 
ATOM     12  N   UNL     1       0.640   9.658  19.512  0.00  0.00    +0.000 N 
ATOM     13  C   UNL     1       1.587   8.975  18.801  0.00  0.00    +0.000 A 
ATOM     14  C   UNL     1       1.985   7.924  19.602  0.00  0.00    +0.000 A 
ATOM     15  C   UNL     1       1.358   8.201  20.846  0.00  0.00    +0.000 A 
ATOM     16  N   UNL     1       0.544   9.258  20.791  0.00  0.00    +0.000 NA
ENDBRANCH  10  14
ENDBRANCH   1  10
BRANCH   7  17
ATOM     17  C   UNL     1       7.299   4.873  16.817  0.00  0.00    +0.000 C 
BRANCH  17  18
ATOM     18  O   UNL     1       7.189   5.749  15.689  0.00  0.00    +0.000 OA
BRANCH  18  19
ATOM     19  C   UNL     1       7.023   5.077  14.489  0.00  0.00    +0.000 A 
ATOM     20  C   UNL     1       7.768   5.263  13.317  0.00  0.00    +0.000 A 
ATOM     21  C   UNL     1       7.481   4.532  12.160  0.00  0.00    +0.000 A 
ATOM     22  C   UNL     1       6.446   3.618  12.202  0.00  0.00    +0.000 A 
ATOM     23  N   UNL     1       5.711   3.389  13.314  0.00  0.00    +0.000 NA
ATOM     24  C   UNL     1       6.010   4.124  14.414  0.00  0.00    +0.000 A 
ENDBRANCH  18  19
ENDBRANCH  17  18
ENDBRANCH   7  17
TORSDOF 5
ENDMDL
MODEL 6
REMARK VINA RESULT:      -7.2      2.065      7.450
REMARK  Name = 
REMARK  6 active torsions:
REMARK  status: ('A' for Active; 'I' for Inactive)
REMARK    1  A    between atoms: C_1  and  N_2
REMARK    2  A    between atoms: C_4  and  C_5
REMARK    3  A    between atoms: C_5  and  N_6
REMARK    4  A    between atoms: C_12  and  C_13
REMARK    5  A    between atoms: C_13  and  O_14
REMARK    6  A    between atoms: O_14  and  C_15
REMARK                            x       y       z     vdW  Elec       q    Type
REMARK                         _______ _______ _______ _____ _____    ______ ____
ROOT
ATOM      1  N   UNL     1       1.387   4.517  19.801  0.00  0.00    +0.000 NA
ATOM      2  C   UNL     1       1.449   3.121  20.307  0.00  0.00    +0.000 C 
ATOM      3  C   UNL     1       2.879   2.571  20.532  0.00  0.00    +0.000 C 
ATOM      4  C   UNL     1       3.791   3.244  19.585  0.00  0.00    +0.000 A 
ATOM      5  O   UNL     1       5.118   3.207  19.764  0.00  0.00    +0.000 OA
ATOM      6  N   UNL     1       5.708   3.895  18.726  0.00  0.00    +0.000 NA
ATOM      7  C   UNL     1       4.703   4.254  17.891  0.00  0.00    +0.000 A 
ATOM      8  C   UNL     1       3.462   4.110  18.566  0.00  0.00    +0.000 A 
ATOM      9  C   UNL     1       2.044   4.567  18.426  0.00  0.00    +0.000 C 
ENDROOT
BRANCH   1  10
ATOM     10  C   UNL     1       2.033   5.511  20.717  0.00  0.00    +0.000 C 
BRANCH  10  14
ATOM     11  C   UNL     1       1.522   9.737  18.092  0.00  0.00    +0.000 C 
ATOM     12  N   UNL     1       1.655   8.829  19.204  0.00  0.00    +0.000 N 
ATOM     13  C   UNL     1       2.254   7.602  19.181  0.00  0.00    +0.000 A 
ATOM     14  C   UNL     1       1.806   6.933  20.302  0.00  0.00    +0.000 A 
ATOM     15  C   UNL     1       1.106   7.934  21.025  0.00  0.00    +0.000 A 
ATOM     16  N   UNL     1       1.018   9.088  20.358  0.00  0.00    +0.000 NA
ENDBRANCH  10  14
ENDBRANCH   1  10
BRANCH   7  17
ATOM     17  C   UNL     1       5.074   4.297  16.433  0.00  0.00    +0.000 C 
BRANCH  17  18
ATOM     18  O   UNL     1       6.453   4.369  16.050  0.00  0.00    +0.000 OA
BRANCH  18  19
ATOM     19  C   UNL     1       6.639   4.369  14.678  0.00  0.00    +0.000 A 
ATOM     20  C   UNL     1       6.012   3.529  13.749  0.00  0.00    +0.000 A 
ATOM     21  C   UNL     1       6.309   3.616  12.385  0.00  0.00    +0.000 A 
ATOM     22  C   UNL     1       7.234   4.556  11.974  0.00  0.00    +0.000 A 
ATOM     23  N   UNL     1       7.853   5.402  12.830  0.00  0.00    +0.000 NA
ATOM     24  C   UNL     1       7.549   5.281  14.146  0.00  0.00    +0.000 A 
ENDBRANCH  18  19
ENDBRANCH  17  18
ENDBRANCH   7  17
TORSDOF 5
ENDMDL
MODEL 7
REMARK VINA RESULT:      -7.2      1.689      7.331
REMARK  Name = 
REMARK  6 active torsions:
REMARK  status: ('A' for Active; 'I' for Inactive)
REMARK    1  A    between atoms: C_1  and  N_2
REMARK    2  A    between atoms: C_4  and  C_5
REMARK    3  A    between atoms: C_5  and  N_6
REMARK    4  A    between atoms: C_12  and  C_13
REMARK    5  A    between atoms: C_13  and  O_14
REMARK    6  A    between atoms: O_14  and  C_15
REMARK                            x       y       z     vdW  Elec       q    Type
REMARK                         _______ _______ _______ _____ _____    ______ ____
ROOT
ATOM      1  N   UNL     1       2.701   6.129  17.984  0.00  0.00    +0.000 NA
ATOM      2  C   UNL     1       2.285   4.949  18.786  0.00  0.00    +0.000 C 
ATOM      3  C   UNL     1       3.366   4.399  19.748  0.00  0.00    +0.000 C 
ATOM      4  C   UNL     1       4.694   4.694  19.174  0.00  0.00    +0.000 A 
ATOM      5  O   UNL     1       5.800   4.625  19.926  0.00  0.00    +0.000 OA
ATOM      6  N   UNL     1       6.880   4.928  19.126  0.00  0.00    +0.000 NA
ATOM      7  C   UNL     1       6.391   5.085  17.872  0.00  0.00    +0.000 A 
ATOM      8  C   UNL     1       4.980   5.234  17.939  0.00  0.00    +0.000 A 
ATOM      9  C   UNL     1       3.857   5.720  17.077  0.00  0.00    +0.000 C 
ENDROOT
BRANCH   1  10
ATOM     10  C   UNL     1       3.096   7.308  18.820  0.00  0.00    +0.000 C 
BRANCH  10  14
ATOM     11  C   UNL     1      -0.788  10.367  18.066  0.00  0.00    +0.000 C 
ATOM     12  N   UNL     1       0.346   9.730  18.687  0.00  0.00    +0.000 N 
ATOM     13  C   UNL     1       1.375   9.101  18.044  0.00  0.00    +0.000 A 
ATOM     14  C   UNL     1       1.994   8.309  18.990  0.00  0.00    +0.000 A 
ATOM     15  C   UNL     1       1.375   8.703  20.206  0.00  0.00    +0.000 A 
ATOM     16  N   UNL     1       0.376   9.569  20.021  0.00  0.00    +0.000 NA
ENDBRANCH  10  14
ENDBRANCH   1  10
BRANCH   7  17
ATOM     17  C   UNL     1       7.323   4.662  16.769  0.00  0.00    +0.000 C 
BRANCH  17  18
ATOM     18  O   UNL     1       7.479   5.490  15.611  0.00  0.00    +0.000 OA
BRANCH  18  19
ATOM     19  C   UNL     1       7.059   4.878  14.442  0.00  0.00    +0.000 A 
ATOM     20  C   UNL     1       5.962   4.019  14.294  0.00  0.00    +0.000 A 
ATOM     21  C   UNL     1       5.659   3.446  13.055  0.00  0.00    +0.000 A 
ATOM     22  C   UNL     1       6.467   3.751  11.977  0.00  0.00    +0.000 A 
ATOM     23  N   UNL     1       7.526   4.589  12.064  0.00  0.00    +0.000 NA
ATOM     24  C   UNL     1       7.796   5.117  13.284  0.00  0.00    +0.000 A 
ENDBRANCH  18  19
ENDBRANCH  17  18
ENDBRANCH   7  17
TORSDOF 5
ENDMDL
MODEL 8
REMARK VINA RESULT:      -7.1      1.659      7.268
REMARK  Name = 
REMARK  6 active torsions:
REMARK  status: ('A' for Active; 'I' for Inactive)
REMARK    1  A    between atoms: C_1  and  N_2
REMARK    2  A    between atoms: C_4  and  C_5
REMARK    3  A    between atoms: C_5  and  N_6
REMARK    4  A    between atoms: C_12  and  C_13
REMARK    5  A    between atoms: C_13  and  O_14
REMARK    6  A    between atoms: O_14  and  C_15
REMARK                            x       y       z     vdW  Elec       q    Type
REMARK                         _______ _______ _______ _____ _____    ______ ____
ROOT
ATOM      1  N   UNL     1       2.373   5.450  18.423  0.00  0.00    +0.000 NA
ATOM      2  C   UNL     1       2.178   4.098  19.010  0.00  0.00    +0.000 C 
ATOM      3  C   UNL     1       3.404   3.533  19.767  0.00  0.00    +0.000 C 
ATOM      4  C   UNL     1       4.626   4.103  19.166  0.00  0.00    +0.000 A 
ATOM      5  O   UNL     1       5.800   4.047  19.809  0.00  0.00    +0.000 OA
ATOM      6  N   UNL     1       6.754   4.633  19.007  0.00  0.00    +0.000 NA
ATOM      7  C   UNL     1       6.131   4.948  17.845  0.00  0.00    +0.000 A 
ATOM      8  C   UNL     1       4.726   4.892  18.041  0.00  0.00    +0.000 A 
ATOM      9  C   UNL     1       3.475   5.371  17.373  0.00  0.00    +0.000 C 
ENDROOT
BRANCH   1  10
ATOM     10  C   UNL     1       2.703   6.499  19.440  0.00  0.00    +0.000 C 
BRANCH  10  14
ATOM     11  C   UNL     1       0.843  11.133  19.706  0.00  0.00    +0.000 C 
ATOM     12  N   UNL     1       1.228   9.845  19.184  0.00  0.00    +0.000 N 
ATOM     13  C   UNL     1       1.381   8.694  19.903  0.00  0.00    +0.000 A 
ATOM     14  C   UNL     1       2.128   7.843  19.113  0.00  0.00    +0.000 A 
ATOM     15  C   UNL     1       2.187   8.519  17.865  0.00  0.00    +0.000 A 
ATOM     16  N   UNL     1       1.635   9.734  17.909  0.00  0.00    +0.000 NA
ENDBRANCH  10  14
ENDBRANCH   1  10
BRANCH   7  17
ATOM     17  C   UNL     1       6.997   4.862  16.617  0.00  0.00    +0.000 C 
BRANCH  17  18
ATOM     18  O   UNL     1       6.713   5.694  15.486  0.00  0.00    +0.000 OA
BRANCH  18  19
ATOM     19  C   UNL     1       6.715   5.003  14.286  0.00  0.00    +0.000 A 
ATOM     20  C   UNL     1       7.644   5.135  13.246  0.00  0.00    +0.000 A 
ATOM     21  C   UNL     1       7.518   4.390  12.069  0.00  0.00    +0.000 A 
ATOM     22  C   UNL     1       6.454   3.516  11.958  0.00  0.00    +0.000 A 
ATOM     23  N   UNL     1       5.541   3.339  12.941  0.00  0.00    +0.000 NA
ATOM     24  C   UNL     1       5.689   4.086  14.063  0.00  0.00    +0.000 A 
ENDBRANCH  18  19
ENDBRANCH  17  18
ENDBRANCH   7  17
TORSDOF 5
ENDMDL
MODEL 9
REMARK VINA RESULT:      -7.1      1.004      1.288
REMARK  Name = 
REMARK  6 active torsions:
REMARK  status: ('A' for Active; 'I' for Inactive)
REMARK    1  A    between atoms: C_1  and  N_2
REMARK    2  A    between atoms: C_4  and  C_5
REMARK    3  A    between atoms: C_5  and  N_6
REMARK    4  A    between atoms: C_12  and  C_13
REMARK    5  A    between atoms: C_13  and  O_14
REMARK    6  A    between atoms: O_14  and  C_15
REMARK                            x       y       z     vdW  Elec       q    Type
REMARK                         _______ _______ _______ _____ _____    ______ ____
ROOT
ATOM      1  N   UNL     1       6.381   6.394  15.954  0.00  0.00    +0.000 NA
ATOM      2  C   UNL     1       7.018   7.318  16.928  0.00  0.00    +0.000 C 
ATOM      3  C   UNL     1       7.360   6.686  18.299  0.00  0.00    +0.000 C 
ATOM      4  C   UNL     1       6.398   5.597  18.563  0.00  0.00    +0.000 A 
ATOM      5  O   UNL     1       6.641   4.678  19.506  0.00  0.00    +0.000 OA
ATOM      6  N   UNL     1       5.572   3.810  19.542  0.00  0.00    +0.000 NA
ATOM      7  C   UNL     1       4.660   4.295  18.665  0.00  0.00    +0.000 A 
ATOM      8  C   UNL     1       5.288   5.253  17.824  0.00  0.00    +0.000 A 
ATOM      9  C   UNL     1       5.039   5.939  16.518  0.00  0.00    +0.000 C 
ENDROOT
BRANCH   1  10
ATOM     10  C   UNL     1       7.228   5.205  15.619  0.00  0.00    +0.000 C 
BRANCH  10  14
ATOM     11  C   UNL     1       5.007   3.045  11.693  0.00  0.00    +0.000 C 
ATOM     12  N   UNL     1       6.025   3.605  12.548  0.00  0.00    +0.000 N 
ATOM     13  C   UNL     1       5.985   3.683  13.911  0.00  0.00    +0.000 A 
ATOM     14  C   UNL     1       6.928   4.624  14.271  0.00  0.00    +0.000 A 
ATOM     15  C   UNL     1       7.610   4.890  13.054  0.00  0.00    +0.000 A 
ATOM     16  N   UNL     1       7.062   4.267  12.007  0.00  0.00    +0.000 NA
ENDBRANCH  10  14
ENDBRANCH   1  10
BRANCH   7  17
ATOM     17  C   UNL     1       3.224   4.051  19.041  0.00  0.00    +0.000 C 
BRANCH  17  18
ATOM     18  O   UNL     1       2.188   4.848  18.456  0.00  0.00    +0.000 OA
BRANCH  18  19
ATOM     19  C   UNL     1       1.997   6.057  19.102  0.00  0.00    +0.000 A 
ATOM     20  C   UNL     1       1.670   6.242  20.452  0.00  0.00    +0.000 A 
ATOM     21  C   UNL     1       1.481   7.524  20.978  0.00  0.00    +0.000 A 
ATOM     22  C   UNL     1       1.628   8.607  20.133  0.00  0.00    +0.000 A 
ATOM     23  N   UNL     1       1.961   8.482  18.827  0.00  0.00    +0.000 NA
ATOM     24  C   UNL     1       2.126   7.223  18.350  0.00  0.00    +0.000 A 
ENDBRANCH  18  19
ENDBRANCH  17  18
ENDBRANCH   7  17
TORSDOF 5
ENDMDL
