MODEL 1
REMARK VINA RESULT:      -9.2      0.000      0.000
REMARK  Name = 
REMARK  1 active torsions:
REMARK  status: ('A' for Active; 'I' for Inactive)
REMARK    1  A    between atoms: C_18  and  C_19
REMARK                            x       y       z     vdW  Elec       q    Type
REMARK                         _______ _______ _______ _____ _____    ______ ____
ROOT
ATOM      1  O   UNL     1       6.735   7.038  17.883  0.00  0.00    +0.000 OA
ATOM      2  S   UNL     1       6.541   5.613  18.007  0.00  0.00    +0.000 S 
ATOM      3  O   UNL     1       7.532   4.769  18.642  0.00  0.00    +0.000 OA
ATOM      4  N   UNL     1       5.104   5.386  18.807  0.00  0.00    +0.000 N 
ATOM      5  C   UNL     1       4.243   4.286  18.459  0.00  0.00    +0.000 A 
ATOM      6  C   UNL     1       4.167   3.796  17.134  0.00  0.00    +0.000 A 
ATOM      7  C   UNL     1       3.088   2.940  16.855  0.00  0.00    +0.000 A 
ATOM      8  C   UNL     1       2.143   2.613  17.826  0.00  0.00    +0.000 A 
ATOM      9  F   UNL     1       1.118   1.823  17.475  0.00  0.00    +0.000 F 
ATOM     10  C   UNL     1       2.240   3.098  19.129  0.00  0.00    +0.000 A 
ATOM     11  C   UNL     1       1.285   2.798  20.113  0.00  0.00    +0.000 A 
ATOM     12  C   UNL     1       1.421   3.324  21.391  0.00  0.00    +0.000 A 
ATOM     13  C   UNL     1       2.516   4.127  21.643  0.00  0.00    +0.000 A 
ATOM     14  N   UNL     1       3.449   4.438  20.714  0.00  0.00    +0.000 NA
ATOM     15  C   UNL     1       3.311   3.938  19.462  0.00  0.00    +0.000 A 
ATOM     16  C   UNL     1       5.176   4.159  16.102  0.00  0.00    +0.000 A 
ATOM     17  C   UNL     1       5.105   3.686  14.772  0.00  0.00    +0.000 A 
ATOM     18  C   UNL     1       6.073   3.999  13.791  0.00  0.00    +0.000 A 
ATOM     19  C   UNL     1       7.146   4.822  14.130  0.00  0.00    +0.000 A 
ATOM     20  C   UNL     1       7.251   5.308  15.429  0.00  0.00    +0.000 A 
ATOM     21  C   UNL     1       6.283   4.967  16.391  0.00  0.00    +0.000 A 
ATOM     22  H   UNL     1       5.255   5.373  19.825  0.00  0.00    +0.000 HD
ENDROOT
BRANCH  18  23
ATOM     23  C   UNL     1       5.930   3.447  12.391  0.00  0.00    +0.000 C 
ATOM     24  F   UNL     1       6.109   2.098  12.333  0.00  0.00    +0.000 F 
ATOM     25  F   UNL     1       4.700   3.684  11.862  0.00  0.00    +0.000 F 
ATOM     26  F   UNL     1       6.827   3.977  11.514  0.00  0.00    +0.000 F 
ENDBRANCH  18  23
TORSDOF 1
ENDMDL
MODEL 2
REMARK VINA RESULT:      -9.1      4.698      5.475
REMARK  Name = 
REMARK  1 active torsions:
REMARK  status: ('A' for Active; 'I' for Inactive)
REMARK    1  A    between atoms: C_18  and  C_19
REMARK                            x       y       z     vdW  Elec       q    Type
REMARK                         _______ _______ _______ _____ _____    ______ ____
ROOT
ATOM      1  O   UNL     1       2.816   4.129  21.542  0.00  0.00    +0.000 OA
ATOM      2  S   UNL     1       2.031   4.716  20.483  0.00  0.00    +0.000 S 
ATOM      3  O   UNL     1       0.759   4.149  20.082  0.00  0.00    +0.000 OA
ATOM      4  N   UNL     1       1.763   6.301  20.896  0.00  0.00    +0.000 N 
ATOM      5  C   UNL     1       1.741   7.324  19.884  0.00  0.00    +0.000 A 
ATOM      6  C   UNL     1       2.542   7.233  18.722  0.00  0.00    +0.000 A 
ATOM      7  C   UNL     1       2.667   8.411  17.966  0.00  0.00    +0.000 A 
ATOM      8  C   UNL     1       2.049   9.599  18.354  0.00  0.00    +0.000 A 
ATOM      9  F   UNL     1       2.247  10.693  17.605  0.00  0.00    +0.000 F 
ATOM     10  C   UNL     1       1.255   9.667  19.497  0.00  0.00    +0.000 A 
ATOM     11  C   UNL     1       0.645  10.860  19.916  0.00  0.00    +0.000 A 
ATOM     12  C   UNL     1      -0.121  10.874  21.074  0.00  0.00    +0.000 A 
ATOM     13  C   UNL     1      -0.258   9.689  21.770  0.00  0.00    +0.000 A 
ATOM     14  N   UNL     1       0.322   8.526  21.395  0.00  0.00    +0.000 NA
ATOM     15  C   UNL     1       1.083   8.512  20.273  0.00  0.00    +0.000 A 
ATOM     16  C   UNL     1       3.205   5.962  18.321  0.00  0.00    +0.000 A 
ATOM     17  C   UNL     1       4.018   5.862  17.169  0.00  0.00    +0.000 A 
ATOM     18  C   UNL     1       4.628   4.653  16.761  0.00  0.00    +0.000 A 
ATOM     19  C   UNL     1       4.442   3.503  17.527  0.00  0.00    +0.000 A 
ATOM     20  C   UNL     1       3.648   3.562  18.668  0.00  0.00    +0.000 A 
ATOM     21  C   UNL     1       3.038   4.773  19.041  0.00  0.00    +0.000 A 
ATOM     22  H   UNL     1       0.911   6.388  21.466  0.00  0.00    +0.000 HD
ENDROOT
BRANCH  18  23
ATOM     23  C   UNL     1       5.478   4.625  15.511  0.00  0.00    +0.000 C 
ATOM     24  F   UNL     1       5.805   5.869  15.065  0.00  0.00    +0.000 F 
ATOM     25  F   UNL     1       6.657   3.973  15.699  0.00  0.00    +0.000 F 
ATOM     26  F   UNL     1       4.867   4.005  14.464  0.00  0.00    +0.000 F 
ENDBRANCH  18  23
TORSDOF 1
ENDMDL
MODEL 3
REMARK VINA RESULT:      -7.2      1.864      6.525
REMARK  Name = 
REMARK  1 active torsions:
REMARK  status: ('A' for Active; 'I' for Inactive)
REMARK    1  A    between atoms: C_18  and  C_19
REMARK                            x       y       z     vdW  Elec       q    Type
REMARK                         _______ _______ _______ _____ _____    ______ ____
ROOT
ATOM      1  O   UNL     1       7.759   5.680  18.983  0.00  0.00    +0.000 OA
ATOM      2  S   UNL     1       6.808   6.075  17.972  0.00  0.00    +0.000 S 
ATOM      3  O   UNL     1       6.395   7.456  17.823  0.00  0.00    +0.000 OA
ATOM      4  N   UNL     1       7.414   5.574  16.511  0.00  0.00    +0.000 N 
ATOM      5  C   UNL     1       6.530   5.092  15.482  0.00  0.00    +0.000 A 
ATOM      6  C   UNL     1       5.335   4.405  15.795  0.00  0.00    +0.000 A 
ATOM      7  C   UNL     1       4.717   3.726  14.731  0.00  0.00    +0.000 A 
ATOM      8  C   UNL     1       5.266   3.720  13.450  0.00  0.00    +0.000 A 
ATOM      9  F   UNL     1       4.643   3.016  12.494  0.00  0.00    +0.000 F 
ATOM     10  C   UNL     1       6.440   4.411  13.158  0.00  0.00    +0.000 A 
ATOM     11  C   UNL     1       7.020   4.397  11.879  0.00  0.00    +0.000 A 
ATOM     12  C   UNL     1       8.202   5.089  11.649  0.00  0.00    +0.000 A 
ATOM     13  C   UNL     1       8.759   5.780  12.706  0.00  0.00    +0.000 A 
ATOM     14  N   UNL     1       8.227   5.808  13.949  0.00  0.00    +0.000 NA
ATOM     15  C   UNL     1       7.082   5.122  14.181  0.00  0.00    +0.000 A 
ATOM     16  C   UNL     1       4.761   4.410  17.169  0.00  0.00    +0.000 A 
ATOM     17  C   UNL     1       3.574   3.718  17.498  0.00  0.00    +0.000 A 
ATOM     18  C   UNL     1       3.003   3.740  18.791  0.00  0.00    +0.000 A 
ATOM     19  C   UNL     1       3.636   4.461  19.804  0.00  0.00    +0.000 A 
ATOM     20  C   UNL     1       4.807   5.156  19.519  0.00  0.00    +0.000 A 
ATOM     21  C   UNL     1       5.344   5.132  18.219  0.00  0.00    +0.000 A 
ATOM     22  H   UNL     1       8.024   6.297  16.105  0.00  0.00    +0.000 HD
ENDROOT
BRANCH  18  23
ATOM     23  C   UNL     1       1.726   2.979  19.062  0.00  0.00    +0.000 C 
ATOM     24  F   UNL     1       1.906   1.630  19.075  0.00  0.00    +0.000 F 
ATOM     25  F   UNL     1       1.178   3.295  20.266  0.00  0.00    +0.000 F 
ATOM     26  F   UNL     1       0.758   3.214  18.133  0.00  0.00    +0.000 F 
ENDBRANCH  18  23
TORSDOF 1
ENDMDL
MODEL 4
REMARK VINA RESULT:      -7.2      7.205      8.755
REMARK  Name = 
REMARK  1 active torsions:
REMARK  status: ('A' for Active; 'I' for Inactive)
REMARK    1  A    between atoms: C_18  and  C_19
REMARK                            x       y       z     vdW  Elec       q    Type
REMARK                         _______ _______ _______ _____ _____    ______ ____
ROOT
ATOM      1  O   UNL     1      -0.792   8.601  22.672  0.00  0.00    +0.000 OA
ATOM      2  S   UNL     1       0.534   8.888  22.179  0.00  0.00    +0.000 S 
ATOM      3  O   UNL     1       1.624   9.198  23.081  0.00  0.00    +0.000 OA
ATOM      4  N   UNL     1       1.002   7.589  21.257  0.00  0.00    +0.000 N 
ATOM      5  C   UNL     1       1.794   7.785  20.071  0.00  0.00    +0.000 A 
ATOM      6  C   UNL     1       1.661   8.947  19.276  0.00  0.00    +0.000 A 
ATOM      7  C   UNL     1       2.251   8.893  18.002  0.00  0.00    +0.000 A 
ATOM      8  C   UNL     1       2.910   7.752  17.549  0.00  0.00    +0.000 A 
ATOM      9  F   UNL     1       3.412   7.758  16.305  0.00  0.00    +0.000 F 
ATOM     10  C   UNL     1       3.040   6.619  18.350  0.00  0.00    +0.000 A 
ATOM     11  C   UNL     1       3.679   5.452  17.902  0.00  0.00    +0.000 A 
ATOM     12  C   UNL     1       3.763   4.346  18.737  0.00  0.00    +0.000 A 
ATOM     13  C   UNL     1       3.210   4.449  19.998  0.00  0.00    +0.000 A 
ATOM     14  N   UNL     1       2.583   5.556  20.456  0.00  0.00    +0.000 NA
ATOM     15  C   UNL     1       2.486   6.632  19.638  0.00  0.00    +0.000 A 
ATOM     16  C   UNL     1       0.946  10.158  19.766  0.00  0.00    +0.000 A 
ATOM     17  C   UNL     1       0.796  11.321  18.977  0.00  0.00    +0.000 A 
ATOM     18  C   UNL     1       0.147  12.488  19.442  0.00  0.00    +0.000 A 
ATOM     19  C   UNL     1      -0.388  12.503  20.729  0.00  0.00    +0.000 A 
ATOM     20  C   UNL     1      -0.261  11.378  21.536  0.00  0.00    +0.000 A 
ATOM     21  C   UNL     1       0.406  10.236  21.056  0.00  0.00    +0.000 A 
ATOM     22  H   UNL     1       1.460   6.877  21.842  0.00  0.00    +0.000 HD
ENDROOT
BRANCH  18  23
ATOM     23  C   UNL     1       0.034  13.695  18.539  0.00  0.00    +0.000 C 
ATOM     24  F   UNL     1      -0.596  14.744  19.135  0.00  0.00    +0.000 F 
ATOM     25  F   UNL     1       1.248  14.163  18.142  0.00  0.00    +0.000 F 
ATOM     26  F   UNL     1      -0.666  13.444  17.398  0.00  0.00    +0.000 F 
ENDBRANCH  18  23
TORSDOF 1
ENDMDL
MODEL 5
REMARK VINA RESULT:      -7.1     10.621     11.988
REMARK  Name = 
REMARK  1 active torsions:
REMARK  status: ('A' for Active; 'I' for Inactive)
REMARK    1  A    between atoms: C_18  and  C_19
REMARK                            x       y       z     vdW  Elec       q    Type
REMARK                         _______ _______ _______ _____ _____    ______ ____
ROOT
ATOM      1  O   UNL     1       1.205  11.798  21.064  0.00  0.00    +0.000 OA
ATOM      2  S   UNL     1      -0.146  11.439  21.422  0.00  0.00    +0.000 S 
ATOM      3  O   UNL     1      -0.427  10.278  22.241  0.00  0.00    +0.000 OA
ATOM      4  N   UNL     1      -0.816  12.757  22.176  0.00  0.00    +0.000 N 
ATOM      5  C   UNL     1      -2.205  13.081  21.980  0.00  0.00    +0.000 A 
ATOM      6  C   UNL     1      -2.863  12.810  20.758  0.00  0.00    +0.000 A 
ATOM      7  C   UNL     1      -4.109  13.434  20.577  0.00  0.00    +0.000 A 
ATOM      8  C   UNL     1      -4.649  14.283  21.541  0.00  0.00    +0.000 A 
ATOM      9  F   UNL     1      -5.823  14.877  21.281  0.00  0.00    +0.000 F 
ATOM     10  C   UNL     1      -3.990  14.531  22.744  0.00  0.00    +0.000 A 
ATOM     11  C   UNL     1      -4.508  15.401  23.717  0.00  0.00    +0.000 A 
ATOM     12  C   UNL     1      -3.800  15.625  24.890  0.00  0.00    +0.000 A 
ATOM     13  C   UNL     1      -2.600  14.963  25.054  0.00  0.00    +0.000 A 
ATOM     14  N   UNL     1      -2.073  14.123  24.133  0.00  0.00    +0.000 NA
ATOM     15  C   UNL     1      -2.754  13.914  22.981  0.00  0.00    +0.000 A 
ATOM     16  C   UNL     1      -2.273  11.909  19.730  0.00  0.00    +0.000 A 
ATOM     17  C   UNL     1      -2.914  11.640  18.499  0.00  0.00    +0.000 A 
ATOM     18  C   UNL     1      -2.379  10.763  17.529  0.00  0.00    +0.000 A 
ATOM     19  C   UNL     1      -1.157  10.138  17.774  0.00  0.00    +0.000 A 
ATOM     20  C   UNL     1      -0.495  10.378  18.973  0.00  0.00    +0.000 A 
ATOM     21  C   UNL     1      -1.058  11.241  19.930  0.00  0.00    +0.000 A 
ATOM     22  H   UNL     1      -0.627  12.731  23.187  0.00  0.00    +0.000 HD
ENDROOT
BRANCH  18  23
ATOM     23  C   UNL     1      -3.130  10.520  16.239  0.00  0.00    +0.000 C 
ATOM     24  F   UNL     1      -4.459  10.796  16.341  0.00  0.00    +0.000 F 
ATOM     25  F   UNL     1      -2.666  11.287  15.216  0.00  0.00    +0.000 F 
ATOM     26  F   UNL     1      -3.052   9.230  15.811  0.00  0.00    +0.000 F 
ENDBRANCH  18  23
TORSDOF 1
ENDMDL
MODEL 6
REMARK VINA RESULT:      -7.1      5.500      8.330
REMARK  Name = 
REMARK  1 active torsions:
REMARK  status: ('A' for Active; 'I' for Inactive)
REMARK    1  A    between atoms: C_18  and  C_19
REMARK                            x       y       z     vdW  Elec       q    Type
REMARK                         _______ _______ _______ _____ _____    ______ ____
ROOT
ATOM      1  O   UNL     1       2.980  10.091  17.618  0.00  0.00    +0.000 OA
ATOM      2  S   UNL     1       2.034   9.026  17.845  0.00  0.00    +0.000 S 
ATOM      3  O   UNL     1       0.926   8.795  16.940  0.00  0.00    +0.000 OA
ATOM      4  N   UNL     1       2.903   7.615  17.943  0.00  0.00    +0.000 N 
ATOM      5  C   UNL     1       2.505   6.576  18.857  0.00  0.00    +0.000 A 
ATOM      6  C   UNL     1       1.885   6.875  20.093  0.00  0.00    +0.000 A 
ATOM      7  C   UNL     1       1.821   5.821  21.020  0.00  0.00    +0.000 A 
ATOM      8  C   UNL     1       2.353   4.565  20.738  0.00  0.00    +0.000 A 
ATOM      9  F   UNL     1       2.292   3.620  21.687  0.00  0.00    +0.000 F 
ATOM     10  C   UNL     1       2.951   4.286  19.510  0.00  0.00    +0.000 A 
ATOM     11  C   UNL     1       3.514   3.033  19.218  0.00  0.00    +0.000 A 
ATOM     12  C   UNL     1       4.114   2.817  17.984  0.00  0.00    +0.000 A 
ATOM     13  C   UNL     1       4.123   3.861  17.081  0.00  0.00    +0.000 A 
ATOM     14  N   UNL     1       3.594   5.079  17.336  0.00  0.00    +0.000 NA
ATOM     15  C   UNL     1       3.021   5.299  18.544  0.00  0.00    +0.000 A 
ATOM     16  C   UNL     1       1.328   8.224  20.387  0.00  0.00    +0.000 A 
ATOM     17  C   UNL     1       0.718   8.538  21.623  0.00  0.00    +0.000 A 
ATOM     18  C   UNL     1       0.157   9.805  21.904  0.00  0.00    +0.000 A 
ATOM     19  C   UNL     1       0.214  10.806  20.934  0.00  0.00    +0.000 A 
ATOM     20  C   UNL     1       0.807  10.535  19.706  0.00  0.00    +0.000 A 
ATOM     21  C   UNL     1       1.341   9.260  19.445  0.00  0.00    +0.000 A 
ATOM     22  H   UNL     1       3.024   7.199  17.009  0.00  0.00    +0.000 HD
ENDROOT
BRANCH  18  23
ATOM     23  C   UNL     1      -0.485  10.062  23.248  0.00  0.00    +0.000 C 
ATOM     24  F   UNL     1      -1.691   9.445  23.385  0.00  0.00    +0.000 F 
ATOM     25  F   UNL     1       0.280   9.621  24.282  0.00  0.00    +0.000 F 
ATOM     26  F   UNL     1      -0.717  11.383  23.485  0.00  0.00    +0.000 F 
ENDBRANCH  18  23
TORSDOF 1
ENDMDL
MODEL 7
REMARK VINA RESULT:      -7.0     10.654     13.080
REMARK  Name = 
REMARK  1 active torsions:
REMARK  status: ('A' for Active; 'I' for Inactive)
REMARK    1  A    between atoms: C_18  and  C_19
REMARK                            x       y       z     vdW  Elec       q    Type
REMARK                         _______ _______ _______ _____ _____    ______ ____
ROOT
ATOM      1  O   UNL     1      10.500  16.147  23.728  0.00  0.00    +0.000 OA
ATOM      2  S   UNL     1       9.578  15.603  22.760  0.00  0.00    +0.000 S 
ATOM      3  O   UNL     1       8.650  16.452  22.041  0.00  0.00    +0.000 OA
ATOM      4  N   UNL     1      10.481  14.782  21.635  0.00  0.00    +0.000 N 
ATOM      5  C   UNL     1       9.982  13.567  21.046  0.00  0.00    +0.000 A 
ATOM      6  C   UNL     1       9.150  12.681  21.770  0.00  0.00    +0.000 A 
ATOM      7  C   UNL     1       8.978  11.403  21.212  0.00  0.00    +0.000 A 
ATOM      8  C   UNL     1       9.607  11.032  20.025  0.00  0.00    +0.000 A 
ATOM      9  F   UNL     1       9.429   9.782  19.574  0.00  0.00    +0.000 F 
ATOM     10  C   UNL     1      10.415  11.922  19.320  0.00  0.00    +0.000 A 
ATOM     11  C   UNL     1      11.076  11.559  18.135  0.00  0.00    +0.000 A 
ATOM     12  C   UNL     1      11.884  12.481  17.484  0.00  0.00    +0.000 A 
ATOM     13  C   UNL     1      11.997  13.740  18.037  0.00  0.00    +0.000 A 
ATOM     14  N   UNL     1      11.379  14.118  19.179  0.00  0.00    +0.000 NA
ATOM     15  C   UNL     1      10.601  13.216  19.826  0.00  0.00    +0.000 A 
ATOM     16  C   UNL     1       8.491  13.084  23.043  0.00  0.00    +0.000 A 
ATOM     17  C   UNL     1       7.667  12.204  23.782  0.00  0.00    +0.000 A 
ATOM     18  C   UNL     1       7.011  12.584  24.974  0.00  0.00    +0.000 A 
ATOM     19  C   UNL     1       7.185  13.878  25.466  0.00  0.00    +0.000 A 
ATOM     20  C   UNL     1       7.988  14.773  24.767  0.00  0.00    +0.000 A 
ATOM     21  C   UNL     1       8.615  14.374  23.573  0.00  0.00    +0.000 A 
ATOM     22  H   UNL     1      10.777  15.414  20.878  0.00  0.00    +0.000 HD
ENDROOT
BRANCH  18  23
ATOM     23  C   UNL     1       6.140  11.587  25.704  0.00  0.00    +0.000 C 
ATOM     24  F   UNL     1       5.587  10.661  24.874  0.00  0.00    +0.000 F 
ATOM     25  F   UNL     1       6.829  10.884  26.642  0.00  0.00    +0.000 F 
ATOM     26  F   UNL     1       5.097  12.168  26.358  0.00  0.00    +0.000 F 
ENDBRANCH  18  23
TORSDOF 1
ENDMDL
MODEL 8
REMARK VINA RESULT:      -6.9     10.475     11.620
REMARK  Name = 
REMARK  1 active torsions:
REMARK  status: ('A' for Active; 'I' for Inactive)
REMARK    1  A    between atoms: C_18  and  C_19
REMARK                            x       y       z     vdW  Elec       q    Type
REMARK                         _______ _______ _______ _____ _____    ______ ____
ROOT
ATOM      1  O   UNL     1      -1.644  14.097  22.280  0.00  0.00    +0.000 OA
ATOM      2  S   UNL     1      -2.356  12.905  21.887  0.00  0.00    +0.000 S 
ATOM      3  O   UNL     1      -2.885  11.983  22.872  0.00  0.00    +0.000 OA
ATOM      4  N   UNL     1      -3.619  13.387  20.925  0.00  0.00    +0.000 N 
ATOM      5  C   UNL     1      -4.030  12.583  19.803  0.00  0.00    +0.000 A 
ATOM      6  C   UNL     1      -3.101  11.810  19.068  0.00  0.00    +0.000 A 
ATOM      7  C   UNL     1      -3.552  11.317  17.832  0.00  0.00    +0.000 A 
ATOM      8  C   UNL     1      -4.833  11.592  17.358  0.00  0.00    +0.000 A 
ATOM      9  F   UNL     1      -5.180  11.122  16.151  0.00  0.00    +0.000 F 
ATOM     10  C   UNL     1      -5.738  12.348  18.101  0.00  0.00    +0.000 A 
ATOM     11  C   UNL     1      -7.024  12.656  17.629  0.00  0.00    +0.000 A 
ATOM     12  C   UNL     1      -7.878  13.429  18.404  0.00  0.00    +0.000 A 
ATOM     13  C   UNL     1      -7.418  13.861  19.631  0.00  0.00    +0.000 A 
ATOM     14  N   UNL     1      -6.184  13.587  20.111  0.00  0.00    +0.000 NA
ATOM     15  C   UNL     1      -5.342  12.845  19.351  0.00  0.00    +0.000 A 
ATOM     16  C   UNL     1      -1.731  11.529  19.580  0.00  0.00    +0.000 A 
ATOM     17  C   UNL     1      -0.790  10.768  18.849  0.00  0.00    +0.000 A 
ATOM     18  C   UNL     1       0.502  10.469  19.338  0.00  0.00    +0.000 A 
ATOM     19  C   UNL     1       0.887  10.951  20.588  0.00  0.00    +0.000 A 
ATOM     20  C   UNL     1      -0.011  11.704  21.337  0.00  0.00    +0.000 A 
ATOM     21  C   UNL     1      -1.298  11.972  20.836  0.00  0.00    +0.000 A 
ATOM     22  H   UNL     1      -4.449  13.598  21.496  0.00  0.00    +0.000 HD
ENDROOT
BRANCH  18  23
ATOM     23  C   UNL     1       1.449   9.642  18.499  0.00  0.00    +0.000 C 
ATOM     24  F   UNL     1       2.453  10.380  17.951  0.00  0.00    +0.000 F 
ATOM     25  F   UNL     1       2.057   8.659  19.217  0.00  0.00    +0.000 F 
ATOM     26  F   UNL     1       0.834   9.021  17.455  0.00  0.00    +0.000 F 
ENDBRANCH  18  23
TORSDOF 1
ENDMDL
MODEL 9
REMARK VINA RESULT:      -6.9     11.410     12.948
REMARK  Name = 
REMARK  1 active torsions:
REMARK  status: ('A' for Active; 'I' for Inactive)
REMARK    1  A    between atoms: C_18  and  C_19
REMARK                            x       y       z     vdW  Elec       q    Type
REMARK                         _______ _______ _______ _____ _____    ______ ____
ROOT
ATOM      1  O   UNL     1      -6.956  11.393  21.309  0.00  0.00    +0.000 OA
ATOM      2  S   UNL     1      -6.110  12.486  20.895  0.00  0.00    +0.000 S 
ATOM      3  O   UNL     1      -6.669  13.738  20.427  0.00  0.00    +0.000 OA
ATOM      4  N   UNL     1      -5.103  12.832  22.168  0.00  0.00    +0.000 N 
ATOM      5  C   UNL     1      -3.741  13.236  21.932  0.00  0.00    +0.000 A 
ATOM      6  C   UNL     1      -3.007  12.750  20.826  0.00  0.00    +0.000 A 
ATOM      7  C   UNL     1      -1.619  12.966  20.864  0.00  0.00    +0.000 A 
ATOM      8  C   UNL     1      -1.008  13.606  21.941  0.00  0.00    +0.000 A 
ATOM      9  F   UNL     1       0.326  13.740  21.928  0.00  0.00    +0.000 F 
ATOM     10  C   UNL     1      -1.750  14.087  23.019  0.00  0.00    +0.000 A 
ATOM     11  C   UNL     1      -1.149  14.713  24.123  0.00  0.00    +0.000 A 
ATOM     12  C   UNL     1      -1.935  15.156  25.178  0.00  0.00    +0.000 A 
ATOM     13  C   UNL     1      -3.299  14.966  25.088  0.00  0.00    +0.000 A 
ATOM     14  N   UNL     1      -3.906  14.362  24.041  0.00  0.00    +0.000 NA
ATOM     15  C   UNL     1      -3.141  13.914  23.016  0.00  0.00    +0.000 A 
ATOM     16  C   UNL     1      -3.669  12.059  19.684  0.00  0.00    +0.000 A 
ATOM     17  C   UNL     1      -2.944  11.558  18.579  0.00  0.00    +0.000 A 
ATOM     18  C   UNL     1      -3.564  10.928  17.475  0.00  0.00    +0.000 A 
ATOM     19  C   UNL     1      -4.950  10.772  17.468  0.00  0.00    +0.000 A 
ATOM     20  C   UNL     1      -5.697  11.252  18.539  0.00  0.00    +0.000 A 
ATOM     21  C   UNL     1      -5.057  11.892  19.616  0.00  0.00    +0.000 A 
ATOM     22  H   UNL     1      -5.541  13.517  22.800  0.00  0.00    +0.000 HD
ENDROOT
BRANCH  18  23
ATOM     23  C   UNL     1      -2.720  10.425  16.326  0.00  0.00    +0.000 C 
ATOM     24  F   UNL     1      -3.293   9.383  15.665  0.00  0.00    +0.000 F 
ATOM     25  F   UNL     1      -2.494  11.385  15.388  0.00  0.00    +0.000 F 
ATOM     26  F   UNL     1      -1.493   9.985  16.719  0.00  0.00    +0.000 F 
ENDBRANCH  18  23
TORSDOF 1
ENDMDL
