MODEL 1
REMARK VINA RESULT:      -6.4      0.000      0.000
REMARK  Name = 
REMARK  7 active torsions:
REMARK  status: ('A' for Active; 'I' for Inactive)
REMARK    1  A    between atoms: C_1  and  C_2
REMARK    2  A    between atoms: C_2  and  N_3
REMARK    3  A    between atoms: N_7  and  S_8
REMARK    4  A    between atoms: S_8  and  C_11
REMARK    5  A    between atoms: C_20  and  O_21
REMARK    6  A    between atoms: O_21  and  C_22
REMARK    7  A    between atoms: N_24  and  C_25
REMARK                            x       y       z     vdW  Elec       q    Type
REMARK                         _______ _______ _______ _____ _____    ______ ____
ROOT
ATOM      1  N   UNL     1       5.927   5.774  15.505  0.00  0.00    +0.000 N 
ATOM      2  C   UNL     1       4.985   5.450  16.476  0.00  0.00    +0.000 A 
ATOM      3  N   UNL     1       4.487   6.487  17.179  0.00  0.00    +0.000 NA
ATOM      4  C   UNL     1       3.553   6.242  18.120  0.00  0.00    +0.000 A 
ATOM      5  N   UNL     1       3.175   7.363  18.895  0.00  0.00    +0.000 N 
ATOM      6  C   UNL     1       3.106   4.952  18.348  0.00  0.00    +0.000 A 
ATOM      7  C   UNL     1       2.217   4.234  19.171  0.00  0.00    +0.000 A 
ATOM      8  N   UNL     1       2.288   2.908  18.996  0.00  0.00    +0.000 NA
ATOM      9  N   UNL     1       3.244   2.780  18.050  0.00  0.00    +0.000 N 
ATOM     10  C   UNL     1       3.717   1.477  17.649  0.00  0.00    +0.000 C 
ATOM     11  C   UNL     1       3.732   3.974  17.605  0.00  0.00    +0.000 A 
ATOM     12  N   UNL     1       4.666   4.160  16.663  0.00  0.00    +0.000 NA
ATOM     13  H   UNL     1       5.790   6.754  15.278  0.00  0.00    +0.000 HD
ATOM     14  H   UNL     1       3.997   7.962  19.014  0.00  0.00    +0.000 HD
ENDROOT
BRANCH   5  15
ATOM     15  S   UNL     1       1.977   8.345  18.225  0.00  0.00    +0.000 S 
ATOM     16  O   UNL     1       2.625   9.459  17.569  0.00  0.00    +0.000 OA
ATOM     17  O   UNL     1       1.014   7.518  17.526  0.00  0.00    +0.000 OA
BRANCH  15  18
ATOM     18  C   UNL     1       1.164   8.989  19.674  0.00  0.00    +0.000 A 
ATOM     19  C   UNL     1       1.568   8.487  20.923  0.00  0.00    +0.000 A 
ATOM     20  C   UNL     1       1.011   8.986  22.098  0.00  0.00    +0.000 A 
ATOM     21  C   UNL     1       0.049   9.989  22.032  0.00  0.00    +0.000 A 
ATOM     22  C   UNL     1      -0.375  10.476  20.791  0.00  0.00    +0.000 A 
ATOM     23 CL   UNL     1      -1.578  11.725  20.820  0.00  0.00    +0.000 Cl
ATOM     24  C   UNL     1       0.168   9.973  19.594  0.00  0.00    +0.000 A 
ATOM     25 CL   UNL     1      -0.417  10.577  18.075  0.00  0.00    +0.000 Cl
ENDBRANCH  15  18
ENDBRANCH   5  15
BRANCH   1  27
ATOM     26  C   UNL     1       7.344   4.916  13.715  0.00  0.00    +0.000 C 
ATOM     27  C   UNL     1       5.974   4.862  14.373  0.00  0.00    +0.000 C 
ENDBRANCH   1  27
BRANCH   7  28
ATOM     28  O   UNL     1       1.371   4.766  20.082  0.00  0.00    +0.000 OA
ATOM     29  C   UNL     1       1.916   4.866  21.395  0.00  0.00    +0.000 C 
ENDBRANCH   7  28
TORSDOF 4
ENDMDL
MODEL 2
REMARK VINA RESULT:      -6.2      5.324      8.430
REMARK  Name = 
REMARK  7 active torsions:
REMARK  status: ('A' for Active; 'I' for Inactive)
REMARK    1  A    between atoms: C_1  and  C_2
REMARK    2  A    between atoms: C_2  and  N_3
REMARK    3  A    between atoms: N_7  and  S_8
REMARK    4  A    between atoms: S_8  and  C_11
REMARK    5  A    between atoms: C_20  and  O_21
REMARK    6  A    between atoms: O_21  and  C_22
REMARK    7  A    between atoms: N_24  and  C_25
REMARK                            x       y       z     vdW  Elec       q    Type
REMARK                         _______ _______ _______ _____ _____    ______ ____
ROOT
ATOM      1  N   UNL     1      -2.991   9.515  15.554  0.00  0.00    +0.000 N 
ATOM      2  C   UNL     1      -3.064  10.214  16.754  0.00  0.00    +0.000 A 
ATOM      3  N   UNL     1      -2.112   9.921  17.662  0.00  0.00    +0.000 NA
ATOM      4  C   UNL     1      -2.113  10.581  18.837  0.00  0.00    +0.000 A 
ATOM      5  N   UNL     1      -1.160  10.129  19.780  0.00  0.00    +0.000 N 
ATOM      6  C   UNL     1      -3.068  11.548  19.100  0.00  0.00    +0.000 A 
ATOM      7  C   UNL     1      -3.469  12.441  20.113  0.00  0.00    +0.000 A 
ATOM      8  N   UNL     1      -4.599  13.099  19.821  0.00  0.00    +0.000 NA
ATOM      9  N   UNL     1      -4.925  12.612  18.604  0.00  0.00    +0.000 N 
ATOM     10  C   UNL     1      -6.165  12.985  17.967  0.00  0.00    +0.000 C 
ATOM     11  C   UNL     1      -4.020  11.715  18.116  0.00  0.00    +0.000 A 
ATOM     12  N   UNL     1      -4.068  11.085  16.935  0.00  0.00    +0.000 NA
ATOM     13  H   UNL     1      -2.034   9.186  15.462  0.00  0.00    +0.000 HD
ATOM     14  H   UNL     1      -1.051   9.118  19.666  0.00  0.00    +0.000 HD
ENDROOT
BRANCH   5  15
ATOM     15  S   UNL     1       0.387  10.785  19.626  0.00  0.00    +0.000 S 
ATOM     16  O   UNL     1       0.374  11.711  18.516  0.00  0.00    +0.000 OA
ATOM     17  O   UNL     1       0.871  11.185  20.933  0.00  0.00    +0.000 OA
BRANCH  15  18
ATOM     18  C   UNL     1       1.347   9.372  19.120  0.00  0.00    +0.000 A 
ATOM     19  C   UNL     1       1.988   9.435  17.870  0.00  0.00    +0.000 A 
ATOM     20  C   UNL     1       2.796   8.386  17.438  0.00  0.00    +0.000 A 
ATOM     21  C   UNL     1       2.970   7.271  18.250  0.00  0.00    +0.000 A 
ATOM     22  C   UNL     1       2.317   7.191  19.485  0.00  0.00    +0.000 A 
ATOM     23 CL   UNL     1       2.601   5.758  20.420  0.00  0.00    +0.000 Cl
ATOM     24  C   UNL     1       1.485   8.235  19.931  0.00  0.00    +0.000 A 
ATOM     25 CL   UNL     1       0.660   8.076  21.449  0.00  0.00    +0.000 Cl
ENDBRANCH  15  18
ENDBRANCH   5  15
BRANCH   1  27
ATOM     26  C   UNL     1      -2.963   9.638  13.119  0.00  0.00    +0.000 C 
ATOM     27  C   UNL     1      -3.530  10.222  14.402  0.00  0.00    +0.000 C 
ENDBRANCH   1  27
BRANCH   7  28
ATOM     28  O   UNL     1      -2.839  12.640  21.292  0.00  0.00    +0.000 OA
ATOM     29  C   UNL     1      -1.844  13.658  21.258  0.00  0.00    +0.000 C 
ENDBRANCH   7  28
TORSDOF 4
ENDMDL
MODEL 3
REMARK VINA RESULT:      -6.0      1.088      1.121
REMARK  Name = 
REMARK  7 active torsions:
REMARK  status: ('A' for Active; 'I' for Inactive)
REMARK    1  A    between atoms: C_1  and  C_2
REMARK    2  A    between atoms: C_2  and  N_3
REMARK    3  A    between atoms: N_7  and  S_8
REMARK    4  A    between atoms: S_8  and  C_11
REMARK    5  A    between atoms: C_20  and  O_21
REMARK    6  A    between atoms: O_21  and  C_22
REMARK    7  A    between atoms: N_24  and  C_25
REMARK                            x       y       z     vdW  Elec       q    Type
REMARK                         _______ _______ _______ _____ _____    ______ ____
ROOT
ATOM      1  N   UNL     1       6.568   5.193  16.384  0.00  0.00    +0.000 N 
ATOM      2  C   UNL     1       5.629   4.971  17.385  0.00  0.00    +0.000 A 
ATOM      3  N   UNL     1       5.004   6.068  17.857  0.00  0.00    +0.000 NA
ATOM      4  C   UNL     1       4.066   5.919  18.813  0.00  0.00    +0.000 A 
ATOM      5  N   UNL     1       3.549   7.125  19.339  0.00  0.00    +0.000 N 
ATOM      6  C   UNL     1       3.743   4.660  19.291  0.00  0.00    +0.000 A 
ATOM      7  C   UNL     1       2.901   4.031  20.227  0.00  0.00    +0.000 A 
ATOM      8  N   UNL     1       3.112   2.711  20.326  0.00  0.00    +0.000 NA
ATOM      9  N   UNL     1       4.110   2.499  19.440  0.00  0.00    +0.000 N 
ATOM     10  C   UNL     1       4.726   1.200  19.318  0.00  0.00    +0.000 C 
ATOM     11  C   UNL     1       4.491   3.625  18.769  0.00  0.00    +0.000 A 
ATOM     12  N   UNL     1       5.435   3.718  17.824  0.00  0.00    +0.000 NA
ATOM     13  H   UNL     1       6.342   6.088  15.960  0.00  0.00    +0.000 HD
ATOM     14  H   UNL     1       4.301   7.819  19.348  0.00  0.00    +0.000 HD
ENDROOT
BRANCH   5  15
ATOM     15  S   UNL     1       2.283   7.821  18.467  0.00  0.00    +0.000 S 
ATOM     16  O   UNL     1       2.836   8.858  17.624  0.00  0.00    +0.000 OA
ATOM     17  O   UNL     1       1.445   6.774  17.919  0.00  0.00    +0.000 OA
BRANCH  15  18
ATOM     18  C   UNL     1       1.344   8.631  19.747  0.00  0.00    +0.000 A 
ATOM     19  C   UNL     1       1.612   8.268  21.078  0.00  0.00    +0.000 A 
ATOM     20  C   UNL     1       0.951   8.901  22.129  0.00  0.00    +0.000 A 
ATOM     21  C   UNL     1       0.021   9.898  21.856  0.00  0.00    +0.000 A 
ATOM     22  C   UNL     1      -0.269  10.247  20.532  0.00  0.00    +0.000 A 
ATOM     23 CL   UNL     1      -1.443  11.502  20.301  0.00  0.00    +0.000 Cl
ATOM     24  C   UNL     1       0.380   9.609  19.458  0.00  0.00    +0.000 A 
ATOM     25 CL   UNL     1      -0.040  10.043  17.831  0.00  0.00    +0.000 Cl
ENDBRANCH  15  18
ENDBRANCH   5  15
BRANCH   1  27
ATOM     26  C   UNL     1       5.803   4.229  14.278  0.00  0.00    +0.000 C 
ATOM     27  C   UNL     1       6.748   4.083  15.460  0.00  0.00    +0.000 C 
ENDBRANCH   1  27
BRANCH   7  28
ATOM     28  O   UNL     1       1.974   4.641  21.000  0.00  0.00    +0.000 OA
ATOM     29  C   UNL     1       0.652   4.591  20.473  0.00  0.00    +0.000 C 
ENDBRANCH   7  28
TORSDOF 4
ENDMDL
MODEL 4
REMARK VINA RESULT:      -6.0      5.784      9.112
REMARK  Name = 
REMARK  7 active torsions:
REMARK  status: ('A' for Active; 'I' for Inactive)
REMARK    1  A    between atoms: C_1  and  C_2
REMARK    2  A    between atoms: C_2  and  N_3
REMARK    3  A    between atoms: N_7  and  S_8
REMARK    4  A    between atoms: S_8  and  C_11
REMARK    5  A    between atoms: C_20  and  O_21
REMARK    6  A    between atoms: O_21  and  C_22
REMARK    7  A    between atoms: N_24  and  C_25
REMARK                            x       y       z     vdW  Elec       q    Type
REMARK                         _______ _______ _______ _____ _____    ______ ____
ROOT
ATOM      1  N   UNL     1       3.991  14.369  17.601  0.00  0.00    +0.000 N 
ATOM      2  C   UNL     1       2.731  14.543  18.164  0.00  0.00    +0.000 A 
ATOM      3  N   UNL     1       2.024  13.415  18.378  0.00  0.00    +0.000 NA
ATOM      4  C   UNL     1       0.804  13.513  18.943  0.00  0.00    +0.000 A 
ATOM      5  N   UNL     1       0.079  12.301  19.019  0.00  0.00    +0.000 N 
ATOM      6  C   UNL     1       0.294  14.748  19.307  0.00  0.00    +0.000 A 
ATOM      7  C   UNL     1      -0.853  15.331  19.877  0.00  0.00    +0.000 A 
ATOM      8  N   UNL     1      -0.816  16.670  19.890  0.00  0.00    +0.000 NA
ATOM      9  N   UNL     1       0.374  16.944  19.312  0.00  0.00    +0.000 N 
ATOM     10  C   UNL     1       0.760  18.304  19.024  0.00  0.00    +0.000 C 
ATOM     11  C   UNL     1       1.089  15.829  18.985  0.00  0.00    +0.000 A 
ATOM     12  N   UNL     1       2.303  15.788  18.421  0.00  0.00    +0.000 NA
ATOM     13  H   UNL     1       4.269  13.411  17.791  0.00  0.00    +0.000 HD
ATOM     14  H   UNL     1       0.309  11.738  18.196  0.00  0.00    +0.000 HD
ENDROOT
BRANCH   5  15
ATOM     15  S   UNL     1       0.416  11.330  20.357  0.00  0.00    +0.000 S 
ATOM     16  O   UNL     1       1.474  11.960  21.114  0.00  0.00    +0.000 OA
ATOM     17  O   UNL     1      -0.827  10.935  20.989  0.00  0.00    +0.000 OA
BRANCH  15  18
ATOM     18  C   UNL     1       1.108   9.872  19.601  0.00  0.00    +0.000 A 
ATOM     19  C   UNL     1       1.425   9.939  18.233  0.00  0.00    +0.000 A 
ATOM     20  C   UNL     1       2.018   8.852  17.593  0.00  0.00    +0.000 A 
ATOM     21  C   UNL     1       2.298   7.697  18.314  0.00  0.00    +0.000 A 
ATOM     22  C   UNL     1       1.963   7.616  19.670  0.00  0.00    +0.000 A 
ATOM     23 CL   UNL     1       2.355   6.131  20.477  0.00  0.00    +0.000 Cl
ATOM     24  C   UNL     1       1.351   8.699  20.329  0.00  0.00    +0.000 A 
ATOM     25 CL   UNL     1       0.915   8.540  22.001  0.00  0.00    +0.000 Cl
ENDBRANCH  15  18
ENDBRANCH   5  15
BRANCH   1  27
ATOM     26  C   UNL     1       5.747  14.965  19.184  0.00  0.00    +0.000 C 
ATOM     27  C   UNL     1       4.963  15.392  17.954  0.00  0.00    +0.000 C 
ENDBRANCH   1  27
BRANCH   7  28
ATOM     28  O   UNL     1      -1.929  14.666  20.356  0.00  0.00    +0.000 OA
ATOM     29  C   UNL     1      -2.008  14.631  21.778  0.00  0.00    +0.000 C 
ENDBRANCH   7  28
TORSDOF 4
ENDMDL
MODEL 5
REMARK VINA RESULT:      -5.9      7.056     11.350
REMARK  Name = 
REMARK  7 active torsions:
REMARK  status: ('A' for Active; 'I' for Inactive)
REMARK    1  A    between atoms: C_1  and  C_2
REMARK    2  A    between atoms: C_2  and  N_3
REMARK    3  A    between atoms: N_7  and  S_8
REMARK    4  A    between atoms: S_8  and  C_11
REMARK    5  A    between atoms: C_20  and  O_21
REMARK    6  A    between atoms: O_21  and  C_22
REMARK    7  A    between atoms: N_24  and  C_25
REMARK                            x       y       z     vdW  Elec       q    Type
REMARK                         _______ _______ _______ _____ _____    ______ ____
ROOT
ATOM      1  N   UNL     1      -5.691  12.295  22.457  0.00  0.00    +0.000 N 
ATOM      2  C   UNL     1      -4.645  13.083  22.925  0.00  0.00    +0.000 A 
ATOM      3  N   UNL     1      -3.409  12.563  22.782  0.00  0.00    +0.000 NA
ATOM      4  C   UNL     1      -2.350  13.286  23.195  0.00  0.00    +0.000 A 
ATOM      5  N   UNL     1      -1.104  12.620  23.124  0.00  0.00    +0.000 N 
ATOM      6  C   UNL     1      -2.528  14.545  23.743  0.00  0.00    +0.000 A 
ATOM      7  C   UNL     1      -1.792  15.610  24.296  0.00  0.00    +0.000 A 
ATOM      8  N   UNL     1      -2.563  16.590  24.784  0.00  0.00    +0.000 NA
ATOM      9  N   UNL     1      -3.813  16.138  24.543  0.00  0.00    +0.000 N 
ATOM     10  C   UNL     1      -4.966  16.858  25.026  0.00  0.00    +0.000 C 
ATOM     11  C   UNL     1      -3.842  14.941  23.887  0.00  0.00    +0.000 A 
ATOM     12  N   UNL     1      -4.928  14.262  23.500  0.00  0.00    +0.000 NA
ATOM     13  H   UNL     1      -5.293  11.648  21.783  0.00  0.00    +0.000 HD
ATOM     14  H   UNL     1      -1.260  11.628  23.322  0.00  0.00    +0.000 HD
ENDROOT
BRANCH   5  15
ATOM     15  S   UNL     1      -0.327  12.681  21.627  0.00  0.00    +0.000 S 
ATOM     16  O   UNL     1      -1.318  12.978  20.618  0.00  0.00    +0.000 OA
ATOM     17  O   UNL     1       0.884  13.469  21.747  0.00  0.00    +0.000 OA
BRANCH  15  18
ATOM     18  C   UNL     1       0.171  10.985  21.392  0.00  0.00    +0.000 A 
ATOM     19  C   UNL     1      -0.130  10.072  22.417  0.00  0.00    +0.000 A 
ATOM     20  C   UNL     1       0.183   8.722  22.274  0.00  0.00    +0.000 A 
ATOM     21  C   UNL     1       0.797   8.278  21.107  0.00  0.00    +0.000 A 
ATOM     22  C   UNL     1       1.121   9.186  20.093  0.00  0.00    +0.000 A 
ATOM     23 CL   UNL     1       1.884   8.530  18.680  0.00  0.00    +0.000 Cl
ATOM     24  C   UNL     1       0.824  10.555  20.227  0.00  0.00    +0.000 A 
ATOM     25 CL   UNL     1       1.281  11.653  18.964  0.00  0.00    +0.000 Cl
ENDBRANCH  15  18
ENDBRANCH   5  15
BRANCH   1  27
ATOM     26  C   UNL     1      -7.553  12.288  20.883  0.00  0.00    +0.000 C 
ATOM     27  C   UNL     1      -6.860  13.037  22.009  0.00  0.00    +0.000 C 
ENDBRANCH   1  27
BRANCH   7  28
ATOM     28  O   UNL     1      -0.444  15.685  24.381  0.00  0.00    +0.000 OA
ATOM     29  C   UNL     1       0.133  16.727  23.600  0.00  0.00    +0.000 C 
ENDBRANCH   7  28
TORSDOF 4
ENDMDL
MODEL 6
REMARK VINA RESULT:      -5.9      7.328      9.524
REMARK  Name = 
REMARK  7 active torsions:
REMARK  status: ('A' for Active; 'I' for Inactive)
REMARK    1  A    between atoms: C_1  and  C_2
REMARK    2  A    between atoms: C_2  and  N_3
REMARK    3  A    between atoms: N_7  and  S_8
REMARK    4  A    between atoms: S_8  and  C_11
REMARK    5  A    between atoms: C_20  and  O_21
REMARK    6  A    between atoms: O_21  and  C_22
REMARK    7  A    between atoms: N_24  and  C_25
REMARK                            x       y       z     vdW  Elec       q    Type
REMARK                         _______ _______ _______ _____ _____    ______ ____
ROOT
ATOM      1  N   UNL     1      -2.430  11.415  17.375  0.00  0.00    +0.000 N 
ATOM      2  C   UNL     1      -2.207  11.684  18.721  0.00  0.00    +0.000 A 
ATOM      3  N   UNL     1      -3.001  12.625  19.270  0.00  0.00    +0.000 NA
ATOM      4  C   UNL     1      -2.851  12.916  20.578  0.00  0.00    +0.000 A 
ATOM      5  N   UNL     1      -3.633  13.998  21.045  0.00  0.00    +0.000 N 
ATOM      6  C   UNL     1      -1.909  12.251  21.343  0.00  0.00    +0.000 A 
ATOM      7  C   UNL     1      -1.399  12.209  22.655  0.00  0.00    +0.000 A 
ATOM      8  N   UNL     1      -0.354  11.381  22.791  0.00  0.00    +0.000 NA
ATOM      9  N   UNL     1      -0.193  10.893  21.542  0.00  0.00    +0.000 N 
ATOM     10  C   UNL     1       0.922  10.034  21.222  0.00  0.00    +0.000 C 
ATOM     11  C   UNL     1      -1.122  11.351  20.654  0.00  0.00    +0.000 A 
ATOM     12  N   UNL     1      -1.225  11.029  19.358  0.00  0.00    +0.000 NA
ATOM     13  H   UNL     1      -3.375  11.723  17.165  0.00  0.00    +0.000 HD
ATOM     14  H   UNL     1      -3.715  14.683  20.289  0.00  0.00    +0.000 HD
ENDROOT
BRANCH   5  15
ATOM     15  S   UNL     1      -5.212  13.616  21.502  0.00  0.00    +0.000 S 
ATOM     16  O   UNL     1      -5.229  12.242  21.951  0.00  0.00    +0.000 OA
ATOM     17  O   UNL     1      -5.745  14.682  22.325  0.00  0.00    +0.000 OA
BRANCH  15  18
ATOM     18  C   UNL     1      -6.078  13.670  19.945  0.00  0.00    +0.000 A 
ATOM     19  C   UNL     1      -6.614  12.466  19.458  0.00  0.00    +0.000 A 
ATOM     20  C   UNL     1      -7.349  12.449  18.274  0.00  0.00    +0.000 A 
ATOM     21  C   UNL     1      -7.552  13.633  17.572  0.00  0.00    +0.000 A 
ATOM     22  C   UNL     1      -7.001  14.831  18.040  0.00  0.00    +0.000 A 
ATOM     23 CL   UNL     1      -7.313  16.249  17.091  0.00  0.00    +0.000 Cl
ATOM     24  C   UNL     1      -6.245  14.863  19.226  0.00  0.00    +0.000 A 
ATOM     25 CL   UNL     1      -5.544  16.363  19.747  0.00  0.00    +0.000 Cl
ENDBRANCH  15  18
ENDBRANCH   5  15
BRANCH   1  27
ATOM     26  C   UNL     1      -2.793   9.731  15.649  0.00  0.00    +0.000 C 
ATOM     27  C   UNL     1      -2.099  10.060  16.961  0.00  0.00    +0.000 C 
ENDBRANCH   1  27
BRANCH   7  28
ATOM     28  O   UNL     1      -1.853  12.926  23.708  0.00  0.00    +0.000 OA
ATOM     29  C   UNL     1      -1.330  14.248  23.783  0.00  0.00    +0.000 C 
ENDBRANCH   7  28
TORSDOF 4
ENDMDL
MODEL 7
REMARK VINA RESULT:      -5.9      7.905     11.657
REMARK  Name = 
REMARK  7 active torsions:
REMARK  status: ('A' for Active; 'I' for Inactive)
REMARK    1  A    between atoms: C_1  and  C_2
REMARK    2  A    between atoms: C_2  and  N_3
REMARK    3  A    between atoms: N_7  and  S_8
REMARK    4  A    between atoms: S_8  and  C_11
REMARK    5  A    between atoms: C_20  and  O_21
REMARK    6  A    between atoms: O_21  and  C_22
REMARK    7  A    between atoms: N_24  and  C_25
REMARK                            x       y       z     vdW  Elec       q    Type
REMARK                         _______ _______ _______ _____ _____    ______ ____
ROOT
ATOM      1  N   UNL     1      -6.438  11.477  20.850  0.00  0.00    +0.000 N 
ATOM      2  C   UNL     1      -5.891  12.474  21.649  0.00  0.00    +0.000 A 
ATOM      3  N   UNL     1      -4.620  12.272  22.052  0.00  0.00    +0.000 NA
ATOM      4  C   UNL     1      -4.024  13.213  22.810  0.00  0.00    +0.000 A 
ATOM      5  N   UNL     1      -2.740  12.869  23.293  0.00  0.00    +0.000 N 
ATOM      6  C   UNL     1      -4.700  14.370  23.157  0.00  0.00    +0.000 A 
ATOM      7  C   UNL     1      -4.525  15.559  23.890  0.00  0.00    +0.000 A 
ATOM      8  N   UNL     1      -5.635  16.307  23.959  0.00  0.00    +0.000 NA
ATOM      9  N   UNL     1      -6.533  15.576  23.263  0.00  0.00    +0.000 N 
ATOM     10  C   UNL     1      -7.917  15.980  23.191  0.00  0.00    +0.000 C 
ATOM     11  C   UNL     1      -6.010  14.434  22.731  0.00  0.00    +0.000 A 
ATOM     12  N   UNL     1      -6.652  13.528  21.982  0.00  0.00    +0.000 NA
ATOM     13  H   UNL     1      -5.661  10.969  20.438  0.00  0.00    +0.000 HD
ATOM     14  H   UNL     1      -2.725  11.861  23.475  0.00  0.00    +0.000 HD
ENDROOT
BRANCH   5  15
ATOM     15  S   UNL     1      -1.457  13.170  22.239  0.00  0.00    +0.000 S 
ATOM     16  O   UNL     1      -2.009  13.568  20.963  0.00  0.00    +0.000 OA
ATOM     17  O   UNL     1      -0.462  13.980  22.913  0.00  0.00    +0.000 OA
BRANCH  15  18
ATOM     18  C   UNL     1      -0.756  11.546  22.023  0.00  0.00    +0.000 A 
ATOM     19  C   UNL     1      -0.947  10.613  23.058  0.00  0.00    +0.000 A 
ATOM     20  C   UNL     1      -0.470   9.311  22.930  0.00  0.00    +0.000 A 
ATOM     21  C   UNL     1       0.197   8.932  21.769  0.00  0.00    +0.000 A 
ATOM     22  C   UNL     1       0.411   9.862  20.746  0.00  0.00    +0.000 A 
ATOM     23 CL   UNL     1       1.252   9.288  19.342  0.00  0.00    +0.000 Cl
ATOM     24  C   UNL     1      -0.052  11.186  20.865  0.00  0.00    +0.000 A 
ATOM     25 CL   UNL     1       0.272  12.317  19.589  0.00  0.00    +0.000 Cl
ENDBRANCH  15  18
ENDBRANCH   5  15
BRANCH   1  27
ATOM     26  C   UNL     1      -6.971  11.778  18.489  0.00  0.00    +0.000 C 
ATOM     27  C   UNL     1      -7.461  11.932  19.920  0.00  0.00    +0.000 C 
ENDBRANCH   1  27
BRANCH   7  28
ATOM     28  O   UNL     1      -3.389  15.952  24.508  0.00  0.00    +0.000 OA
ATOM     29  C   UNL     1      -3.525  17.144  25.277  0.00  0.00    +0.000 C 
ENDBRANCH   7  28
TORSDOF 4
ENDMDL
MODEL 8
REMARK VINA RESULT:      -5.9      7.480     11.407
REMARK  Name = 
REMARK  7 active torsions:
REMARK  status: ('A' for Active; 'I' for Inactive)
REMARK    1  A    between atoms: C_1  and  C_2
REMARK    2  A    between atoms: C_2  and  N_3
REMARK    3  A    between atoms: N_7  and  S_8
REMARK    4  A    between atoms: S_8  and  C_11
REMARK    5  A    between atoms: C_20  and  O_21
REMARK    6  A    between atoms: O_21  and  C_22
REMARK    7  A    between atoms: N_24  and  C_25
REMARK                            x       y       z     vdW  Elec       q    Type
REMARK                         _______ _______ _______ _____ _____    ______ ____
ROOT
ATOM      1  N   UNL     1      -6.032  11.928  21.317  0.00  0.00    +0.000 N 
ATOM      2  C   UNL     1      -5.250  12.854  21.999  0.00  0.00    +0.000 A 
ATOM      3  N   UNL     1      -3.973  12.489  22.227  0.00  0.00    +0.000 NA
ATOM      4  C   UNL     1      -3.156  13.352  22.864  0.00  0.00    +0.000 A 
ATOM      5  N   UNL     1      -1.873  12.846  23.173  0.00  0.00    +0.000 N 
ATOM      6  C   UNL     1      -3.619  14.594  23.263  0.00  0.00    +0.000 A 
ATOM      7  C   UNL     1      -3.188  15.759  23.925  0.00  0.00    +0.000 A 
ATOM      8  N   UNL     1      -4.169  16.649  24.124  0.00  0.00    +0.000 NA
ATOM      9  N   UNL     1      -5.245  16.036  23.584  0.00  0.00    +0.000 N 
ATOM     10  C   UNL     1      -6.560  16.620  23.693  0.00  0.00    +0.000 C 
ATOM     11  C   UNL     1      -4.958  14.827  23.022  0.00  0.00    +0.000 A 
ATOM     12  N   UNL     1      -5.812  14.005  22.400  0.00  0.00    +0.000 NA
ATOM     13  H   UNL     1      -5.394  11.315  20.817  0.00  0.00    +0.000 HD
ATOM     14  H   UNL     1      -1.964  11.848  23.384  0.00  0.00    +0.000 HD
ENDROOT
BRANCH   5  15
ATOM     15  S   UNL     1      -0.725  12.958  21.941  0.00  0.00    +0.000 S 
ATOM     16  O   UNL     1      -1.402  13.376  20.734  0.00  0.00    +0.000 OA
ATOM     17  O   UNL     1       0.440  13.666  22.433  0.00  0.00    +0.000 OA
BRANCH  15  18
ATOM     18  C   UNL     1      -0.249  11.256  21.713  0.00  0.00    +0.000 A 
ATOM     19  C   UNL     1      -0.671  10.328  22.680  0.00  0.00    +0.000 A 
ATOM     20  C   UNL     1      -0.378   8.974  22.533  0.00  0.00    +0.000 A 
ATOM     21  C   UNL     1       0.336   8.540  21.421  0.00  0.00    +0.000 A 
ATOM     22  C   UNL     1       0.780   9.462  20.467  0.00  0.00    +0.000 A 
ATOM     23 CL   UNL     1       1.661   8.818  19.120  0.00  0.00    +0.000 Cl
ATOM     24  C   UNL     1       0.505  10.835  20.607  0.00  0.00    +0.000 A 
ATOM     25 CL   UNL     1       1.110  11.949  19.421  0.00  0.00    +0.000 Cl
ENDBRANCH  15  18
ENDBRANCH   5  15
BRANCH   1  27
ATOM     26  C   UNL     1      -6.925  12.147  19.058  0.00  0.00    +0.000 C 
ATOM     27  C   UNL     1      -7.108  12.503  20.525  0.00  0.00    +0.000 C 
ENDBRANCH   1  27
BRANCH   7  28
ATOM     28  O   UNL     1      -1.933  16.005  24.366  0.00  0.00    +0.000 OA
ATOM     29  C   UNL     1      -1.776  15.883  25.776  0.00  0.00    +0.000 C 
ENDBRANCH   7  28
TORSDOF 4
ENDMDL
MODEL 9
REMARK VINA RESULT:      -5.8      5.341      7.921
REMARK  Name = 
REMARK  7 active torsions:
REMARK  status: ('A' for Active; 'I' for Inactive)
REMARK    1  A    between atoms: C_1  and  C_2
REMARK    2  A    between atoms: C_2  and  N_3
REMARK    3  A    between atoms: N_7  and  S_8
REMARK    4  A    between atoms: S_8  and  C_11
REMARK    5  A    between atoms: C_20  and  O_21
REMARK    6  A    between atoms: O_21  and  C_22
REMARK    7  A    between atoms: N_24  and  C_25
REMARK                            x       y       z     vdW  Elec       q    Type
REMARK                         _______ _______ _______ _____ _____    ______ ____
ROOT
ATOM      1  N   UNL     1       1.414   9.263  19.031  0.00  0.00    +0.000 N 
ATOM      2  C   UNL     1       0.210   9.958  19.014  0.00  0.00    +0.000 A 
ATOM      3  N   UNL     1      -0.071  10.673  20.122  0.00  0.00    +0.000 NA
ATOM      4  C   UNL     1      -1.213  11.388  20.159  0.00  0.00    +0.000 A 
ATOM      5  N   UNL     1      -1.492  12.008  21.399  0.00  0.00    +0.000 N 
ATOM      6  C   UNL     1      -2.074  11.395  19.075  0.00  0.00    +0.000 A 
ATOM      7  C   UNL     1      -3.308  11.935  18.664  0.00  0.00    +0.000 A 
ATOM      8  N   UNL     1      -3.713  11.481  17.470  0.00  0.00    +0.000 NA
ATOM      9  N   UNL     1      -2.721  10.633  17.118  0.00  0.00    +0.000 N 
ATOM     10  C   UNL     1      -2.825   9.830  15.924  0.00  0.00    +0.000 C 
ATOM     11  C   UNL     1      -1.704  10.580  18.025  0.00  0.00    +0.000 A 
ATOM     12  N   UNL     1      -0.586   9.848  17.939  0.00  0.00    +0.000 NA
ATOM     13  H   UNL     1       2.005   9.714  19.724  0.00  0.00    +0.000 HD
ATOM     14  H   UNL     1      -1.146  11.400  22.146  0.00  0.00    +0.000 HD
ENDROOT
BRANCH   5  15
ATOM     15  S   UNL     1      -0.763  13.510  21.646  0.00  0.00    +0.000 S 
ATOM     16  O   UNL     1       0.613  13.283  22.029  0.00  0.00    +0.000 OA
ATOM     17  O   UNL     1      -1.101  14.394  20.548  0.00  0.00    +0.000 OA
BRANCH  15  18
ATOM     18  C   UNL     1      -1.618  14.112  23.089  0.00  0.00    +0.000 A 
ATOM     19  C   UNL     1      -2.751  13.398  23.517  0.00  0.00    +0.000 A 
ATOM     20  C   UNL     1      -3.434  13.784  24.668  0.00  0.00    +0.000 A 
ATOM     21  C   UNL     1      -2.989  14.882  25.398  0.00  0.00    +0.000 A 
ATOM     22  C   UNL     1      -1.876  15.611  24.964  0.00  0.00    +0.000 A 
ATOM     23 CL   UNL     1      -1.404  16.961  25.944  0.00  0.00    +0.000 Cl
ATOM     24  C   UNL     1      -1.183  15.243  23.795  0.00  0.00    +0.000 A 
ATOM     25 CL   UNL     1       0.167  16.199  23.270  0.00  0.00    +0.000 Cl
ENDBRANCH  15  18
ENDBRANCH   5  15
BRANCH   1  27
ATOM     26  C   UNL     1       2.967   7.870  17.769  0.00  0.00    +0.000 C 
ATOM     27  C   UNL     1       2.018   9.056  17.723  0.00  0.00    +0.000 C 
ENDBRANCH   1  27
BRANCH   7  28
ATOM     28  O   UNL     1      -4.069  12.805  19.366  0.00  0.00    +0.000 OA
ATOM     29  C   UNL     1      -5.194  12.210  20.006  0.00  0.00    +0.000 C 
ENDBRANCH   7  28
TORSDOF 4
ENDMDL
