MODEL 1
REMARK VINA RESULT:      -7.3      0.000      0.000
REMARK  Name = 
REMARK  3 active torsions:
REMARK  status: ('A' for Active; 'I' for Inactive)
REMARK    1  A    between atoms: C_1  and  C_2
REMARK    2  A    between atoms: C_7  and  C_8
REMARK    3  A    between atoms: C_16  and  C_17
REMARK                            x       y       z     vdW  Elec       q    Type
REMARK                         _______ _______ _______ _____ _____    ______ ____
ROOT
ATOM      1  C   UNL     1       4.225   4.379  18.899  0.00  0.00    +0.000 A 
ATOM      2  S   UNL     1       5.791   5.066  18.957  0.00  0.00    +0.000 S 
ATOM      3  C   UNL     1       6.049   4.848  17.277  0.00  0.00    +0.000 A 
ATOM      4  C   UNL     1       7.201   5.207  16.549  0.00  0.00    +0.000 A 
ATOM      5  C   UNL     1       7.244   4.953  15.179  0.00  0.00    +0.000 A 
ATOM      6  C   UNL     1       6.168   4.358  14.540  0.00  0.00    +0.000 A 
ATOM      7  C   UNL     1       5.028   4.007  15.267  0.00  0.00    +0.000 A 
ATOM      8  C   UNL     1       4.949   4.247  16.664  0.00  0.00    +0.000 A 
ATOM      9  C   UNL     1       3.888   3.971  17.614  0.00  0.00    +0.000 A 
ATOM     10  C   UNL     1       2.584   3.330  17.242  0.00  0.00    +0.000 C 
ENDROOT
BRANCH   1  17
ATOM     11  C   UNL     1       2.195   6.551  20.017  0.00  0.00    +0.000 C 
ATOM     12  C   UNL     1       2.110   5.060  20.154  0.00  0.00    +0.000 C 
ATOM     13  C   UNL     1       0.933   4.420  20.258  0.00  0.00    +0.000 C 
ATOM     14  N   UNL     1       0.798   3.063  20.388  0.00  0.00    +0.000 NA
ATOM     15  C   UNL     1       1.901   2.412  20.546  0.00  0.00    +0.000 C 
ATOM     16  N   UNL     1       3.163   2.922  20.591  0.00  0.00    +0.000 N 
ATOM     17  C   UNL     1       3.418   4.295  20.186  0.00  0.00    +0.000 C 
ATOM     18  H   UNL     1       3.939   2.286  20.460  0.00  0.00    +0.000 HD
ENDBRANCH   1  17
TORSDOF 1
ENDMDL
MODEL 2
REMARK VINA RESULT:      -7.3      1.696      2.357
REMARK  Name = 
REMARK  3 active torsions:
REMARK  status: ('A' for Active; 'I' for Inactive)
REMARK    1  A    between atoms: C_1  and  C_2
REMARK    2  A    between atoms: C_7  and  C_8
REMARK    3  A    between atoms: C_16  and  C_17
REMARK                            x       y       z     vdW  Elec       q    Type
REMARK                         _______ _______ _______ _____ _____    ______ ____
ROOT
ATOM      1  C   UNL     1       2.933   4.671  18.544  0.00  0.00    +0.000 A 
ATOM      2  S   UNL     1       3.762   3.255  18.059  0.00  0.00    +0.000 S 
ATOM      3  C   UNL     1       4.720   4.096  16.914  0.00  0.00    +0.000 A 
ATOM      4  C   UNL     1       5.708   3.544  16.075  0.00  0.00    +0.000 A 
ATOM      5  C   UNL     1       6.395   4.379  15.195  0.00  0.00    +0.000 A 
ATOM      6  C   UNL     1       6.111   5.734  15.147  0.00  0.00    +0.000 A 
ATOM      7  C   UNL     1       5.133   6.276  15.983  0.00  0.00    +0.000 A 
ATOM      8  C   UNL     1       4.411   5.457  16.890  0.00  0.00    +0.000 A 
ATOM      9  C   UNL     1       3.366   5.789  17.839  0.00  0.00    +0.000 A 
ATOM     10  C   UNL     1       2.828   7.175  18.035  0.00  0.00    +0.000 C 
ENDROOT
BRANCH   1  17
ATOM     11  C   UNL     1       0.493   2.639  18.623  0.00  0.00    +0.000 C 
ATOM     12  C   UNL     1       1.278   3.175  19.783  0.00  0.00    +0.000 C 
ATOM     13  C   UNL     1       1.442   2.473  20.918  0.00  0.00    +0.000 C 
ATOM     14  N   UNL     1       2.146   2.916  22.007  0.00  0.00    +0.000 NA
ATOM     15  C   UNL     1       2.549   4.139  21.942  0.00  0.00    +0.000 C 
ATOM     16  N   UNL     1       2.357   5.021  20.923  0.00  0.00    +0.000 N 
ATOM     17  C   UNL     1       1.874   4.560  19.631  0.00  0.00    +0.000 C 
ATOM     18  H   UNL     1       2.939   5.847  20.892  0.00  0.00    +0.000 HD
ENDBRANCH   1  17
TORSDOF 1
ENDMDL
MODEL 3
REMARK VINA RESULT:      -7.2      2.592      5.773
REMARK  Name = 
REMARK  3 active torsions:
REMARK  status: ('A' for Active; 'I' for Inactive)
REMARK    1  A    between atoms: C_1  and  C_2
REMARK    2  A    between atoms: C_7  and  C_8
REMARK    3  A    between atoms: C_16  and  C_17
REMARK                            x       y       z     vdW  Elec       q    Type
REMARK                         _______ _______ _______ _____ _____    ______ ____
ROOT
ATOM      1  C   UNL     1       4.518   5.412  17.972  0.00  0.00    +0.000 A 
ATOM      2  S   UNL     1       4.849   3.802  18.446  0.00  0.00    +0.000 S 
ATOM      3  C   UNL     1       3.435   3.697  19.407  0.00  0.00    +0.000 A 
ATOM      4  C   UNL     1       3.007   2.582  20.156  0.00  0.00    +0.000 A 
ATOM      5  C   UNL     1       1.824   2.671  20.889  0.00  0.00    +0.000 A 
ATOM      6  C   UNL     1       1.078   3.839  20.881  0.00  0.00    +0.000 A 
ATOM      7  C   UNL     1       1.506   4.939  20.135  0.00  0.00    +0.000 A 
ATOM      8  C   UNL     1       2.706   4.887  19.378  0.00  0.00    +0.000 A 
ATOM      9  C   UNL     1       3.343   5.887  18.543  0.00  0.00    +0.000 A 
ATOM     10  C   UNL     1       2.788   7.263  18.321  0.00  0.00    +0.000 C 
ENDROOT
BRANCH   1  17
ATOM     11  C   UNL     1       7.537   6.188  18.585  0.00  0.00    +0.000 C 
ATOM     12  C   UNL     1       6.946   5.769  17.271  0.00  0.00    +0.000 C 
ATOM     13  C   UNL     1       7.671   5.130  16.337  0.00  0.00    +0.000 C 
ATOM     14  N   UNL     1       7.183   4.727  15.121  0.00  0.00    +0.000 NA
ATOM     15  C   UNL     1       5.985   5.122  14.850  0.00  0.00    +0.000 C 
ATOM     16  N   UNL     1       5.167   5.879  15.631  0.00  0.00    +0.000 N 
ATOM     17  C   UNL     1       5.490   6.109  17.030  0.00  0.00    +0.000 C 
ATOM     18  H   UNL     1       4.179   5.895  15.412  0.00  0.00    +0.000 HD
ENDBRANCH   1  17
TORSDOF 1
ENDMDL
MODEL 4
REMARK VINA RESULT:      -7.1      2.526      5.468
REMARK  Name = 
REMARK  3 active torsions:
REMARK  status: ('A' for Active; 'I' for Inactive)
REMARK    1  A    between atoms: C_1  and  C_2
REMARK    2  A    between atoms: C_7  and  C_8
REMARK    3  A    between atoms: C_16  and  C_17
REMARK                            x       y       z     vdW  Elec       q    Type
REMARK                         _______ _______ _______ _____ _____    ______ ____
ROOT
ATOM      1  C   UNL     1       4.908   4.486  18.174  0.00  0.00    +0.000 A 
ATOM      2  S   UNL     1       4.308   5.478  19.431  0.00  0.00    +0.000 S 
ATOM      3  C   UNL     1       2.876   4.554  19.602  0.00  0.00    +0.000 A 
ATOM      4  C   UNL     1       1.827   4.787  20.515  0.00  0.00    +0.000 A 
ATOM      5  C   UNL     1       0.727   3.931  20.517  0.00  0.00    +0.000 A 
ATOM      6  C   UNL     1       0.664   2.865  19.634  0.00  0.00    +0.000 A 
ATOM      7  C   UNL     1       1.707   2.638  18.733  0.00  0.00    +0.000 A 
ATOM      8  C   UNL     1       2.843   3.489  18.700  0.00  0.00    +0.000 A 
ATOM      9  C   UNL     1       4.029   3.454  17.866  0.00  0.00    +0.000 A 
ATOM     10  C   UNL     1       4.271   2.420  16.806  0.00  0.00    +0.000 C 
ENDROOT
BRANCH   1  17
ATOM     11  C   UNL     1       5.460   6.385  15.688  0.00  0.00    +0.000 C 
ATOM     12  C   UNL     1       6.328   6.177  16.894  0.00  0.00    +0.000 C 
ATOM     13  C   UNL     1       7.141   7.140  17.360  0.00  0.00    +0.000 C 
ATOM     14  N   UNL     1       7.955   7.002  18.454  0.00  0.00    +0.000 NA
ATOM     15  C   UNL     1       8.007   5.815  18.957  0.00  0.00    +0.000 C 
ATOM     16  N   UNL     1       7.346   4.705  18.527  0.00  0.00    +0.000 N 
ATOM     17  C   UNL     1       6.262   4.819  17.564  0.00  0.00    +0.000 C 
ATOM     18  H   UNL     1       7.276   3.918  19.158  0.00  0.00    +0.000 HD
ENDBRANCH   1  17
TORSDOF 1
ENDMDL
MODEL 5
REMARK VINA RESULT:      -7.1      1.040      1.926
REMARK  Name = 
REMARK  3 active torsions:
REMARK  status: ('A' for Active; 'I' for Inactive)
REMARK    1  A    between atoms: C_1  and  C_2
REMARK    2  A    between atoms: C_7  and  C_8
REMARK    3  A    between atoms: C_16  and  C_17
REMARK                            x       y       z     vdW  Elec       q    Type
REMARK                         _______ _______ _______ _____ _____    ______ ____
ROOT
ATOM      1  C   UNL     1       4.328   4.348  18.632  0.00  0.00    +0.000 A 
ATOM      2  S   UNL     1       3.569   3.762  17.215  0.00  0.00    +0.000 S 
ATOM      3  C   UNL     1       4.916   4.142  16.226  0.00  0.00    +0.000 A 
ATOM      4  C   UNL     1       5.029   3.925  14.838  0.00  0.00    +0.000 A 
ATOM      5  C   UNL     1       6.203   4.300  14.186  0.00  0.00    +0.000 A 
ATOM      6  C   UNL     1       7.245   4.877  14.893  0.00  0.00    +0.000 A 
ATOM      7  C   UNL     1       7.128   5.088  16.268  0.00  0.00    +0.000 A 
ATOM      8  C   UNL     1       5.947   4.722  16.966  0.00  0.00    +0.000 A 
ATOM      9  C   UNL     1       5.600   4.844  18.369  0.00  0.00    +0.000 A 
ATOM     10  C   UNL     1       6.513   5.429  19.405  0.00  0.00    +0.000 C 
ENDROOT
BRANCH   1  17
ATOM     11  C   UNL     1       2.366   6.534  19.840  0.00  0.00    +0.000 C 
ATOM     12  C   UNL     1       2.272   5.043  19.975  0.00  0.00    +0.000 C 
ATOM     13  C   UNL     1       1.094   4.414  20.124  0.00  0.00    +0.000 C 
ATOM     14  N   UNL     1       0.953   3.057  20.254  0.00  0.00    +0.000 NA
ATOM     15  C   UNL     1       2.055   2.396  20.365  0.00  0.00    +0.000 C 
ATOM     16  N   UNL     1       3.322   2.893  20.360  0.00  0.00    +0.000 N 
ATOM     17  C   UNL     1       3.573   4.266  19.951  0.00  0.00    +0.000 C 
ATOM     18  H   UNL     1       4.085   2.251  20.195  0.00  0.00    +0.000 HD
ENDBRANCH   1  17
TORSDOF 1
ENDMDL
MODEL 6
REMARK VINA RESULT:      -7.0      2.504      5.787
REMARK  Name = 
REMARK  3 active torsions:
REMARK  status: ('A' for Active; 'I' for Inactive)
REMARK    1  A    between atoms: C_1  and  C_2
REMARK    2  A    between atoms: C_7  and  C_8
REMARK    3  A    between atoms: C_16  and  C_17
REMARK                            x       y       z     vdW  Elec       q    Type
REMARK                         _______ _______ _______ _____ _____    ______ ____
ROOT
ATOM      1  C   UNL     1       5.187   4.202  18.686  0.00  0.00    +0.000 A 
ATOM      2  S   UNL     1       4.869   2.758  19.547  0.00  0.00    +0.000 S 
ATOM      3  C   UNL     1       3.281   3.247  19.964  0.00  0.00    +0.000 A 
ATOM      4  C   UNL     1       2.345   2.513  20.721  0.00  0.00    +0.000 A 
ATOM      5  C   UNL     1       1.090   3.067  20.970  0.00  0.00    +0.000 A 
ATOM      6  C   UNL     1       0.766   4.321  20.480  0.00  0.00    +0.000 A 
ATOM      7  C   UNL     1       1.697   5.043  19.729  0.00  0.00    +0.000 A 
ATOM      8  C   UNL     1       2.985   4.513  19.456  0.00  0.00    +0.000 A 
ATOM      9  C   UNL     1       4.100   5.069  18.714  0.00  0.00    +0.000 A 
ATOM     10  C   UNL     1       4.072   6.415  18.053  0.00  0.00    +0.000 C 
ENDROOT
BRANCH   1  17
ATOM     11  C   UNL     1       5.870   3.747  15.618  0.00  0.00    +0.000 C 
ATOM     12  C   UNL     1       6.478   4.748  16.554  0.00  0.00    +0.000 C 
ATOM     13  C   UNL     1       6.958   5.927  16.122  0.00  0.00    +0.000 C 
ATOM     14  N   UNL     1       7.525   6.875  16.932  0.00  0.00    +0.000 NA
ATOM     15  C   UNL     1       7.705   6.516  18.158  0.00  0.00    +0.000 C 
ATOM     16  N   UNL     1       7.393   5.318  18.724  0.00  0.00    +0.000 N 
ATOM     17  C   UNL     1       6.544   4.370  18.020  0.00  0.00    +0.000 C 
ATOM     18  H   UNL     1       7.348   5.265  19.733  0.00  0.00    +0.000 HD
ENDBRANCH   1  17
TORSDOF 1
ENDMDL
MODEL 7
REMARK VINA RESULT:      -6.8      1.691      3.024
REMARK  Name = 
REMARK  3 active torsions:
REMARK  status: ('A' for Active; 'I' for Inactive)
REMARK    1  A    between atoms: C_1  and  C_2
REMARK    2  A    between atoms: C_7  and  C_8
REMARK    3  A    between atoms: C_16  and  C_17
REMARK                            x       y       z     vdW  Elec       q    Type
REMARK                         _______ _______ _______ _____ _____    ______ ____
ROOT
ATOM      1  C   UNL     1       5.614   4.744  17.071  0.00  0.00    +0.000 A 
ATOM      2  S   UNL     1       4.870   3.622  16.015  0.00  0.00    +0.000 S 
ATOM      3  C   UNL     1       5.865   4.067  14.692  0.00  0.00    +0.000 A 
ATOM      4  C   UNL     1       5.828   3.525  13.392  0.00  0.00    +0.000 A 
ATOM      5  C   UNL     1       6.714   4.009  12.430  0.00  0.00    +0.000 A 
ATOM      6  C   UNL     1       7.618   5.009  12.748  0.00  0.00    +0.000 A 
ATOM      7  C   UNL     1       7.650   5.542  14.039  0.00  0.00    +0.000 A 
ATOM      8  C   UNL     1       6.763   5.076  15.044  0.00  0.00    +0.000 A 
ATOM      9  C   UNL     1       6.612   5.471  16.431  0.00  0.00    +0.000 A 
ATOM     10  C   UNL     1       7.443   6.532  17.090  0.00  0.00    +0.000 C 
ENDROOT
BRANCH   1  17
ATOM     11  C   UNL     1       3.278   6.576  18.200  0.00  0.00    +0.000 C 
ATOM     12  C   UNL     1       3.673   5.205  18.663  0.00  0.00    +0.000 C 
ATOM     13  C   UNL     1       2.785   4.351  19.200  0.00  0.00    +0.000 C 
ATOM     14  N   UNL     1       3.093   3.091  19.640  0.00  0.00    +0.000 NA
ATOM     15  C   UNL     1       4.349   2.797  19.638  0.00  0.00    +0.000 C 
ATOM     16  N   UNL     1       5.383   3.591  19.246  0.00  0.00    +0.000 N 
ATOM     17  C   UNL     1       5.131   4.821  18.512  0.00  0.00    +0.000 C 
ATOM     18  H   UNL     1       6.274   3.152  19.053  0.00  0.00    +0.000 HD
ENDBRANCH   1  17
TORSDOF 1
ENDMDL
MODEL 8
REMARK VINA RESULT:      -6.8      2.586      5.608
REMARK  Name = 
REMARK  3 active torsions:
REMARK  status: ('A' for Active; 'I' for Inactive)
REMARK    1  A    between atoms: C_1  and  C_2
REMARK    2  A    between atoms: C_7  and  C_8
REMARK    3  A    between atoms: C_16  and  C_17
REMARK                            x       y       z     vdW  Elec       q    Type
REMARK                         _______ _______ _______ _____ _____    ______ ____
ROOT
ATOM      1  C   UNL     1       4.790   4.179  17.908  0.00  0.00    +0.000 A 
ATOM      2  S   UNL     1       4.077   2.697  17.437  0.00  0.00    +0.000 S 
ATOM      3  C   UNL     1       2.697   2.942  18.424  0.00  0.00    +0.000 A 
ATOM      4  C   UNL     1       1.594   2.075  18.559  0.00  0.00    +0.000 A 
ATOM      5  C   UNL     1       0.552   2.431  19.414  0.00  0.00    +0.000 A 
ATOM      6  C   UNL     1       0.599   3.622  20.120  0.00  0.00    +0.000 A 
ATOM      7  C   UNL     1       1.693   4.478  19.980  0.00  0.00    +0.000 A 
ATOM      8  C   UNL     1       2.774   4.148  19.121  0.00  0.00    +0.000 A 
ATOM      9  C   UNL     1       3.998   4.866  18.821  0.00  0.00    +0.000 A 
ATOM     10  C   UNL     1       4.355   6.193  19.422  0.00  0.00    +0.000 C 
ENDROOT
BRANCH   1  17
ATOM     11  C   UNL     1       5.302   6.199  15.511  0.00  0.00    +0.000 C 
ATOM     12  C   UNL     1       6.177   5.950  16.703  0.00  0.00    +0.000 C 
ATOM     13  C   UNL     1       6.977   6.903  17.212  0.00  0.00    +0.000 C 
ATOM     14  N   UNL     1       7.797   6.729  18.295  0.00  0.00    +0.000 NA
ATOM     15  C   UNL     1       7.870   5.521  18.742  0.00  0.00    +0.000 C 
ATOM     16  N   UNL     1       7.226   4.422  18.264  0.00  0.00    +0.000 N 
ATOM     17  C   UNL     1       6.136   4.562  17.310  0.00  0.00    +0.000 C 
ATOM     18  H   UNL     1       7.171   3.605  18.858  0.00  0.00    +0.000 HD
ENDBRANCH   1  17
TORSDOF 1
ENDMDL
MODEL 9
REMARK VINA RESULT:      -6.8      2.662      5.650
REMARK  Name = 
REMARK  3 active torsions:
REMARK  status: ('A' for Active; 'I' for Inactive)
REMARK    1  A    between atoms: C_1  and  C_2
REMARK    2  A    between atoms: C_7  and  C_8
REMARK    3  A    between atoms: C_16  and  C_17
REMARK                            x       y       z     vdW  Elec       q    Type
REMARK                         _______ _______ _______ _____ _____    ______ ____
ROOT
ATOM      1  C   UNL     1       4.289   5.519  17.901  0.00  0.00    +0.000 A 
ATOM      2  S   UNL     1       3.410   6.255  19.170  0.00  0.00    +0.000 S 
ATOM      3  C   UNL     1       2.412   4.881  19.401  0.00  0.00    +0.000 A 
ATOM      4  C   UNL     1       1.379   4.740  20.348  0.00  0.00    +0.000 A 
ATOM      5  C   UNL     1       0.661   3.546  20.397  0.00  0.00    +0.000 A 
ATOM      6  C   UNL     1       0.960   2.510  19.527  0.00  0.00    +0.000 A 
ATOM      7  C   UNL     1       1.987   2.655  18.591  0.00  0.00    +0.000 A 
ATOM      8  C   UNL     1       2.739   3.857  18.510  0.00  0.00    +0.000 A 
ATOM      9  C   UNL     1       3.832   4.233  17.634  0.00  0.00    +0.000 A 
ATOM     10  C   UNL     1       4.398   3.334  16.576  0.00  0.00    +0.000 C 
ENDROOT
BRANCH   1  17
ATOM     11  C   UNL     1       7.285   5.779  18.923  0.00  0.00    +0.000 C 
ATOM     12  C   UNL     1       6.799   5.753  17.505  0.00  0.00    +0.000 C 
ATOM     13  C   UNL     1       7.556   5.276  16.501  0.00  0.00    +0.000 C 
ATOM     14  N   UNL     1       7.163   5.231  15.190  0.00  0.00    +0.000 NA
ATOM     15  C   UNL     1       6.041   5.812  14.930  0.00  0.00    +0.000 C 
ATOM     16  N   UNL     1       5.218   6.450  15.807  0.00  0.00    +0.000 N 
ATOM     17  C   UNL     1       5.413   6.304  17.240  0.00  0.00    +0.000 C 
ATOM     18  H   UNL     1       4.264   6.629  15.521  0.00  0.00    +0.000 HD
ENDBRANCH   1  17
TORSDOF 1
ENDMDL
