MODEL 1
REMARK VINA RESULT:      -7.9      0.000      0.000
REMARK  Name = 
REMARK  7 active torsions:
REMARK  status: ('A' for Active; 'I' for Inactive)
REMARK    1  A    between atoms: C_1  and  C_2
REMARK    2  A    between atoms: C_9  and  C_11
REMARK    3  A    between atoms: C_11  and  C_12
REMARK    4  A    between atoms: C_12  and  C_13
REMARK    5  A    between atoms: N_15  and  C_16
REMARK    6  A    between atoms: C_16  and  C_17
REMARK    7  A    between atoms: C_24  and  C_25
REMARK                            x       y       z     vdW  Elec       q    Type
REMARK                         _______ _______ _______ _____ _____    ______ ____
ROOT
ATOM      1  C   UNL     1       5.221   2.837  12.371  0.00  0.00    +0.000 C 
ATOM      2  C   UNL     1       5.897   3.722  13.378  0.00  0.00    +0.000 A 
ATOM      3  C   UNL     1       6.906   4.613  13.015  0.00  0.00    +0.000 A 
ATOM      4  C   UNL     1       7.513   5.408  13.986  0.00  0.00    +0.000 A 
ATOM      5  C   UNL     1       7.102   5.332  15.321  0.00  0.00    +0.000 A 
ATOM      6  C   UNL     1       6.078   4.443  15.718  0.00  0.00    +0.000 A 
ATOM      7  C   UNL     1       5.500   3.641  14.724  0.00  0.00    +0.000 A 
ATOM      8  N   UNL     1       5.687   4.372  17.103  0.00  0.00    +0.000 N 
ATOM      9  C   UNL     1       4.482   3.803  17.531  0.00  0.00    +0.000 C 
ATOM     10  O   UNL     1       3.628   3.323  16.781  0.00  0.00    +0.000 OA
ATOM     11  C   UNL     1       6.667   5.007  18.002  0.00  0.00    +0.000 C 
ATOM     12  C   UNL     1       7.076   6.361  17.426  0.00  0.00    +0.000 C 
ATOM     13  C   UNL     1       8.003   7.108  18.376  0.00  0.00    +0.000 C 
ATOM     14  O   UNL     1       7.764   6.181  16.181  0.00  0.00    +0.000 OA
ENDROOT
BRANCH   9  15
ATOM     15  C   UNL     1       4.191   3.831  19.025  0.00  0.00    +0.000 C 
BRANCH  15  16
ATOM     16  C   UNL     1       2.778   3.312  19.326  0.00  0.00    +0.000 C 
BRANCH  16  17
ATOM     17  C   UNL     1       1.925   4.351  20.017  0.00  0.00    +0.000 C 
ATOM     18  O   UNL     1       0.799   4.109  20.451  0.00  0.00    +0.000 OA
ATOM     19  N   UNL     1       2.532   5.584  20.140  0.00  0.00    +0.000 N 
ATOM     20  H   UNL     1       3.348   5.781  19.576  0.00  0.00    +0.000 HD
BRANCH  19  21
ATOM     21  C   UNL     1       1.827   6.697  20.746  0.00  0.00    +0.000 C 
BRANCH  21  22
ATOM     22  C   UNL     1       1.698   7.884  19.834  0.00  0.00    +0.000 A 
ATOM     23  C   UNL     1       2.253   7.871  18.548  0.00  0.00    +0.000 A 
ATOM     24  C   UNL     1       2.204   9.013  17.753  0.00  0.00    +0.000 A 
ATOM     25  C   UNL     1       1.609  10.149  18.273  0.00  0.00    +0.000 A 
ATOM     26  N   UNL     1       1.051  10.204  19.499  0.00  0.00    +0.000 NA
ATOM     27  C   UNL     1       1.105   9.075  20.248  0.00  0.00    +0.000 A 
ENDBRANCH  21  22
ENDBRANCH  19  21
ENDBRANCH  16  17
ENDBRANCH  15  16
ENDBRANCH   9  15
TORSDOF 5
ENDMDL
MODEL 2
REMARK VINA RESULT:      -7.8      0.662      1.010
REMARK  Name = 
REMARK  7 active torsions:
REMARK  status: ('A' for Active; 'I' for Inactive)
REMARK    1  A    between atoms: C_1  and  C_2
REMARK    2  A    between atoms: C_9  and  C_11
REMARK    3  A    between atoms: C_11  and  C_12
REMARK    4  A    between atoms: C_12  and  C_13
REMARK    5  A    between atoms: N_15  and  C_16
REMARK    6  A    between atoms: C_16  and  C_17
REMARK    7  A    between atoms: C_24  and  C_25
REMARK                            x       y       z     vdW  Elec       q    Type
REMARK                         _______ _______ _______ _____ _____    ______ ____
ROOT
ATOM      1  C   UNL     1       5.078   2.973  12.004  0.00  0.00    +0.000 C 
ATOM      2  C   UNL     1       5.759   3.737  13.102  0.00  0.00    +0.000 A 
ATOM      3  C   UNL     1       6.830   4.594  12.848  0.00  0.00    +0.000 A 
ATOM      4  C   UNL     1       7.440   5.275  13.901  0.00  0.00    +0.000 A 
ATOM      5  C   UNL     1       6.970   5.121  15.210  0.00  0.00    +0.000 A 
ATOM      6  C   UNL     1       5.884   4.264  15.497  0.00  0.00    +0.000 A 
ATOM      7  C   UNL     1       5.304   3.577  14.422  0.00  0.00    +0.000 A 
ATOM      8  N   UNL     1       5.433   4.110  16.857  0.00  0.00    +0.000 N 
ATOM      9  C   UNL     1       4.182   3.580  17.194  0.00  0.00    +0.000 C 
ATOM     10  O   UNL     1       3.335   3.209  16.377  0.00  0.00    +0.000 OA
ATOM     11  C   UNL     1       6.409   4.615  17.838  0.00  0.00    +0.000 C 
ATOM     12  C   UNL     1       6.914   5.984  17.387  0.00  0.00    +0.000 C 
ATOM     13  C   UNL     1       7.841   6.601  18.427  0.00  0.00    +0.000 C 
ATOM     14  O   UNL     1       7.642   5.861  16.157  0.00  0.00    +0.000 OA
ENDROOT
BRANCH   9  15
ATOM     15  C   UNL     1       3.832   3.509  18.674  0.00  0.00    +0.000 C 
BRANCH  15  16
ATOM     16  C   UNL     1       2.319   3.347  18.880  0.00  0.00    +0.000 C 
BRANCH  16  17
ATOM     17  C   UNL     1       1.744   4.437  19.755  0.00  0.00    +0.000 C 
ATOM     18  O   UNL     1       0.706   4.296  20.401  0.00  0.00    +0.000 OA
ATOM     19  N   UNL     1       2.499   5.591  19.784  0.00  0.00    +0.000 N 
ATOM     20  H   UNL     1       3.205   5.728  19.072  0.00  0.00    +0.000 HD
BRANCH  19  21
ATOM     21  C   UNL     1       2.059   6.743  20.548  0.00  0.00    +0.000 C 
BRANCH  21  22
ATOM     22  C   UNL     1       1.844   7.967  19.704  0.00  0.00    +0.000 A 
ATOM     23  C   UNL     1       1.066   9.036  20.165  0.00  0.00    +0.000 A 
ATOM     24  C   UNL     1       0.801  10.120  19.332  0.00  0.00    +0.000 A 
ATOM     25  C   UNL     1       1.314  10.101  18.047  0.00  0.00    +0.000 A 
ATOM     26  N   UNL     1       2.079   9.101  17.565  0.00  0.00    +0.000 NA
ATOM     27  C   UNL     1       2.328   8.062  18.401  0.00  0.00    +0.000 A 
ENDBRANCH  21  22
ENDBRANCH  19  21
ENDBRANCH  16  17
ENDBRANCH  15  16
ENDBRANCH   9  15
TORSDOF 5
ENDMDL
MODEL 3
REMARK VINA RESULT:      -7.6      3.121      5.611
REMARK  Name = 
REMARK  7 active torsions:
REMARK  status: ('A' for Active; 'I' for Inactive)
REMARK    1  A    between atoms: C_1  and  C_2
REMARK    2  A    between atoms: C_9  and  C_11
REMARK    3  A    between atoms: C_11  and  C_12
REMARK    4  A    between atoms: C_12  and  C_13
REMARK    5  A    between atoms: N_15  and  C_16
REMARK    6  A    between atoms: C_16  and  C_17
REMARK    7  A    between atoms: C_24  and  C_25
REMARK                            x       y       z     vdW  Elec       q    Type
REMARK                         _______ _______ _______ _____ _____    ______ ____
ROOT
ATOM      1  C   UNL     1       5.059   6.816  16.028  0.00  0.00    +0.000 C 
ATOM      2  C   UNL     1       4.533   5.877  17.074  0.00  0.00    +0.000 A 
ATOM      3  C   UNL     1       4.994   4.566  17.184  0.00  0.00    +0.000 A 
ATOM      4  C   UNL     1       4.469   3.724  18.163  0.00  0.00    +0.000 A 
ATOM      5  C   UNL     1       3.497   4.195  19.053  0.00  0.00    +0.000 A 
ATOM      6  C   UNL     1       3.014   5.520  18.970  0.00  0.00    +0.000 A 
ATOM      7  C   UNL     1       3.545   6.336  17.962  0.00  0.00    +0.000 A 
ATOM      8  N   UNL     1       1.999   5.972  19.887  0.00  0.00    +0.000 N 
ATOM      9  C   UNL     1       1.718   7.325  20.113  0.00  0.00    +0.000 C 
ATOM     10  O   UNL     1       2.310   8.263  19.574  0.00  0.00    +0.000 OA
ATOM     11  C   UNL     1       1.334   4.860  20.589  0.00  0.00    +0.000 C 
ATOM     12  C   UNL     1       2.390   3.879  21.094  0.00  0.00    +0.000 C 
ATOM     13  C   UNL     1       1.761   2.770  21.926  0.00  0.00    +0.000 C 
ATOM     14  O   UNL     1       3.072   3.275  19.987  0.00  0.00    +0.000 OA
ENDROOT
BRANCH   9  15
ATOM     15  C   UNL     1       0.639   7.650  21.137  0.00  0.00    +0.000 C 
BRANCH  15  16
ATOM     16  C   UNL     1       1.044   8.845  22.011  0.00  0.00    +0.000 C 
BRANCH  16  17
ATOM     17  C   UNL     1       0.681  10.166  21.372  0.00  0.00    +0.000 C 
ATOM     18  O   UNL     1       1.268  11.216  21.630  0.00  0.00    +0.000 OA
ATOM     19  N   UNL     1      -0.349  10.083  20.457  0.00  0.00    +0.000 N 
ATOM     20  H   UNL     1      -0.930   9.255  20.455  0.00  0.00    +0.000 HD
BRANCH  19  21
ATOM     21  C   UNL     1      -0.840  11.273  19.788  0.00  0.00    +0.000 C 
BRANCH  21  22
ATOM     22  C   UNL     1      -1.809  10.971  18.680  0.00  0.00    +0.000 A 
ATOM     23  C   UNL     1      -1.448  10.143  17.610  0.00  0.00    +0.000 A 
ATOM     24  C   UNL     1      -2.327   9.951  16.546  0.00  0.00    +0.000 A 
ATOM     25  C   UNL     1      -3.544  10.607  16.575  0.00  0.00    +0.000 A 
ATOM     26  N   UNL     1      -3.939  11.403  17.589  0.00  0.00    +0.000 NA
ATOM     27  C   UNL     1      -3.067  11.565  18.616  0.00  0.00    +0.000 A 
ENDBRANCH  21  22
ENDBRANCH  19  21
ENDBRANCH  16  17
ENDBRANCH  15  16
ENDBRANCH   9  15
TORSDOF 5
ENDMDL
MODEL 4
REMARK VINA RESULT:      -7.5      4.943     10.296
REMARK  Name = 
REMARK  7 active torsions:
REMARK  status: ('A' for Active; 'I' for Inactive)
REMARK    1  A    between atoms: C_1  and  C_2
REMARK    2  A    between atoms: C_9  and  C_11
REMARK    3  A    between atoms: C_11  and  C_12
REMARK    4  A    between atoms: C_12  and  C_13
REMARK    5  A    between atoms: N_15  and  C_16
REMARK    6  A    between atoms: C_16  and  C_17
REMARK    7  A    between atoms: C_24  and  C_25
REMARK                            x       y       z     vdW  Elec       q    Type
REMARK                         _______ _______ _______ _____ _____    ______ ____
ROOT
ATOM      1  C   UNL     1      -4.982  13.513  21.470  0.00  0.00    +0.000 C 
ATOM      2  C   UNL     1      -4.771  12.868  20.131  0.00  0.00    +0.000 A 
ATOM      3  C   UNL     1      -5.796  12.771  19.190  0.00  0.00    +0.000 A 
ATOM      4  C   UNL     1      -5.557  12.153  17.964  0.00  0.00    +0.000 A 
ATOM      5  C   UNL     1      -4.288  11.648  17.661  0.00  0.00    +0.000 A 
ATOM      6  C   UNL     1      -3.229  11.736  18.592  0.00  0.00    +0.000 A 
ATOM      7  C   UNL     1      -3.503  12.343  19.824  0.00  0.00    +0.000 A 
ATOM      8  N   UNL     1      -1.937  11.190  18.261  0.00  0.00    +0.000 N 
ATOM      9  C   UNL     1      -0.764  11.529  18.945  0.00  0.00    +0.000 C 
ATOM     10  O   UNL     1      -0.705  12.332  19.880  0.00  0.00    +0.000 OA
ATOM     11  C   UNL     1      -1.985  10.284  17.100  0.00  0.00    +0.000 C 
ATOM     12  C   UNL     1      -2.811  10.930  15.990  0.00  0.00    +0.000 C 
ATOM     13  C   UNL     1      -2.796  10.081  14.725  0.00  0.00    +0.000 C 
ATOM     14  O   UNL     1      -4.174  11.079  16.412  0.00  0.00    +0.000 OA
ENDROOT
BRANCH   9  15
ATOM     15  C   UNL     1       0.533  10.896  18.460  0.00  0.00    +0.000 C 
BRANCH  15  16
ATOM     16  C   UNL     1       0.977   9.757  19.389  0.00  0.00    +0.000 C 
BRANCH  16  17
ATOM     17  C   UNL     1       1.795   8.715  18.661  0.00  0.00    +0.000 C 
ATOM     18  O   UNL     1       2.153   8.845  17.491  0.00  0.00    +0.000 OA
ATOM     19  N   UNL     1       2.124   7.620  19.433  0.00  0.00    +0.000 N 
ATOM     20  H   UNL     1       1.622   7.467  20.298  0.00  0.00    +0.000 HD
BRANCH  19  21
ATOM     21  C   UNL     1       2.874   6.515  18.867  0.00  0.00    +0.000 C 
BRANCH  21  22
ATOM     22  C   UNL     1       2.228   5.179  19.101  0.00  0.00    +0.000 A 
ATOM     23  C   UNL     1       1.594   4.886  20.315  0.00  0.00    +0.000 A 
ATOM     24  C   UNL     1       1.083   3.611  20.548  0.00  0.00    +0.000 A 
ATOM     25  C   UNL     1       1.233   2.654  19.560  0.00  0.00    +0.000 A 
ATOM     26  N   UNL     1       1.823   2.895  18.372  0.00  0.00    +0.000 NA
ATOM     27  C   UNL     1       2.304   4.147  18.168  0.00  0.00    +0.000 A 
ENDBRANCH  21  22
ENDBRANCH  19  21
ENDBRANCH  16  17
ENDBRANCH  15  16
ENDBRANCH   9  15
TORSDOF 5
ENDMDL
MODEL 5
REMARK VINA RESULT:      -7.5      4.113      9.636
REMARK  Name = 
REMARK  7 active torsions:
REMARK  status: ('A' for Active; 'I' for Inactive)
REMARK    1  A    between atoms: C_1  and  C_2
REMARK    2  A    between atoms: C_9  and  C_11
REMARK    3  A    between atoms: C_11  and  C_12
REMARK    4  A    between atoms: C_12  and  C_13
REMARK    5  A    between atoms: N_15  and  C_16
REMARK    6  A    between atoms: C_16  and  C_17
REMARK    7  A    between atoms: C_24  and  C_25
REMARK                            x       y       z     vdW  Elec       q    Type
REMARK                         _______ _______ _______ _____ _____    ______ ____
ROOT
ATOM      1  C   UNL     1      -1.204  12.867  22.987  0.00  0.00    +0.000 C 
ATOM      2  C   UNL     1      -1.819  12.562  21.652  0.00  0.00    +0.000 A 
ATOM      3  C   UNL     1      -3.014  13.152  21.241  0.00  0.00    +0.000 A 
ATOM      4  C   UNL     1      -3.556  12.831  19.997  0.00  0.00    +0.000 A 
ATOM      5  C   UNL     1      -2.896  11.935  19.149  0.00  0.00    +0.000 A 
ATOM      6  C   UNL     1      -1.682  11.326  19.535  0.00  0.00    +0.000 A 
ATOM      7  C   UNL     1      -1.171  11.652  20.799  0.00  0.00    +0.000 A 
ATOM      8  N   UNL     1      -1.034  10.393  18.649  0.00  0.00    +0.000 N 
ATOM      9  C   UNL     1       0.309  10.018  18.780  0.00  0.00    +0.000 C 
ATOM     10  O   UNL     1       1.076  10.450  19.643  0.00  0.00    +0.000 OA
ATOM     11  C   UNL     1      -1.923   9.925  17.571  0.00  0.00    +0.000 C 
ATOM     12  C   UNL     1      -2.654  11.120  16.965  0.00  0.00    +0.000 C 
ATOM     13  C   UNL     1      -3.501  10.703  15.770  0.00  0.00    +0.000 C 
ATOM     14  O   UNL     1      -3.521  11.715  17.941  0.00  0.00    +0.000 OA
ENDROOT
BRANCH   9  15
ATOM     15  C   UNL     1       0.863   9.046  17.747  0.00  0.00    +0.000 C 
BRANCH  15  16
ATOM     16  C   UNL     1       2.393   9.144  17.657  0.00  0.00    +0.000 C 
BRANCH  16  17
ATOM     17  C   UNL     1       3.069   7.847  18.036  0.00  0.00    +0.000 C 
ATOM     18  O   UNL     1       3.997   7.364  17.388  0.00  0.00    +0.000 OA
ATOM     19  N   UNL     1       2.571   7.269  19.186  0.00  0.00    +0.000 N 
ATOM     20  H   UNL     1       1.678   7.586  19.541  0.00  0.00    +0.000 HD
BRANCH  19  21
ATOM     21  C   UNL     1       3.090   6.000  19.659  0.00  0.00    +0.000 C 
BRANCH  21  22
ATOM     22  C   UNL     1       2.177   4.842  19.373  0.00  0.00    +0.000 A 
ATOM     23  C   UNL     1       1.619   4.087  20.412  0.00  0.00    +0.000 A 
ATOM     24  C   UNL     1       0.850   2.962  20.125  0.00  0.00    +0.000 A 
ATOM     25  C   UNL     1       0.670   2.611  18.799  0.00  0.00    +0.000 A 
ATOM     26  N   UNL     1       1.176   3.315  17.766  0.00  0.00    +0.000 NA
ATOM     27  C   UNL     1       1.913   4.411  18.074  0.00  0.00    +0.000 A 
ENDBRANCH  21  22
ENDBRANCH  19  21
ENDBRANCH  16  17
ENDBRANCH  15  16
ENDBRANCH   9  15
TORSDOF 5
ENDMDL
MODEL 6
REMARK VINA RESULT:      -7.3      3.412      5.917
REMARK  Name = 
REMARK  7 active torsions:
REMARK  status: ('A' for Active; 'I' for Inactive)
REMARK    1  A    between atoms: C_1  and  C_2
REMARK    2  A    between atoms: C_9  and  C_11
REMARK    3  A    between atoms: C_11  and  C_12
REMARK    4  A    between atoms: C_12  and  C_13
REMARK    5  A    between atoms: N_15  and  C_16
REMARK    6  A    between atoms: C_16  and  C_17
REMARK    7  A    between atoms: C_24  and  C_25
REMARK                            x       y       z     vdW  Elec       q    Type
REMARK                         _______ _______ _______ _____ _____    ______ ____
ROOT
ATOM      1  C   UNL     1       1.986   2.829  21.923  0.00  0.00    +0.000 C 
ATOM      2  C   UNL     1       2.772   3.140  20.683  0.00  0.00    +0.000 A 
ATOM      3  C   UNL     1       3.494   2.159  20.004  0.00  0.00    +0.000 A 
ATOM      4  C   UNL     1       4.220   2.495  18.862  0.00  0.00    +0.000 A 
ATOM      5  C   UNL     1       4.211   3.808  18.380  0.00  0.00    +0.000 A 
ATOM      6  C   UNL     1       3.485   4.822  19.042  0.00  0.00    +0.000 A 
ATOM      7  C   UNL     1       2.782   4.460  20.199  0.00  0.00    +0.000 A 
ATOM      8  N   UNL     1       3.508   6.170  18.533  0.00  0.00    +0.000 N 
ATOM      9  C   UNL     1       2.569   7.143  18.897  0.00  0.00    +0.000 C 
ATOM     10  O   UNL     1       1.624   6.952  19.666  0.00  0.00    +0.000 OA
ATOM     11  C   UNL     1       4.591   6.389  17.559  0.00  0.00    +0.000 C 
ATOM     12  C   UNL     1       4.615   5.232  16.563  0.00  0.00    +0.000 C 
ATOM     13  C   UNL     1       5.645   5.467  15.466  0.00  0.00    +0.000 C 
ATOM     14  O   UNL     1       4.949   4.009  17.234  0.00  0.00    +0.000 OA
ENDROOT
BRANCH   9  15
ATOM     15  C   UNL     1       2.704   8.515  18.251  0.00  0.00    +0.000 C 
BRANCH  15  16
ATOM     16  C   UNL     1       1.382   8.958  17.608  0.00  0.00    +0.000 C 
BRANCH  16  17
ATOM     17  C   UNL     1       0.653   9.979  18.451  0.00  0.00    +0.000 C 
ATOM     18  O   UNL     1       0.941  10.202  19.626  0.00  0.00    +0.000 OA
ATOM     19  N   UNL     1      -0.344  10.655  17.777  0.00  0.00    +0.000 N 
ATOM     20  H   UNL     1      -0.678  10.278  16.900  0.00  0.00    +0.000 HD
BRANCH  19  21
ATOM     21  C   UNL     1      -1.160  11.640  18.461  0.00  0.00    +0.000 C 
BRANCH  21  22
ATOM     22  C   UNL     1      -2.614  11.565  18.089  0.00  0.00    +0.000 A 
ATOM     23  C   UNL     1      -3.013  11.151  16.812  0.00  0.00    +0.000 A 
ATOM     24  C   UNL     1      -4.359  11.178  16.455  0.00  0.00    +0.000 A 
ATOM     25  C   UNL     1      -5.274  11.633  17.387  0.00  0.00    +0.000 A 
ATOM     26  N   UNL     1      -4.939  12.029  18.631  0.00  0.00    +0.000 NA
ATOM     27  C   UNL     1      -3.622  11.984  18.954  0.00  0.00    +0.000 A 
ENDBRANCH  21  22
ENDBRANCH  19  21
ENDBRANCH  16  17
ENDBRANCH  15  16
ENDBRANCH   9  15
TORSDOF 5
ENDMDL
MODEL 7
REMARK VINA RESULT:      -7.3      1.265      1.711
REMARK  Name = 
REMARK  7 active torsions:
REMARK  status: ('A' for Active; 'I' for Inactive)
REMARK    1  A    between atoms: C_1  and  C_2
REMARK    2  A    between atoms: C_9  and  C_11
REMARK    3  A    between atoms: C_11  and  C_12
REMARK    4  A    between atoms: C_12  and  C_13
REMARK    5  A    between atoms: N_15  and  C_16
REMARK    6  A    between atoms: C_16  and  C_17
REMARK    7  A    between atoms: C_24  and  C_25
REMARK                            x       y       z     vdW  Elec       q    Type
REMARK                         _______ _______ _______ _____ _____    ______ ____
ROOT
ATOM      1  C   UNL     1       4.986   3.317  12.141  0.00  0.00    +0.000 C 
ATOM      2  C   UNL     1       5.643   3.867  13.374  0.00  0.00    +0.000 A 
ATOM      3  C   UNL     1       6.828   4.599  13.312  0.00  0.00    +0.000 A 
ATOM      4  C   UNL     1       7.410   5.081  14.483  0.00  0.00    +0.000 A 
ATOM      5  C   UNL     1       6.798   4.854  15.721  0.00  0.00    +0.000 A 
ATOM      6  C   UNL     1       5.594   4.122  15.815  0.00  0.00    +0.000 A 
ATOM      7  C   UNL     1       5.044   3.631  14.623  0.00  0.00    +0.000 A 
ATOM      8  N   UNL     1       4.996   3.887  17.105  0.00  0.00    +0.000 N 
ATOM      9  C   UNL     1       3.664   3.493  17.272  0.00  0.00    +0.000 C 
ATOM     10  O   UNL     1       2.862   3.323  16.349  0.00  0.00    +0.000 OA
ATOM     11  C   UNL     1       5.925   4.156  18.217  0.00  0.00    +0.000 C 
ATOM     12  C   UNL     1       6.634   5.486  17.972  0.00  0.00    +0.000 C 
ATOM     13  C   UNL     1       7.521   5.865  19.150  0.00  0.00    +0.000 C 
ATOM     14  O   UNL     1       7.458   5.398  16.801  0.00  0.00    +0.000 OA
ENDROOT
BRANCH   9  15
ATOM     15  C   UNL     1       3.164   3.315  18.699  0.00  0.00    +0.000 C 
BRANCH  15  16
ATOM     16  C   UNL     1       2.058   4.327  19.030  0.00  0.00    +0.000 C 
BRANCH  16  17
ATOM     17  C   UNL     1       2.597   5.730  19.180  0.00  0.00    +0.000 C 
ATOM     18  O   UNL     1       3.369   6.056  20.082  0.00  0.00    +0.000 OA
ATOM     19  N   UNL     1       2.167   6.605  18.204  0.00  0.00    +0.000 N 
ATOM     20  H   UNL     1       1.372   6.343  17.634  0.00  0.00    +0.000 HD
BRANCH  19  21
ATOM     21  C   UNL     1       2.566   7.999  18.232  0.00  0.00    +0.000 C 
BRANCH  21  22
ATOM     22  C   UNL     1       1.511   8.906  18.800  0.00  0.00    +0.000 A 
ATOM     23  C   UNL     1       1.234   8.921  20.173  0.00  0.00    +0.000 A 
ATOM     24  C   UNL     1       0.190   9.699  20.667  0.00  0.00    +0.000 A 
ATOM     25  C   UNL     1      -0.562  10.434  19.769  0.00  0.00    +0.000 A 
ATOM     26  N   UNL     1      -0.324  10.460  18.442  0.00  0.00    +0.000 NA
ATOM     27  C   UNL     1       0.704   9.701  17.989  0.00  0.00    +0.000 A 
ENDBRANCH  21  22
ENDBRANCH  19  21
ENDBRANCH  16  17
ENDBRANCH  15  16
ENDBRANCH   9  15
TORSDOF 5
ENDMDL
MODEL 8
REMARK VINA RESULT:      -7.3      3.260      5.487
REMARK  Name = 
REMARK  7 active torsions:
REMARK  status: ('A' for Active; 'I' for Inactive)
REMARK    1  A    between atoms: C_1  and  C_2
REMARK    2  A    between atoms: C_9  and  C_11
REMARK    3  A    between atoms: C_11  and  C_12
REMARK    4  A    between atoms: C_12  and  C_13
REMARK    5  A    between atoms: N_15  and  C_16
REMARK    6  A    between atoms: C_16  and  C_17
REMARK    7  A    between atoms: C_24  and  C_25
REMARK                            x       y       z     vdW  Elec       q    Type
REMARK                         _______ _______ _______ _____ _____    ______ ____
ROOT
ATOM      1  C   UNL     1       5.433   5.574  15.285  0.00  0.00    +0.000 C 
ATOM      2  C   UNL     1       4.759   4.875  16.430  0.00  0.00    +0.000 A 
ATOM      3  C   UNL     1       4.956   3.518  16.682  0.00  0.00    +0.000 A 
ATOM      4  C   UNL     1       4.300   2.907  17.750  0.00  0.00    +0.000 A 
ATOM      5  C   UNL     1       3.461   3.653  18.585  0.00  0.00    +0.000 A 
ATOM      6  C   UNL     1       3.246   5.030  18.358  0.00  0.00    +0.000 A 
ATOM      7  C   UNL     1       3.902   5.613  17.265  0.00  0.00    +0.000 A 
ATOM      8  N   UNL     1       2.363   5.770  19.222  0.00  0.00    +0.000 N 
ATOM      9  C   UNL     1       2.358   7.168  19.299  0.00  0.00    +0.000 C 
ATOM     10  O   UNL     1       3.110   7.908  18.658  0.00  0.00    +0.000 OA
ATOM     11  C   UNL     1       1.510   4.894  20.044  0.00  0.00    +0.000 C 
ATOM     12  C   UNL     1       2.364   3.784  20.651  0.00  0.00    +0.000 C 
ATOM     13  C   UNL     1       1.550   2.916  21.602  0.00  0.00    +0.000 C 
ATOM     14  O   UNL     1       2.887   2.941  19.615  0.00  0.00    +0.000 OA
ENDROOT
BRANCH   9  15
ATOM     15  C   UNL     1       1.389   7.808  20.284  0.00  0.00    +0.000 C 
BRANCH  15  16
ATOM     16  C   UNL     1       1.442   9.340  20.199  0.00  0.00    +0.000 C 
BRANCH  16  17
ATOM     17  C   UNL     1       0.076   9.966  20.355  0.00  0.00    +0.000 C 
ATOM     18  O   UNL     1      -0.432  10.196  21.452  0.00  0.00    +0.000 OA
ATOM     19  N   UNL     1      -0.538  10.279  19.160  0.00  0.00    +0.000 N 
ATOM     20  H   UNL     1      -0.179   9.868  18.308  0.00  0.00    +0.000 HD
BRANCH  19  21
ATOM     21  C   UNL     1      -1.872  10.850  19.141  0.00  0.00    +0.000 C 
BRANCH  21  22
ATOM     22  C   UNL     1      -2.566  10.692  17.818  0.00  0.00    +0.000 A 
ATOM     23  C   UNL     1      -2.040   9.860  16.821  0.00  0.00    +0.000 A 
ATOM     24  C   UNL     1      -2.647   9.799  15.569  0.00  0.00    +0.000 A 
ATOM     25  C   UNL     1      -3.761  10.586  15.341  0.00  0.00    +0.000 A 
ATOM     26  N   UNL     1      -4.309  11.391  16.274  0.00  0.00    +0.000 NA
ATOM     27  C   UNL     1      -3.704  11.424  17.487  0.00  0.00    +0.000 A 
ENDBRANCH  21  22
ENDBRANCH  19  21
ENDBRANCH  16  17
ENDBRANCH  15  16
ENDBRANCH   9  15
TORSDOF 5
ENDMDL
MODEL 9
REMARK VINA RESULT:      -7.2      1.197      1.444
REMARK  Name = 
REMARK  7 active torsions:
REMARK  status: ('A' for Active; 'I' for Inactive)
REMARK    1  A    between atoms: C_1  and  C_2
REMARK    2  A    between atoms: C_9  and  C_11
REMARK    3  A    between atoms: C_11  and  C_12
REMARK    4  A    between atoms: C_12  and  C_13
REMARK    5  A    between atoms: N_15  and  C_16
REMARK    6  A    between atoms: C_16  and  C_17
REMARK    7  A    between atoms: C_24  and  C_25
REMARK                            x       y       z     vdW  Elec       q    Type
REMARK                         _______ _______ _______ _____ _____    ______ ____
ROOT
ATOM      1  C   UNL     1       5.174   2.853  12.003  0.00  0.00    +0.000 C 
ATOM      2  C   UNL     1       5.856   3.705  13.032  0.00  0.00    +0.000 A 
ATOM      3  C   UNL     1       6.955   4.503  12.716  0.00  0.00    +0.000 A 
ATOM      4  C   UNL     1       7.565   5.271  13.707  0.00  0.00    +0.000 A 
ATOM      5  C   UNL     1       7.067   5.263  15.014  0.00  0.00    +0.000 A 
ATOM      6  C   UNL     1       5.952   4.470  15.364  0.00  0.00    +0.000 A 
ATOM      7  C   UNL     1       5.372   3.692  14.352  0.00  0.00    +0.000 A 
ATOM      8  N   UNL     1       5.471   4.467  16.722  0.00  0.00    +0.000 N 
ATOM      9  C   UNL     1       4.199   4.007  17.084  0.00  0.00    +0.000 C 
ATOM     10  O   UNL     1       3.357   3.579  16.291  0.00  0.00    +0.000 OA
ATOM     11  C   UNL     1       6.443   5.043  17.668  0.00  0.00    +0.000 C 
ATOM     12  C   UNL     1       6.996   6.344  17.092  0.00  0.00    +0.000 C 
ATOM     13  C   UNL     1       7.921   7.038  18.084  0.00  0.00    +0.000 C 
ATOM     14  O   UNL     1       7.742   6.077  15.897  0.00  0.00    +0.000 OA
ENDROOT
BRANCH   9  15
ATOM     15  C   UNL     1       3.820   4.097  18.556  0.00  0.00    +0.000 C 
BRANCH  15  16
ATOM     16  C   UNL     1       3.701   5.558  19.011  0.00  0.00    +0.000 C 
BRANCH  16  17
ATOM     17  C   UNL     1       2.425   5.814  19.779  0.00  0.00    +0.000 C 
ATOM     18  O   UNL     1       1.516   4.988  19.855  0.00  0.00    +0.000 OA
ATOM     19  N   UNL     1       2.382   7.042  20.405  0.00  0.00    +0.000 N 
ATOM     20  H   UNL     1       3.046   7.753  20.126  0.00  0.00    +0.000 HD
BRANCH  19  21
ATOM     21  C   UNL     1       1.207   7.452  21.150  0.00  0.00    +0.000 C 
BRANCH  21  22
ATOM     22  C   UNL     1       0.853   8.898  20.951  0.00  0.00    +0.000 A 
ATOM     23  C   UNL     1       0.634   9.418  19.669  0.00  0.00    +0.000 A 
ATOM     24  C   UNL     1       0.399  10.781  19.497  0.00  0.00    +0.000 A 
ATOM     25  C   UNL     1       0.404  11.593  20.617  0.00  0.00    +0.000 A 
ATOM     26  N   UNL     1       0.597  11.135  21.870  0.00  0.00    +0.000 NA
ATOM     27  C   UNL     1       0.814   9.803  22.009  0.00  0.00    +0.000 A 
ENDBRANCH  21  22
ENDBRANCH  19  21
ENDBRANCH  16  17
ENDBRANCH  15  16
ENDBRANCH   9  15
TORSDOF 5
ENDMDL
