MODEL 1
REMARK VINA RESULT:      -6.8      0.000      0.000
REMARK  Name = 
REMARK  5 active torsions:
REMARK  status: ('A' for Active; 'I' for Inactive)
REMARK    1  A    between atoms: C_1  and  O_2
REMARK    2  A    between atoms: O_2  and  C_3
REMARK    3  A    between atoms: C_6  and  N_7
REMARK    4  A    between atoms: C_10  and  C_11
REMARK    5  A    between atoms: C_21  and  N_23
REMARK                            x       y       z     vdW  Elec       q    Type
REMARK                         _______ _______ _______ _____ _____    ______ ____
ROOT
ATOM      1  C   UNL     1       3.841   5.790  17.731  0.00  0.00    +0.000 C 
ATOM      2  O   UNL     1       3.181   7.073  17.442  0.00  0.00    +0.000 OA
ATOM      3  C   UNL     1       2.423   7.471  18.566  0.00  0.00    +0.000 A 
ATOM      4  C   UNL     1       1.663   8.627  18.546  0.00  0.00    +0.000 A 
ATOM      5  C   UNL     1       1.106   9.099  19.749  0.00  0.00    +0.000 A 
ATOM      6  C   UNL     1       1.398   8.476  20.968  0.00  0.00    +0.000 A 
ATOM      7  C   UNL     1       2.023   7.239  20.967  0.00  0.00    +0.000 A 
ATOM      8  C   UNL     1       2.369   6.690  19.741  0.00  0.00    +0.000 A 
ATOM      9  C   UNL     1       2.574   5.209  19.580  0.00  0.00    +0.000 C 
ATOM     10  O   UNL     1       2.749   4.532  20.582  0.00  0.00    +0.000 OA
ATOM     11  C   UNL     1       2.732   4.796  18.152  0.00  0.00    +0.000 C 
ATOM     12 BR   UNL     1       1.011   4.992  17.195  0.00  0.00    +0.000 Br
ENDROOT
BRANCH   1  17
ATOM     13  C   UNL     1       6.452   4.806  15.125  0.00  0.00    +0.000 A 
ATOM     14  C   UNL     1       7.601   4.569  15.862  0.00  0.00    +0.000 A 
ATOM     15  C   UNL     1       7.569   4.627  17.263  0.00  0.00    +0.000 A 
ATOM     16  C   UNL     1       6.381   4.952  17.967  0.00  0.00    +0.000 A 
ATOM     17  C   UNL     1       5.205   5.227  17.251  0.00  0.00    +0.000 A 
ATOM     18  C   UNL     1       5.285   5.120  15.813  0.00  0.00    +0.000 A 
BRANCH  16  19
ATOM     19  N   UNL     1       6.461   5.026  19.423  0.00  0.00    +0.000 N 
ATOM     20  O   UNL     1       5.799   4.213  20.087  0.00  0.00    +0.000 OA
ATOM     21  O   UNL     1       7.186   5.895  19.917  0.00  0.00    +0.000 OA
ENDBRANCH  16  19
BRANCH  13  23
ATOM     22  C   UNL     1       6.040   3.599  13.105  0.00  0.00    +0.000 C 
ATOM     23  O   UNL     1       6.590   4.735  13.769  0.00  0.00    +0.000 OA
ENDBRANCH  13  23
ENDBRANCH   1  17
BRANCH  11  24
ATOM     24  N   UNL     1       3.000   3.342  17.976  0.00  0.00    +0.000 N 
ATOM     25  O   UNL     1       2.404   2.756  17.059  0.00  0.00    +0.000 OA
ATOM     26  O   UNL     1       3.674   2.753  18.832  0.00  0.00    +0.000 OA
ENDBRANCH  11  24
TORSDOF 4
ENDMDL
MODEL 2
REMARK VINA RESULT:      -6.1      2.266      3.505
REMARK  Name = 
REMARK  5 active torsions:
REMARK  status: ('A' for Active; 'I' for Inactive)
REMARK    1  A    between atoms: C_1  and  O_2
REMARK    2  A    between atoms: O_2  and  C_3
REMARK    3  A    between atoms: C_6  and  N_7
REMARK    4  A    between atoms: C_10  and  C_11
REMARK    5  A    between atoms: C_21  and  N_23
REMARK                            x       y       z     vdW  Elec       q    Type
REMARK                         _______ _______ _______ _____ _____    ______ ____
ROOT
ATOM      1  C   UNL     1       4.482   4.575  18.111  0.00  0.00    +0.000 C 
ATOM      2  O   UNL     1       4.523   3.951  19.443  0.00  0.00    +0.000 OA
ATOM      3  C   UNL     1       3.225   3.521  19.796  0.00  0.00    +0.000 A 
ATOM      4  C   UNL     1       2.971   2.936  21.025  0.00  0.00    +0.000 A 
ATOM      5  C   UNL     1       1.723   2.324  21.246  0.00  0.00    +0.000 A 
ATOM      6  C   UNL     1       0.786   2.211  20.212  0.00  0.00    +0.000 A 
ATOM      7  C   UNL     1       0.976   2.930  19.041  0.00  0.00    +0.000 A 
ATOM      8  C   UNL     1       2.120   3.705  18.935  0.00  0.00    +0.000 A 
ATOM      9  C   UNL     1       2.189   4.868  17.985  0.00  0.00    +0.000 C 
ATOM     10  O   UNL     1       1.364   4.936  17.086  0.00  0.00    +0.000 OA
ATOM     11  C   UNL     1       3.419   5.698  18.170  0.00  0.00    +0.000 C 
ATOM     12 BR   UNL     1       3.321   6.683  19.884  0.00  0.00    +0.000 Br
ENDROOT
BRANCH   1  17
ATOM     13  C   UNL     1       5.741   4.194  14.527  0.00  0.00    +0.000 A 
ATOM     14  C   UNL     1       6.995   4.783  14.538  0.00  0.00    +0.000 A 
ATOM     15  C   UNL     1       7.544   5.258  15.738  0.00  0.00    +0.000 A 
ATOM     16  C   UNL     1       6.833   5.179  16.963  0.00  0.00    +0.000 A 
ATOM     17  C   UNL     1       5.548   4.615  16.983  0.00  0.00    +0.000 A 
ATOM     18  C   UNL     1       5.044   4.111  15.728  0.00  0.00    +0.000 A 
BRANCH  16  19
ATOM     19  N   UNL     1       7.475   5.739  18.150  0.00  0.00    +0.000 N 
ATOM     20  O   UNL     1       7.868   4.954  19.028  0.00  0.00    +0.000 OA
ATOM     21  O   UNL     1       7.595   6.966  18.215  0.00  0.00    +0.000 OA
ENDBRANCH  16  19
BRANCH  13  23
ATOM     22  C   UNL     1       6.264   3.382  12.341  0.00  0.00    +0.000 C 
ATOM     23  O   UNL     1       5.292   3.772  13.308  0.00  0.00    +0.000 OA
ENDBRANCH  13  23
ENDBRANCH   1  17
BRANCH  11  24
ATOM     24  N   UNL     1       3.537   6.817  17.196  0.00  0.00    +0.000 N 
ATOM     25  O   UNL     1       4.467   6.767  16.376  0.00  0.00    +0.000 OA
ATOM     26  O   UNL     1       2.813   7.812  17.342  0.00  0.00    +0.000 OA
ENDBRANCH  11  24
TORSDOF 4
ENDMDL
MODEL 3
REMARK VINA RESULT:      -6.0      1.511      3.077
REMARK  Name = 
REMARK  5 active torsions:
REMARK  status: ('A' for Active; 'I' for Inactive)
REMARK    1  A    between atoms: C_1  and  O_2
REMARK    2  A    between atoms: O_2  and  C_3
REMARK    3  A    between atoms: C_6  and  N_7
REMARK    4  A    between atoms: C_10  and  C_11
REMARK    5  A    between atoms: C_21  and  N_23
REMARK                            x       y       z     vdW  Elec       q    Type
REMARK                         _______ _______ _______ _____ _____    ______ ____
ROOT
ATOM      1  C   UNL     1       3.930   6.289  18.155  0.00  0.00    +0.000 C 
ATOM      2  O   UNL     1       3.217   7.408  17.519  0.00  0.00    +0.000 OA
ATOM      3  C   UNL     1       2.248   7.912  18.415  0.00  0.00    +0.000 A 
ATOM      4  C   UNL     1       1.401   8.945  18.051  0.00  0.00    +0.000 A 
ATOM      5  C   UNL     1       0.610   9.561  19.039  0.00  0.00    +0.000 A 
ATOM      6  C   UNL     1       0.747   9.213  20.388  0.00  0.00    +0.000 A 
ATOM      7  C   UNL     1       1.472   8.080  20.728  0.00  0.00    +0.000 A 
ATOM      8  C   UNL     1       2.067   7.361  19.703  0.00  0.00    +0.000 A 
ATOM      9  C   UNL     1       2.427   5.911  19.875  0.00  0.00    +0.000 C 
ATOM     10  O   UNL     1       2.491   5.456  21.008  0.00  0.00    +0.000 OA
ATOM     11  C   UNL     1       2.859   5.264  18.599  0.00  0.00    +0.000 C 
ATOM     12 BR   UNL     1       1.313   5.072  17.378  0.00  0.00    +0.000 Br
ENDROOT
BRANCH   1  17
ATOM     13  C   UNL     1       7.384   5.271  19.424  0.00  0.00    +0.000 A 
ATOM     14  C   UNL     1       8.008   4.719  18.318  0.00  0.00    +0.000 A 
ATOM     15  C   UNL     1       7.374   4.730  17.067  0.00  0.00    +0.000 A 
ATOM     16  C   UNL     1       6.074   5.274  16.898  0.00  0.00    +0.000 A 
ATOM     17  C   UNL     1       5.400   5.815  18.004  0.00  0.00    +0.000 A 
ATOM     18  C   UNL     1       6.112   5.809  19.260  0.00  0.00    +0.000 A 
BRANCH  16  19
ATOM     19  N   UNL     1       5.484   5.201  15.563  0.00  0.00    +0.000 N 
ATOM     20  O   UNL     1       5.324   6.259  14.936  0.00  0.00    +0.000 OA
ATOM     21  O   UNL     1       5.177   4.086  15.130  0.00  0.00    +0.000 OA
ENDBRANCH  16  19
BRANCH  13  23
ATOM     22  C   UNL     1       9.374   4.604  20.567  0.00  0.00    +0.000 C 
ATOM     23  O   UNL     1       8.080   5.202  20.597  0.00  0.00    +0.000 OA
ENDBRANCH  13  23
ENDBRANCH   1  17
BRANCH  11  24
ATOM     24  N   UNL     1       3.282   3.845  18.760  0.00  0.00    +0.000 N 
ATOM     25  O   UNL     1       3.122   3.086  17.792  0.00  0.00    +0.000 OA
ATOM     26  O   UNL     1       3.623   3.451  19.883  0.00  0.00    +0.000 OA
ENDBRANCH  11  24
TORSDOF 4
ENDMDL
MODEL 4
REMARK VINA RESULT:      -6.0      8.460     10.770
REMARK  Name = 
REMARK  5 active torsions:
REMARK  status: ('A' for Active; 'I' for Inactive)
REMARK    1  A    between atoms: C_1  and  O_2
REMARK    2  A    between atoms: O_2  and  C_3
REMARK    3  A    between atoms: C_6  and  N_7
REMARK    4  A    between atoms: C_10  and  C_11
REMARK    5  A    between atoms: C_21  and  N_23
REMARK                            x       y       z     vdW  Elec       q    Type
REMARK                         _______ _______ _______ _____ _____    ______ ____
ROOT
ATOM      1  C   UNL     1      -0.365  13.381  19.552  0.00  0.00    +0.000 C 
ATOM      2  O   UNL     1      -0.139  12.172  18.745  0.00  0.00    +0.000 OA
ATOM      3  C   UNL     1      -1.368  11.504  18.551  0.00  0.00    +0.000 A 
ATOM      4  C   UNL     1      -1.434  10.307  17.859  0.00  0.00    +0.000 A 
ATOM      5  C   UNL     1      -2.695   9.795  17.499  0.00  0.00    +0.000 A 
ATOM      6  C   UNL     1      -3.863  10.528  17.739  0.00  0.00    +0.000 A 
ATOM      7  C   UNL     1      -3.809  11.641  18.564  0.00  0.00    +0.000 A 
ATOM      8  C   UNL     1      -2.577  12.000  19.088  0.00  0.00    +0.000 A 
ATOM      9  C   UNL     1      -2.472  12.830  20.337  0.00  0.00    +0.000 C 
ATOM     10  O   UNL     1      -3.457  13.452  20.709  0.00  0.00    +0.000 OA
ATOM     11  C   UNL     1      -1.073  12.931  20.852  0.00  0.00    +0.000 C 
ATOM     12 BR   UNL     1      -0.487  11.183  21.573  0.00  0.00    +0.000 Br
ENDROOT
BRANCH   1  17
ATOM     13  C   UNL     1      -0.044  17.105  18.774  0.00  0.00    +0.000 A 
ATOM     14  C   UNL     1       1.078  17.509  19.480  0.00  0.00    +0.000 A 
ATOM     15  C   UNL     1       1.851  16.570  20.178  0.00  0.00    +0.000 A 
ATOM     16  C   UNL     1       1.502  15.195  20.210  0.00  0.00    +0.000 A 
ATOM     17  C   UNL     1       0.355  14.756  19.530  0.00  0.00    +0.000 A 
ATOM     18  C   UNL     1      -0.385  15.758  18.800  0.00  0.00    +0.000 A 
BRANCH  16  19
ATOM     19  N   UNL     1       2.349  14.305  20.999  0.00  0.00    +0.000 N 
ATOM     20  O   UNL     1       2.919  13.370  20.415  0.00  0.00    +0.000 OA
ATOM     21  O   UNL     1       2.454  14.532  22.208  0.00  0.00    +0.000 OA
ENDBRANCH  16  19
BRANCH  13  23
ATOM     22  C   UNL     1      -0.262  18.514  16.856  0.00  0.00    +0.000 C 
ATOM     23  O   UNL     1      -0.734  18.096  18.135  0.00  0.00    +0.000 OA
ENDBRANCH  13  23
ENDBRANCH   1  17
BRANCH  11  24
ATOM     24  N   UNL     1      -0.938  13.802  22.052  0.00  0.00    +0.000 N 
ATOM     25  O   UNL     1      -0.411  13.310  23.062  0.00  0.00    +0.000 OA
ATOM     26  O   UNL     1      -1.488  14.912  22.046  0.00  0.00    +0.000 OA
ENDBRANCH  11  24
TORSDOF 4
ENDMDL
MODEL 5
REMARK VINA RESULT:      -6.0      7.241      9.582
REMARK  Name = 
REMARK  5 active torsions:
REMARK  status: ('A' for Active; 'I' for Inactive)
REMARK    1  A    between atoms: C_1  and  O_2
REMARK    2  A    between atoms: O_2  and  C_3
REMARK    3  A    between atoms: C_6  and  N_7
REMARK    4  A    between atoms: C_10  and  C_11
REMARK    5  A    between atoms: C_21  and  N_23
REMARK                            x       y       z     vdW  Elec       q    Type
REMARK                         _______ _______ _______ _____ _____    ______ ____
ROOT
ATOM      1  C   UNL     1      -0.365  13.128  19.133  0.00  0.00    +0.000 C 
ATOM      2  O   UNL     1      -0.351  14.495  18.589  0.00  0.00    +0.000 OA
ATOM      3  C   UNL     1       0.853  15.132  18.960  0.00  0.00    +0.000 A 
ATOM      4  C   UNL     1       1.105  16.448  18.615  0.00  0.00    +0.000 A 
ATOM      5  C   UNL     1       2.398  16.970  18.809  0.00  0.00    +0.000 A 
ATOM      6  C   UNL     1       3.445  16.150  19.245  0.00  0.00    +0.000 A 
ATOM      7  C   UNL     1       3.158  14.885  19.736  0.00  0.00    +0.000 A 
ATOM      8  C   UNL     1       1.834  14.475  19.736  0.00  0.00    +0.000 A 
ATOM      9  C   UNL     1       1.351  13.394  20.663  0.00  0.00    +0.000 C 
ATOM     10  O   UNL     1       2.179  12.661  21.185  0.00  0.00    +0.000 OA
ATOM     11  C   UNL     1      -0.136  13.246  20.658  0.00  0.00    +0.000 C 
ATOM     12 BR   UNL     1      -0.977  14.815  21.522  0.00  0.00    +0.000 Br
ENDROOT
BRANCH   1  17
ATOM     13  C   UNL     1      -3.072  11.060  17.407  0.00  0.00    +0.000 A 
ATOM     14  C   UNL     1      -2.464   9.841  17.154  0.00  0.00    +0.000 A 
ATOM     15  C   UNL     1      -1.164   9.588  17.614  0.00  0.00    +0.000 A 
ATOM     16  C   UNL     1      -0.423  10.569  18.323  0.00  0.00    +0.000 A 
ATOM     17  C   UNL     1      -0.996  11.826  18.570  0.00  0.00    +0.000 A 
ATOM     18  C   UNL     1      -2.349  12.021  18.104  0.00  0.00    +0.000 A 
BRANCH  16  19
ATOM     19  N   UNL     1       0.938  10.221  18.724  0.00  0.00    +0.000 N 
ATOM     20  O   UNL     1       1.878  10.836  18.196  0.00  0.00    +0.000 OA
ATOM     21  O   UNL     1       1.080   9.334  19.570  0.00  0.00    +0.000 OA
ENDBRANCH  16  19
BRANCH  13  23
ATOM     22  C   UNL     1      -5.287  11.901  17.715  0.00  0.00    +0.000 C 
ATOM     23  O   UNL     1      -4.335  11.211  16.909  0.00  0.00    +0.000 OA
ENDBRANCH  13  23
ENDBRANCH   1  17
BRANCH  11  24
ATOM     24  N   UNL     1      -0.629  12.137  21.521  0.00  0.00    +0.000 N 
ATOM     25  O   UNL     1      -1.814  12.180  21.888  0.00  0.00    +0.000 OA
ATOM     26  O   UNL     1       0.188  11.315  21.959  0.00  0.00    +0.000 OA
ENDBRANCH  11  24
TORSDOF 4
ENDMDL
MODEL 6
REMARK VINA RESULT:      -6.0      7.763     10.570
REMARK  Name = 
REMARK  5 active torsions:
REMARK  status: ('A' for Active; 'I' for Inactive)
REMARK    1  A    between atoms: C_1  and  O_2
REMARK    2  A    between atoms: O_2  and  C_3
REMARK    3  A    between atoms: C_6  and  N_7
REMARK    4  A    between atoms: C_10  and  C_11
REMARK    5  A    between atoms: C_21  and  N_23
REMARK                            x       y       z     vdW  Elec       q    Type
REMARK                         _______ _______ _______ _____ _____    ______ ____
ROOT
ATOM      1  C   UNL     1       0.427  14.731  19.600  0.00  0.00    +0.000 C 
ATOM      2  O   UNL     1      -0.638  15.674  19.221  0.00  0.00    +0.000 OA
ATOM      3  C   UNL     1      -0.088  16.703  18.425  0.00  0.00    +0.000 A 
ATOM      4  C   UNL     1      -0.868  17.751  17.968  0.00  0.00    +0.000 A 
ATOM      5  C   UNL     1      -0.337  18.627  17.002  0.00  0.00    +0.000 A 
ATOM      6  C   UNL     1       0.917  18.389  16.429  0.00  0.00    +0.000 A 
ATOM      7  C   UNL     1       1.754  17.439  16.996  0.00  0.00    +0.000 A 
ATOM      8  C   UNL     1       1.285  16.735  18.095  0.00  0.00    +0.000 A 
ATOM      9  C   UNL     1       2.230  16.082  19.065  0.00  0.00    +0.000 C 
ATOM     10  O   UNL     1       3.387  15.899  18.718  0.00  0.00    +0.000 OA
ATOM     11  C   UNL     1       1.541  15.559  20.284  0.00  0.00    +0.000 C 
ATOM     12 BR   UNL     1       0.911  17.063  21.406  0.00  0.00    +0.000 Br
ENDROOT
BRANCH   1  17
ATOM     13  C   UNL     1       1.365  11.090  18.936  0.00  0.00    +0.000 A 
ATOM     14  C   UNL     1       0.869  10.402  20.031  0.00  0.00    +0.000 A 
ATOM     15  C   UNL     1       0.118  11.072  21.008  0.00  0.00    +0.000 A 
ATOM     16  C   UNL     1      -0.136  12.465  20.925  0.00  0.00    +0.000 A 
ATOM     17  C   UNL     1       0.377  13.200  19.844  0.00  0.00    +0.000 A 
ATOM     18  C   UNL     1       1.114  12.455  18.850  0.00  0.00    +0.000 A 
BRANCH  16  19
ATOM     19  N   UNL     1      -0.894  13.076  22.014  0.00  0.00    +0.000 N 
ATOM     20  O   UNL     1      -2.041  13.485  21.770  0.00  0.00    +0.000 OA
ATOM     21  O   UNL     1      -0.353  13.152  23.121  0.00  0.00    +0.000 OA
ENDBRANCH  16  19
BRANCH  13  23
ATOM     22  C   UNL     1       1.614   9.047  17.722  0.00  0.00    +0.000 C 
ATOM     23  O   UNL     1       2.091  10.351  18.047  0.00  0.00    +0.000 OA
ENDBRANCH  13  23
ENDBRANCH   1  17
BRANCH  11  24
ATOM     24  N   UNL     1       2.450  14.851  21.227  0.00  0.00    +0.000 N 
ATOM     25  O   UNL     1       3.306  14.095  20.740  0.00  0.00    +0.000 OA
ATOM     26  O   UNL     1       2.219  14.922  22.442  0.00  0.00    +0.000 OA
ENDBRANCH  11  24
TORSDOF 4
ENDMDL
MODEL 7
REMARK VINA RESULT:      -5.9      7.990     10.136
REMARK  Name = 
REMARK  5 active torsions:
REMARK  status: ('A' for Active; 'I' for Inactive)
REMARK    1  A    between atoms: C_1  and  O_2
REMARK    2  A    between atoms: O_2  and  C_3
REMARK    3  A    between atoms: C_6  and  N_7
REMARK    4  A    between atoms: C_10  and  C_11
REMARK    5  A    between atoms: C_21  and  N_23
REMARK                            x       y       z     vdW  Elec       q    Type
REMARK                         _______ _______ _______ _____ _____    ______ ____
ROOT
ATOM      1  C   UNL     1      -1.148  13.015  19.207  0.00  0.00    +0.000 C 
ATOM      2  O   UNL     1      -0.764  14.435  19.153  0.00  0.00    +0.000 OA
ATOM      3  C   UNL     1       0.629  14.533  18.938  0.00  0.00    +0.000 A 
ATOM      4  C   UNL     1       1.263  15.762  18.890  0.00  0.00    +0.000 A 
ATOM      5  C   UNL     1       2.600  15.824  18.455  0.00  0.00    +0.000 A 
ATOM      6  C   UNL     1       3.254  14.682  17.977  0.00  0.00    +0.000 A 
ATOM      7  C   UNL     1       2.676  13.437  18.172  0.00  0.00    +0.000 A 
ATOM      8  C   UNL     1       1.444  13.387  18.806  0.00  0.00    +0.000 A 
ATOM      9  C   UNL     1       0.974  12.139  19.501  0.00  0.00    +0.000 C 
ATOM     10  O   UNL     1       1.528  11.081  19.239  0.00  0.00    +0.000 OA
ATOM     11  C   UNL     1      -0.273  12.351  20.296  0.00  0.00    +0.000 C 
ATOM     12 BR   UNL     1       0.112  13.479  21.877  0.00  0.00    +0.000 Br
ENDROOT
BRANCH   1  17
ATOM     13  C   UNL     1      -3.236  10.578  17.139  0.00  0.00    +0.000 A 
ATOM     14  C   UNL     1      -4.462  10.543  17.783  0.00  0.00    +0.000 A 
ATOM     15  C   UNL     1      -4.712  11.383  18.877  0.00  0.00    +0.000 A 
ATOM     16  C   UNL     1      -3.721  12.268  19.376  0.00  0.00    +0.000 A 
ATOM     17  C   UNL     1      -2.458  12.308  18.766  0.00  0.00    +0.000 A 
ATOM     18  C   UNL     1      -2.266  11.448  17.623  0.00  0.00    +0.000 A 
BRANCH  16  19
ATOM     19  N   UNL     1      -4.067  13.072  20.546  0.00  0.00    +0.000 N 
ATOM     20  O   UNL     1      -4.261  14.287  20.384  0.00  0.00    +0.000 OA
ATOM     21  O   UNL     1      -4.147  12.498  21.636  0.00  0.00    +0.000 OA
ENDBRANCH  16  19
BRANCH  13  23
ATOM     22  C   UNL     1      -3.014  10.271  14.779  0.00  0.00    +0.000 C 
ATOM     23  O   UNL     1      -3.089   9.715  16.090  0.00  0.00    +0.000 OA
ENDBRANCH  13  23
ENDBRANCH   1  17
BRANCH  11  24
ATOM     24  N   UNL     1      -0.790  11.112  20.940  0.00  0.00    +0.000 N 
ATOM     25  O   UNL     1      -1.169  11.194  22.120  0.00  0.00    +0.000 OA
ATOM     26  O   UNL     1      -0.678  10.037  20.337  0.00  0.00    +0.000 OA
ENDBRANCH  11  24
TORSDOF 4
ENDMDL
MODEL 8
REMARK VINA RESULT:      -5.9      9.703     11.845
REMARK  Name = 
REMARK  5 active torsions:
REMARK  status: ('A' for Active; 'I' for Inactive)
REMARK    1  A    between atoms: C_1  and  O_2
REMARK    2  A    between atoms: O_2  and  C_3
REMARK    3  A    between atoms: C_6  and  N_7
REMARK    4  A    between atoms: C_10  and  C_11
REMARK    5  A    between atoms: C_21  and  N_23
REMARK                            x       y       z     vdW  Elec       q    Type
REMARK                         _______ _______ _______ _____ _____    ______ ____
ROOT
ATOM      1  C   UNL     1       8.249  14.621  18.817  0.00  0.00    +0.000 C 
ATOM      2  O   UNL     1       8.729  13.607  17.866  0.00  0.00    +0.000 OA
ATOM      3  C   UNL     1       9.972  13.103  18.309  0.00  0.00    +0.000 A 
ATOM      4  C   UNL     1      10.669  12.162  17.572  0.00  0.00    +0.000 A 
ATOM      5  C   UNL     1      11.783  11.527  18.153  0.00  0.00    +0.000 A 
ATOM      6  C   UNL     1      12.124  11.759  19.491  0.00  0.00    +0.000 A 
ATOM      7  C   UNL     1      11.527  12.809  20.172  0.00  0.00    +0.000 A 
ATOM      8  C   UNL     1      10.580  13.564  19.498  0.00  0.00    +0.000 A 
ATOM      9  C   UNL     1      10.252  14.967  19.926  0.00  0.00    +0.000 C 
ATOM     10  O   UNL     1      10.580  15.327  21.047  0.00  0.00    +0.000 OA
ATOM     11  C   UNL     1       9.369  15.680  18.953  0.00  0.00    +0.000 C 
ATOM     12 BR   UNL     1      10.369  16.072  17.290  0.00  0.00    +0.000 Br
ENDROOT
BRANCH   1  17
ATOM     13  C   UNL     1       4.578  15.478  18.210  0.00  0.00    +0.000 A 
ATOM     14  C   UNL     1       3.998  15.419  19.468  0.00  0.00    +0.000 A 
ATOM     15  C   UNL     1       4.789  15.188  20.602  0.00  0.00    +0.000 A 
ATOM     16  C   UNL     1       6.190  14.980  20.502  0.00  0.00    +0.000 A 
ATOM     17  C   UNL     1       6.805  15.003  19.241  0.00  0.00    +0.000 A 
ATOM     18  C   UNL     1       5.950  15.279  18.111  0.00  0.00    +0.000 A 
BRANCH  16  19
ATOM     19  N   UNL     1       6.918  14.707  21.739  0.00  0.00    +0.000 N 
ATOM     20  O   UNL     1       7.484  13.608  21.853  0.00  0.00    +0.000 OA
ATOM     21  O   UNL     1       6.932  15.586  22.605  0.00  0.00    +0.000 OA
ENDBRANCH  16  19
BRANCH  13  23
ATOM     22  C   UNL     1       2.819  16.798  17.275  0.00  0.00    +0.000 C 
ATOM     23  O   UNL     1       3.721  15.699  17.170  0.00  0.00    +0.000 OA
ENDBRANCH  13  23
ENDBRANCH   1  17
BRANCH  11  24
ATOM     24  N   UNL     1       8.980  17.049  19.389  0.00  0.00    +0.000 N 
ATOM     25  O   UNL     1       8.908  17.263  20.610  0.00  0.00    +0.000 OA
ATOM     26  O   UNL     1       8.597  17.860  18.535  0.00  0.00    +0.000 OA
ENDBRANCH  11  24
TORSDOF 4
ENDMDL
MODEL 9
REMARK VINA RESULT:      -5.9      7.556      9.906
REMARK  Name = 
REMARK  5 active torsions:
REMARK  status: ('A' for Active; 'I' for Inactive)
REMARK    1  A    between atoms: C_1  and  O_2
REMARK    2  A    between atoms: O_2  and  C_3
REMARK    3  A    between atoms: C_6  and  N_7
REMARK    4  A    between atoms: C_10  and  C_11
REMARK    5  A    between atoms: C_21  and  N_23
REMARK                            x       y       z     vdW  Elec       q    Type
REMARK                         _______ _______ _______ _____ _____    ______ ____
ROOT
ATOM      1  C   UNL     1      -1.432  11.147  19.156  0.00  0.00    +0.000 C 
ATOM      2  O   UNL     1      -0.668   9.918  19.421  0.00  0.00    +0.000 OA
ATOM      3  C   UNL     1      -0.313   9.875  20.787  0.00  0.00    +0.000 A 
ATOM      4  C   UNL     1       0.452   8.841  21.298  0.00  0.00    +0.000 A 
ATOM      5  C   UNL     1       0.592   8.719  22.694  0.00  0.00    +0.000 A 
ATOM      6  C   UNL     1      -0.113   9.562  23.562  0.00  0.00    +0.000 A 
ATOM      7  C   UNL     1      -0.747  10.685  23.053  0.00  0.00    +0.000 A 
ATOM      8  C   UNL     1      -0.684  10.900  21.685  0.00  0.00    +0.000 A 
ATOM      9  C   UNL     1      -0.878  12.273  21.102  0.00  0.00    +0.000 C 
ATOM     10  O   UNL     1      -1.403  13.132  21.795  0.00  0.00    +0.000 OA
ATOM     11  C   UNL     1      -0.565  12.333  19.641  0.00  0.00    +0.000 C 
ATOM     12 BR   UNL     1       1.383  12.130  19.355  0.00  0.00    +0.000 Br
ENDROOT
BRANCH   1  17
ATOM     13  C   UNL     1      -3.135  11.031  15.741  0.00  0.00    +0.000 A 
ATOM     14  C   UNL     1      -4.441  11.417  15.994  0.00  0.00    +0.000 A 
ATOM     15  C   UNL     1      -4.822  11.828  17.280  0.00  0.00    +0.000 A 
ATOM     16  C   UNL     1      -3.902  11.837  18.360  0.00  0.00    +0.000 A 
ATOM     17  C   UNL     1      -2.578  11.423  18.146  0.00  0.00    +0.000 A 
ATOM     18  C   UNL     1      -2.231  11.043  16.797  0.00  0.00    +0.000 A 
BRANCH  16  19
ATOM     19  N   UNL     1      -4.407  12.243  19.669  0.00  0.00    +0.000 N 
ATOM     20  O   UNL     1      -5.191  11.481  20.256  0.00  0.00    +0.000 OA
ATOM     21  O   UNL     1      -4.024  13.326  20.123  0.00  0.00    +0.000 OA
ENDBRANCH  16  19
BRANCH  13  23
ATOM     22  C   UNL     1      -3.899   9.965  13.743  0.00  0.00    +0.000 C 
ATOM     23  O   UNL     1      -2.867  10.640  14.460  0.00  0.00    +0.000 OA
ENDBRANCH  13  23
ENDBRANCH   1  17
BRANCH  11  24
ATOM     24  N   UNL     1      -0.813  13.668  19.031  0.00  0.00    +0.000 N 
ATOM     25  O   UNL     1      -0.400  13.856  17.876  0.00  0.00    +0.000 OA
ATOM     26  O   UNL     1      -1.272  14.572  19.743  0.00  0.00    +0.000 OA
ENDBRANCH  11  24
TORSDOF 4
ENDMDL
