MODEL 1
REMARK VINA RESULT:      -9.6      0.000      0.000
REMARK  Name = 
REMARK  6 active torsions:
REMARK  status: ('A' for Active; 'I' for Inactive)
REMARK    1  A    between atoms: C_1  and  C_2
REMARK    2  A    between atoms: C_5  and  S_6
REMARK    3  A    between atoms: S_6  and  N_9
REMARK    4  A    between atoms: C_15  and  C_16
REMARK    5  A    between atoms: C_19  and  C_20
REMARK    6  A    between atoms: C_21  and  C_22
REMARK                            x       y       z     vdW  Elec       q    Type
REMARK                         _______ _______ _______ _____ _____    ______ ____
ROOT
ATOM      1  N   UNL     1       8.006   6.564  18.427  0.00  0.00    +0.000 NA
ATOM      2  C   UNL     1       8.015   7.820  18.097  0.00  0.00    +0.000 C 
ATOM      3  N   UNL     1       7.483   8.408  17.010  0.00  0.00    +0.000 N 
ATOM      4  N   UNL     1       8.662   8.660  18.945  0.00  0.00    +0.000 N 
ATOM      5  C   UNL     1       9.054   9.988  18.931  0.00  0.00    +0.000 A 
ATOM      6  N   UNL     1       9.923  10.235  19.915  0.00  0.00    +0.000 NA
ATOM      7  C   UNL     1      10.322  11.501  20.045  0.00  0.00    +0.000 A 
ATOM      8  C   UNL     1      11.739  11.688  19.482  0.00  0.00    +0.000 C 
ATOM      9  C   UNL     1       9.435  12.497  19.684  0.00  0.00    +0.000 A 
ATOM     10  C   UNL     1       9.096  13.609  20.478  0.00  0.00    +0.000 A 
ATOM     11  C   UNL     1       8.381  14.658  19.916  0.00  0.00    +0.000 A 
ATOM     12  C   UNL     1       7.710  15.681  20.787  0.00  0.00    +0.000 C 
ATOM     13  C   UNL     1       8.319  14.700  18.521  0.00  0.00    +0.000 A 
ATOM     14  C   UNL     1       8.210  16.030  17.817  0.00  0.00    +0.000 C 
ATOM     15  C   UNL     1       8.479  13.478  17.813  0.00  0.00    +0.000 A 
ATOM     16  C   UNL     1       8.832  12.272  18.467  0.00  0.00    +0.000 A 
ATOM     17  N   UNL     1       8.668  10.961  18.057  0.00  0.00    +0.000 NA
ATOM     18  H   UNL     1       7.349   7.786  16.211  0.00  0.00    +0.000 HD
ATOM     19  H   UNL     1       7.891   9.303  16.753  0.00  0.00    +0.000 HD
ATOM     20  H   UNL     1       9.116   8.208  19.734  0.00  0.00    +0.000 HD
ENDROOT
BRANCH   1  21
ATOM     21  S   UNL     1       7.461   5.385  17.458  0.00  0.00    +0.000 S 
ATOM     22  O   UNL     1       8.191   4.175  17.783  0.00  0.00    +0.000 OA
ATOM     23  O   UNL     1       7.417   5.855  16.082  0.00  0.00    +0.000 OA
BRANCH  21  28
ATOM     24  C   UNL     1       1.653   4.119  18.766  0.00  0.00    +0.000 C 
ATOM     25  C   UNL     1       3.092   4.431  18.469  0.00  0.00    +0.000 A 
ATOM     26  C   UNL     1       3.902   5.068  19.421  0.00  0.00    +0.000 A 
ATOM     27  C   UNL     1       5.241   5.368  19.140  0.00  0.00    +0.000 A 
ATOM     28  C   UNL     1       5.768   5.032  17.895  0.00  0.00    +0.000 A 
ATOM     29  C   UNL     1       4.968   4.395  16.935  0.00  0.00    +0.000 A 
ATOM     30  C   UNL     1       3.636   4.096  17.223  0.00  0.00    +0.000 A 
ENDBRANCH  21  28
ENDBRANCH   1  21
TORSDOF 2
ENDMDL
MODEL 2
REMARK VINA RESULT:      -9.4      6.915      9.754
REMARK  Name = 
REMARK  6 active torsions:
REMARK  status: ('A' for Active; 'I' for Inactive)
REMARK    1  A    between atoms: C_1  and  C_2
REMARK    2  A    between atoms: C_5  and  S_6
REMARK    3  A    between atoms: S_6  and  N_9
REMARK    4  A    between atoms: C_15  and  C_16
REMARK    5  A    between atoms: C_19  and  C_20
REMARK    6  A    between atoms: C_21  and  C_22
REMARK                            x       y       z     vdW  Elec       q    Type
REMARK                         _______ _______ _______ _____ _____    ______ ____
ROOT
ATOM      1  N   UNL     1       0.484  10.267  19.937  0.00  0.00    +0.000 NA
ATOM      2  C   UNL     1       1.263   9.661  19.093  0.00  0.00    +0.000 C 
ATOM      3  N   UNL     1       1.670  10.074  17.878  0.00  0.00    +0.000 N 
ATOM      4  N   UNL     1       1.720   8.438  19.466  0.00  0.00    +0.000 N 
ATOM      5  C   UNL     1       2.410   7.401  18.860  0.00  0.00    +0.000 A 
ATOM      6  N   UNL     1       2.349   6.295  19.607  0.00  0.00    +0.000 NA
ATOM      7  C   UNL     1       3.036   5.243  19.157  0.00  0.00    +0.000 A 
ATOM      8  C   UNL     1       2.096   4.209  18.519  0.00  0.00    +0.000 C 
ATOM      9  C   UNL     1       4.185   5.486  18.431  0.00  0.00    +0.000 A 
ATOM     10  C   UNL     1       5.439   4.893  18.673  0.00  0.00    +0.000 A 
ATOM     11  C   UNL     1       6.454   5.034  17.736  0.00  0.00    +0.000 A 
ATOM     12  C   UNL     1       7.879   4.725  18.097  0.00  0.00    +0.000 C 
ATOM     13  C   UNL     1       6.079   5.477  16.465  0.00  0.00    +0.000 A 
ATOM     14  C   UNL     1       6.866   5.034  15.256  0.00  0.00    +0.000 C 
ATOM     15  C   UNL     1       4.888   6.245  16.356  0.00  0.00    +0.000 A 
ATOM     16  C   UNL     1       4.019   6.444  17.456  0.00  0.00    +0.000 A 
ATOM     17  N   UNL     1       3.064   7.422  17.665  0.00  0.00    +0.000 NA
ATOM     18  H   UNL     1       1.059  10.763  17.436  0.00  0.00    +0.000 HD
ATOM     19  H   UNL     1       1.964   9.338  17.243  0.00  0.00    +0.000 HD
ATOM     20  H   UNL     1       1.364   8.101  20.356  0.00  0.00    +0.000 HD
ENDROOT
BRANCH   1  21
ATOM     21  S   UNL     1      -0.316  11.634  19.599  0.00  0.00    +0.000 S 
ATOM     22  O   UNL     1      -1.147  11.383  18.438  0.00  0.00    +0.000 OA
ATOM     23  O   UNL     1       0.605  12.760  19.599  0.00  0.00    +0.000 OA
BRANCH  21  28
ATOM     24  C   UNL     1      -4.125  12.633  24.241  0.00  0.00    +0.000 C 
ATOM     25  C   UNL     1      -3.195  12.407  23.083  0.00  0.00    +0.000 A 
ATOM     26  C   UNL     1      -3.516  12.875  21.800  0.00  0.00    +0.000 A 
ATOM     27  C   UNL     1      -2.653  12.656  20.719  0.00  0.00    +0.000 A 
ATOM     28  C   UNL     1      -1.464  11.960  20.925  0.00  0.00    +0.000 A 
ATOM     29  C   UNL     1      -1.132  11.488  22.203  0.00  0.00    +0.000 A 
ATOM     30  C   UNL     1      -1.995  11.712  23.277  0.00  0.00    +0.000 A 
ENDBRANCH  21  28
ENDBRANCH   1  21
TORSDOF 2
ENDMDL
MODEL 3
REMARK VINA RESULT:      -9.1      7.096      9.833
REMARK  Name = 
REMARK  6 active torsions:
REMARK  status: ('A' for Active; 'I' for Inactive)
REMARK    1  A    between atoms: C_1  and  C_2
REMARK    2  A    between atoms: C_5  and  S_6
REMARK    3  A    between atoms: S_6  and  N_9
REMARK    4  A    between atoms: C_15  and  C_16
REMARK    5  A    between atoms: C_19  and  C_20
REMARK    6  A    between atoms: C_21  and  C_22
REMARK                            x       y       z     vdW  Elec       q    Type
REMARK                         _______ _______ _______ _____ _____    ______ ____
ROOT
ATOM      1  N   UNL     1       0.220  10.461  20.020  0.00  0.00    +0.000 NA
ATOM      2  C   UNL     1       1.021   9.848  19.203  0.00  0.00    +0.000 C 
ATOM      3  N   UNL     1       1.414  10.221  17.970  0.00  0.00    +0.000 N 
ATOM      4  N   UNL     1       1.521   8.660  19.629  0.00  0.00    +0.000 N 
ATOM      5  C   UNL     1       2.248   7.622  19.068  0.00  0.00    +0.000 A 
ATOM      6  N   UNL     1       2.226   6.548  19.862  0.00  0.00    +0.000 NA
ATOM      7  C   UNL     1       2.951   5.503  19.459  0.00  0.00    +0.000 A 
ATOM      8  C   UNL     1       2.049   4.409  18.867  0.00  0.00    +0.000 C 
ATOM      9  C   UNL     1       4.092   5.756  18.722  0.00  0.00    +0.000 A 
ATOM     10  C   UNL     1       5.366   5.219  18.989  0.00  0.00    +0.000 A 
ATOM     11  C   UNL     1       6.376   5.355  18.045  0.00  0.00    +0.000 A 
ATOM     12  C   UNL     1       7.810   5.113  18.419  0.00  0.00    +0.000 C 
ATOM     13  C   UNL     1       5.986   5.728  16.757  0.00  0.00    +0.000 A 
ATOM     14  C   UNL     1       6.790   5.262  15.568  0.00  0.00    +0.000 C 
ATOM     15  C   UNL     1       4.769   6.447  16.615  0.00  0.00    +0.000 A 
ATOM     16  C   UNL     1       3.892   6.663  17.706  0.00  0.00    +0.000 A 
ATOM     17  N   UNL     1       2.902   7.615  17.872  0.00  0.00    +0.000 NA
ATOM     18  H   UNL     1       0.779  10.868  17.499  0.00  0.00    +0.000 HD
ATOM     19  H   UNL     1       1.735   9.469  17.368  0.00  0.00    +0.000 HD
ATOM     20  H   UNL     1       1.177   8.349  20.533  0.00  0.00    +0.000 HD
ENDROOT
BRANCH   1  21
ATOM     21  S   UNL     1      -0.628  11.783  19.623  0.00  0.00    +0.000 S 
ATOM     22  O   UNL     1      -1.444  11.454  18.470  0.00  0.00    +0.000 OA
ATOM     23  O   UNL     1       0.250  12.942  19.579  0.00  0.00    +0.000 OA
BRANCH  21  28
ATOM     24  C   UNL     1      -4.722  13.021  23.954  0.00  0.00    +0.000 C 
ATOM     25  C   UNL     1      -3.702  12.697  22.901  0.00  0.00    +0.000 A 
ATOM     26  C   UNL     1      -2.469  12.123  23.245  0.00  0.00    +0.000 A 
ATOM     27  C   UNL     1      -1.513  11.831  22.264  0.00  0.00    +0.000 A 
ATOM     28  C   UNL     1      -1.794  12.120  20.930  0.00  0.00    +0.000 A 
ATOM     29  C   UNL     1      -3.024  12.693  20.573  0.00  0.00    +0.000 A 
ATOM     30  C   UNL     1      -3.972  12.980  21.556  0.00  0.00    +0.000 A 
ENDBRANCH  21  28
ENDBRANCH   1  21
TORSDOF 2
ENDMDL
MODEL 4
REMARK VINA RESULT:      -8.9      6.817      9.515
REMARK  Name = 
REMARK  6 active torsions:
REMARK  status: ('A' for Active; 'I' for Inactive)
REMARK    1  A    between atoms: C_1  and  C_2
REMARK    2  A    between atoms: C_5  and  S_6
REMARK    3  A    between atoms: S_6  and  N_9
REMARK    4  A    between atoms: C_15  and  C_16
REMARK    5  A    between atoms: C_19  and  C_20
REMARK    6  A    between atoms: C_21  and  C_22
REMARK                            x       y       z     vdW  Elec       q    Type
REMARK                         _______ _______ _______ _____ _____    ______ ____
ROOT
ATOM      1  N   UNL     1       0.700  10.343  19.868  0.00  0.00    +0.000 NA
ATOM      2  C   UNL     1       1.477   9.762  19.005  0.00  0.00    +0.000 C 
ATOM      3  N   UNL     1       1.969  10.252  17.852  0.00  0.00    +0.000 N 
ATOM      4  N   UNL     1       1.834   8.482  19.282  0.00  0.00    +0.000 N 
ATOM      5  C   UNL     1       2.482   7.457  18.612  0.00  0.00    +0.000 A 
ATOM      6  N   UNL     1       2.312   6.295  19.250  0.00  0.00    +0.000 NA
ATOM      7  C   UNL     1       2.949   5.242  18.734  0.00  0.00    +0.000 A 
ATOM      8  C   UNL     1       1.975   4.339  17.963  0.00  0.00    +0.000 C 
ATOM      9  C   UNL     1       4.147   5.469  18.083  0.00  0.00    +0.000 A 
ATOM     10  C   UNL     1       5.345   4.770  18.323  0.00  0.00    +0.000 A 
ATOM     11  C   UNL     1       6.411   4.922  17.446  0.00  0.00    +0.000 A 
ATOM     12  C   UNL     1       7.793   4.483  17.838  0.00  0.00    +0.000 C 
ATOM     13  C   UNL     1       6.129   5.503  16.208  0.00  0.00    +0.000 A 
ATOM     14  C   UNL     1       6.943   5.116  14.998  0.00  0.00    +0.000 C 
ATOM     15  C   UNL     1       4.998   6.359  16.119  0.00  0.00    +0.000 A 
ATOM     16  C   UNL     1       4.092   6.519  17.195  0.00  0.00    +0.000 A 
ATOM     17  N   UNL     1       3.194   7.540  17.453  0.00  0.00    +0.000 NA
ATOM     18  H   UNL     1       1.427  11.019  17.450  0.00  0.00    +0.000 HD
ATOM     19  H   UNL     1       2.245   9.557  17.164  0.00  0.00    +0.000 HD
ATOM     20  H   UNL     1       1.413   8.092  20.121  0.00  0.00    +0.000 HD
ENDROOT
BRANCH   1  21
ATOM     21  S   UNL     1       0.009  11.788  19.624  0.00  0.00    +0.000 S 
ATOM     22  O   UNL     1       0.695  12.423  18.516  0.00  0.00    +0.000 OA
ATOM     23  O   UNL     1      -0.126  12.493  20.889  0.00  0.00    +0.000 OA
BRANCH  21  28
ATOM     24  C   UNL     1      -5.742  11.018  17.784  0.00  0.00    +0.000 C 
ATOM     25  C   UNL     1      -4.315  11.199  18.215  0.00  0.00    +0.000 A 
ATOM     26  C   UNL     1      -3.286  10.437  17.640  0.00  0.00    +0.000 A 
ATOM     27  C   UNL     1      -1.957  10.599  18.049  0.00  0.00    +0.000 A 
ATOM     28  C   UNL     1      -1.658  11.527  19.044  0.00  0.00    +0.000 A 
ATOM     29  C   UNL     1      -2.676  12.296  19.626  0.00  0.00    +0.000 A 
ATOM     30  C   UNL     1      -3.999  12.131  19.211  0.00  0.00    +0.000 A 
ENDBRANCH  21  28
ENDBRANCH   1  21
TORSDOF 2
ENDMDL
MODEL 5
REMARK VINA RESULT:      -8.9      7.222     10.738
REMARK  Name = 
REMARK  6 active torsions:
REMARK  status: ('A' for Active; 'I' for Inactive)
REMARK    1  A    between atoms: C_1  and  C_2
REMARK    2  A    between atoms: C_5  and  S_6
REMARK    3  A    between atoms: S_6  and  N_9
REMARK    4  A    between atoms: C_15  and  C_16
REMARK    5  A    between atoms: C_19  and  C_20
REMARK    6  A    between atoms: C_21  and  C_22
REMARK                            x       y       z     vdW  Elec       q    Type
REMARK                         _______ _______ _______ _____ _____    ______ ____
ROOT
ATOM      1  N   UNL     1       0.784  11.668  19.246  0.00  0.00    +0.000 NA
ATOM      2  C   UNL     1       1.031  10.509  19.777  0.00  0.00    +0.000 C 
ATOM      3  N   UNL     1       0.954  10.142  21.070  0.00  0.00    +0.000 N 
ATOM      4  N   UNL     1       1.439   9.532  18.927  0.00  0.00    +0.000 N 
ATOM      5  C   UNL     1       1.947   8.249  19.049  0.00  0.00    +0.000 A 
ATOM      6  N   UNL     1       2.458   7.832  17.887  0.00  0.00    +0.000 NA
ATOM      7  C   UNL     1       2.918   6.580  17.862  0.00  0.00    +0.000 A 
ATOM      8  C   UNL     1       4.453   6.560  17.921  0.00  0.00    +0.000 C 
ATOM      9  C   UNL     1       2.308   5.653  18.685  0.00  0.00    +0.000 A 
ATOM     10  C   UNL     1       1.839   4.390  18.277  0.00  0.00    +0.000 A 
ATOM     11  C   UNL     1       1.464   3.458  19.235  0.00  0.00    +0.000 A 
ATOM     12  C   UNL     1       0.648   2.255  18.856  0.00  0.00    +0.000 C 
ATOM     13  C   UNL     1       1.876   3.705  20.547  0.00  0.00    +0.000 A 
ATOM     14  C   UNL     1       2.144   2.547  21.477  0.00  0.00    +0.000 C 
ATOM     15  C   UNL     1       2.137   5.052  20.918  0.00  0.00    +0.000 A 
ATOM     16  C   UNL     1       2.126   6.106  19.972  0.00  0.00    +0.000 A 
ATOM     17  N   UNL     1       1.976   7.467  20.165  0.00  0.00    +0.000 NA
ATOM     18  H   UNL     1       1.032  10.913  21.736  0.00  0.00    +0.000 HD
ATOM     19  H   UNL     1       1.513   9.335  21.328  0.00  0.00    +0.000 HD
ATOM     20  H   UNL     1       1.555   9.825  17.961  0.00  0.00    +0.000 HD
ENDROOT
BRANCH   1  21
ATOM     21  S   UNL     1       0.477  13.004  20.109  0.00  0.00    +0.000 S 
ATOM     22  O   UNL     1       0.486  14.130  19.196  0.00  0.00    +0.000 OA
ATOM     23  O   UNL     1       1.315  13.030  21.297  0.00  0.00    +0.000 OA
BRANCH  21  28
ATOM     24  C   UNL     1      -5.308  12.694  21.980  0.00  0.00    +0.000 C 
ATOM     25  C   UNL     1      -3.873  12.763  21.542  0.00  0.00    +0.000 A 
ATOM     26  C   UNL     1      -2.842  12.949  22.476  0.00  0.00    +0.000 A 
ATOM     27  C   UNL     1      -1.505  13.023  22.067  0.00  0.00    +0.000 A 
ATOM     28  C   UNL     1      -1.200  12.914  20.712  0.00  0.00    +0.000 A 
ATOM     29  C   UNL     1      -2.221  12.726  19.768  0.00  0.00    +0.000 A 
ATOM     30  C   UNL     1      -3.551  12.651  20.184  0.00  0.00    +0.000 A 
ENDBRANCH  21  28
ENDBRANCH   1  21
TORSDOF 2
ENDMDL
MODEL 6
REMARK VINA RESULT:      -8.8      6.670     11.040
REMARK  Name = 
REMARK  6 active torsions:
REMARK  status: ('A' for Active; 'I' for Inactive)
REMARK    1  A    between atoms: C_1  and  C_2
REMARK    2  A    between atoms: C_5  and  S_6
REMARK    3  A    between atoms: S_6  and  N_9
REMARK    4  A    between atoms: C_15  and  C_16
REMARK    5  A    between atoms: C_19  and  C_20
REMARK    6  A    between atoms: C_21  and  C_22
REMARK                            x       y       z     vdW  Elec       q    Type
REMARK                         _______ _______ _______ _____ _____    ______ ____
ROOT
ATOM      1  N   UNL     1       0.516  11.768  19.533  0.00  0.00    +0.000 NA
ATOM      2  C   UNL     1       0.827  10.599  20.004  0.00  0.00    +0.000 C 
ATOM      3  N   UNL     1       0.808  10.174  21.281  0.00  0.00    +0.000 N 
ATOM      4  N   UNL     1       1.248   9.679  19.099  0.00  0.00    +0.000 N 
ATOM      5  C   UNL     1       1.811   8.414  19.148  0.00  0.00    +0.000 A 
ATOM      6  N   UNL     1       2.302   8.070  17.953  0.00  0.00    +0.000 NA
ATOM      7  C   UNL     1       2.811   6.840  17.859  0.00  0.00    +0.000 A 
ATOM      8  C   UNL     1       4.347   6.884  17.870  0.00  0.00    +0.000 C 
ATOM      9  C   UNL     1       2.267   5.854  18.658  0.00  0.00    +0.000 A 
ATOM     10  C   UNL     1       1.838   4.591  18.208  0.00  0.00    +0.000 A 
ATOM     11  C   UNL     1       1.532   3.603  19.135  0.00  0.00    +0.000 A 
ATOM     12  C   UNL     1       0.755   2.384  18.727  0.00  0.00    +0.000 C 
ATOM     13  C   UNL     1       1.976   3.810  20.443  0.00  0.00    +0.000 A 
ATOM     14  C   UNL     1       2.321   2.626  21.312  0.00  0.00    +0.000 C 
ATOM     15  C   UNL     1       2.193   5.149  20.865  0.00  0.00    +0.000 A 
ATOM     16  C   UNL     1       2.109   6.242  19.968  0.00  0.00    +0.000 A 
ATOM     17  N   UNL     1       1.909   7.586  20.227  0.00  0.00    +0.000 NA
ATOM     18  H   UNL     1       0.876  10.917  21.978  0.00  0.00    +0.000 HD
ATOM     19  H   UNL     1       1.408   9.380  21.486  0.00  0.00    +0.000 HD
ATOM     20  H   UNL     1       1.321  10.018  18.144  0.00  0.00    +0.000 HD
ENDROOT
BRANCH   1  21
ATOM     21  S   UNL     1       0.182  13.052  20.464  0.00  0.00    +0.000 S 
ATOM     22  O   UNL     1       1.144  13.071  21.549  0.00  0.00    +0.000 OA
ATOM     23  O   UNL     1      -1.241  13.093  20.761  0.00  0.00    +0.000 OA
BRANCH  21  28
ATOM     24  C   UNL     1       1.130  18.140  17.260  0.00  0.00    +0.000 C 
ATOM     25  C   UNL     1       0.921  16.884  18.058  0.00  0.00    +0.000 A 
ATOM     26  C   UNL     1       1.991  16.019  18.332  0.00  0.00    +0.000 A 
ATOM     27  C   UNL     1       1.794  14.843  19.068  0.00  0.00    +0.000 A 
ATOM     28  C   UNL     1       0.516  14.532  19.526  0.00  0.00    +0.000 A 
ATOM     29  C   UNL     1      -0.561  15.390  19.260  0.00  0.00    +0.000 A 
ATOM     30  C   UNL     1      -0.357  16.561  18.528  0.00  0.00    +0.000 A 
ENDBRANCH  21  28
ENDBRANCH   1  21
TORSDOF 2
ENDMDL
MODEL 7
REMARK VINA RESULT:      -8.7      2.565      9.264
REMARK  Name = 
REMARK  6 active torsions:
REMARK  status: ('A' for Active; 'I' for Inactive)
REMARK    1  A    between atoms: C_1  and  C_2
REMARK    2  A    between atoms: C_5  and  S_6
REMARK    3  A    between atoms: S_6  and  N_9
REMARK    4  A    between atoms: C_15  and  C_16
REMARK    5  A    between atoms: C_19  and  C_20
REMARK    6  A    between atoms: C_21  and  C_22
REMARK                            x       y       z     vdW  Elec       q    Type
REMARK                         _______ _______ _______ _____ _____    ______ ____
ROOT
ATOM      1  N   UNL     1       8.626  10.331  17.714  0.00  0.00    +0.000 NA
ATOM      2  C   UNL     1       8.257   9.158  18.130  0.00  0.00    +0.000 C 
ATOM      3  N   UNL     1       8.681   8.476  19.211  0.00  0.00    +0.000 N 
ATOM      4  N   UNL     1       7.333   8.513  17.372  0.00  0.00    +0.000 N 
ATOM      5  C   UNL     1       6.785   7.242  17.331  0.00  0.00    +0.000 A 
ATOM      6  N   UNL     1       6.118   7.052  16.188  0.00  0.00    +0.000 NA
ATOM      7  C   UNL     1       5.486   5.884  16.062  0.00  0.00    +0.000 A 
ATOM      8  C   UNL     1       6.264   4.940  15.131  0.00  0.00    +0.000 C 
ATOM      9  C   UNL     1       5.012   5.280  17.211  0.00  0.00    +0.000 A 
ATOM     10  C   UNL     1       3.704   4.791  17.388  0.00  0.00    +0.000 A 
ATOM     11  C   UNL     1       3.416   3.997  18.491  0.00  0.00    +0.000 A 
ATOM     12  C   UNL     1       1.993   3.745  18.902  0.00  0.00    +0.000 C 
ATOM     13  C   UNL     1       4.505   3.463  19.183  0.00  0.00    +0.000 A 
ATOM     14  C   UNL     1       4.367   2.136  19.887  0.00  0.00    +0.000 C 
ATOM     15  C   UNL     1       5.746   4.151  19.097  0.00  0.00    +0.000 A 
ATOM     16  C   UNL     1       5.934   5.256  18.232  0.00  0.00    +0.000 A 
ATOM     17  N   UNL     1       6.884   6.261  18.272  0.00  0.00    +0.000 NA
ATOM     18  H   UNL     1       9.605   8.749  19.550  0.00  0.00    +0.000 HD
ATOM     19  H   UNL     1       8.554   7.469  19.169  0.00  0.00    +0.000 HD
ATOM     20  H   UNL     1       7.058   9.001  16.524  0.00  0.00    +0.000 HD
ENDROOT
BRANCH   1  21
ATOM     21  S   UNL     1       9.849  11.170  18.364  0.00  0.00    +0.000 S 
ATOM     22  O   UNL     1      10.955  11.135  17.427  0.00  0.00    +0.000 OA
ATOM     23  O   UNL     1      10.058  10.757  19.743  0.00  0.00    +0.000 OA
BRANCH  21  28
ATOM     24  C   UNL     1       8.082  16.993  18.529  0.00  0.00    +0.000 C 
ATOM     25  C   UNL     1       8.531  15.560  18.510  0.00  0.00    +0.000 A 
ATOM     26  C   UNL     1       9.701  15.163  19.176  0.00  0.00    +0.000 A 
ATOM     27  C   UNL     1      10.125  13.829  19.150  0.00  0.00    +0.000 A 
ATOM     28  C   UNL     1       9.373  12.888  18.449  0.00  0.00    +0.000 A 
ATOM     29  C   UNL     1       8.202  13.272  17.781  0.00  0.00    +0.000 A 
ATOM     30  C   UNL     1       7.784  14.603  17.813  0.00  0.00    +0.000 A 
ENDBRANCH  21  28
ENDBRANCH   1  21
TORSDOF 2
ENDMDL
MODEL 8
REMARK VINA RESULT:      -8.6      6.819      9.846
REMARK  Name = 
REMARK  6 active torsions:
REMARK  status: ('A' for Active; 'I' for Inactive)
REMARK    1  A    between atoms: C_1  and  C_2
REMARK    2  A    between atoms: C_5  and  S_6
REMARK    3  A    between atoms: S_6  and  N_9
REMARK    4  A    between atoms: C_15  and  C_16
REMARK    5  A    between atoms: C_19  and  C_20
REMARK    6  A    between atoms: C_21  and  C_22
REMARK                            x       y       z     vdW  Elec       q    Type
REMARK                         _______ _______ _______ _____ _____    ______ ____
ROOT
ATOM      1  N   UNL     1       0.395  10.331  19.950  0.00  0.00    +0.000 NA
ATOM      2  C   UNL     1       1.175   9.705  19.122  0.00  0.00    +0.000 C 
ATOM      3  N   UNL     1       1.562  10.076  17.887  0.00  0.00    +0.000 N 
ATOM      4  N   UNL     1       1.658   8.507  19.539  0.00  0.00    +0.000 N 
ATOM      5  C   UNL     1       2.360   7.458  18.967  0.00  0.00    +0.000 A 
ATOM      6  N   UNL     1       2.327   6.382  19.758  0.00  0.00    +0.000 NA
ATOM      7  C   UNL     1       3.028   5.325  19.343  0.00  0.00    +0.000 A 
ATOM      8  C   UNL     1       2.100   4.250  18.757  0.00  0.00    +0.000 C 
ATOM      9  C   UNL     1       4.165   5.559  18.595  0.00  0.00    +0.000 A 
ATOM     10  C   UNL     1       5.432   4.998  18.847  0.00  0.00    +0.000 A 
ATOM     11  C   UNL     1       6.434   5.119  17.894  0.00  0.00    +0.000 A 
ATOM     12  C   UNL     1       7.868   4.850  18.252  0.00  0.00    +0.000 C 
ATOM     13  C   UNL     1       6.039   5.505  16.611  0.00  0.00    +0.000 A 
ATOM     14  C   UNL     1       6.821   5.028  15.412  0.00  0.00    +0.000 C 
ATOM     15  C   UNL     1       4.833   6.246  16.483  0.00  0.00    +0.000 A 
ATOM     16  C   UNL     1       3.972   6.474  17.585  0.00  0.00    +0.000 A 
ATOM     17  N   UNL     1       3.002   7.443  17.764  0.00  0.00    +0.000 NA
ATOM     18  H   UNL     1       0.935  10.736  17.424  0.00  0.00    +0.000 HD
ATOM     19  H   UNL     1       1.864   9.320  17.279  0.00  0.00    +0.000 HD
ATOM     20  H   UNL     1       1.318   8.199  20.445  0.00  0.00    +0.000 HD
ENDROOT
BRANCH   1  21
ATOM     21  S   UNL     1      -0.433  11.670  19.566  0.00  0.00    +0.000 S 
ATOM     22  O   UNL     1      -1.738  11.259  19.087  0.00  0.00    +0.000 OA
ATOM     23  O   UNL     1       0.392  12.547  18.751  0.00  0.00    +0.000 OA
BRANCH  21  28
ATOM     24  C   UNL     1      -1.399  14.898  24.636  0.00  0.00    +0.000 C 
ATOM     25  C   UNL     1      -1.184  14.091  23.387  0.00  0.00    +0.000 A 
ATOM     26  C   UNL     1      -1.911  12.913  23.157  0.00  0.00    +0.000 A 
ATOM     27  C   UNL     1      -1.704  12.156  21.997  0.00  0.00    +0.000 A 
ATOM     28  C   UNL     1      -0.760  12.581  21.065  0.00  0.00    +0.000 A 
ATOM     29  C   UNL     1      -0.028  13.757  21.282  0.00  0.00    +0.000 A 
ATOM     30  C   UNL     1      -0.242  14.508  22.439  0.00  0.00    +0.000 A 
ENDBRANCH  21  28
ENDBRANCH   1  21
TORSDOF 2
ENDMDL
MODEL 9
REMARK VINA RESULT:      -8.6      6.396      7.943
REMARK  Name = 
REMARK  6 active torsions:
REMARK  status: ('A' for Active; 'I' for Inactive)
REMARK    1  A    between atoms: C_1  and  C_2
REMARK    2  A    between atoms: C_5  and  S_6
REMARK    3  A    between atoms: S_6  and  N_9
REMARK    4  A    between atoms: C_15  and  C_16
REMARK    5  A    between atoms: C_19  and  C_20
REMARK    6  A    between atoms: C_21  and  C_22
REMARK                            x       y       z     vdW  Elec       q    Type
REMARK                         _______ _______ _______ _____ _____    ______ ____
ROOT
ATOM      1  N   UNL     1       3.004   7.054  18.427  0.00  0.00    +0.000 NA
ATOM      2  C   UNL     1       2.229   7.649  19.282  0.00  0.00    +0.000 C 
ATOM      3  N   UNL     1       1.852   7.235  20.507  0.00  0.00    +0.000 N 
ATOM      4  N   UNL     1       1.709   8.842  18.895  0.00  0.00    +0.000 N 
ATOM      5  C   UNL     1       0.754   9.720  19.379  0.00  0.00    +0.000 A 
ATOM      6  N   UNL     1       0.421  10.617  18.445  0.00  0.00    +0.000 NA
ATOM      7  C   UNL     1      -0.445  11.561  18.818  0.00  0.00    +0.000 A 
ATOM      8  C   UNL     1      -1.846  11.268  18.260  0.00  0.00    +0.000 C 
ATOM      9  C   UNL     1      -0.435  11.959  20.141  0.00  0.00    +0.000 A 
ATOM     10  C   UNL     1      -0.377  13.293  20.586  0.00  0.00    +0.000 A 
ATOM     11  C   UNL     1      -0.612  13.577  21.925  0.00  0.00    +0.000 A 
ATOM     12  C   UNL     1      -0.228  14.909  22.504  0.00  0.00    +0.000 C 
ATOM     13  C   UNL     1      -1.208  12.569  22.687  0.00  0.00    +0.000 A 
ATOM     14  C   UNL     1      -2.097  12.936  23.849  0.00  0.00    +0.000 C 
ATOM     15  C   UNL     1      -1.038  11.225  22.256  0.00  0.00    +0.000 A 
ATOM     16  C   UNL     1      -0.415  10.904  21.025  0.00  0.00    +0.000 A 
ATOM     17  N   UNL     1       0.172   9.722  20.612  0.00  0.00    +0.000 NA
ATOM     18  H   UNL     1       1.904   6.225  20.649  0.00  0.00    +0.000 HD
ATOM     19  H   UNL     1       0.992   7.643  20.860  0.00  0.00    +0.000 HD
ATOM     20  H   UNL     1       1.945   9.125  17.948  0.00  0.00    +0.000 HD
ENDROOT
BRANCH   1  21
ATOM     21  S   UNL     1       3.561   5.545  18.619  0.00  0.00    +0.000 S 
ATOM     22  O   UNL     1       2.418   4.653  18.650  0.00  0.00    +0.000 OA
ATOM     23  O   UNL     1       4.535   5.509  19.698  0.00  0.00    +0.000 OA
BRANCH  21  28
ATOM     24  C   UNL     1       6.627   4.159  13.546  0.00  0.00    +0.000 C 
ATOM     25  C   UNL     1       5.879   4.480  14.809  0.00  0.00    +0.000 A 
ATOM     26  C   UNL     1       5.485   3.461  15.690  0.00  0.00    +0.000 A 
ATOM     27  C   UNL     1       4.779   3.758  16.862  0.00  0.00    +0.000 A 
ATOM     28  C   UNL     1       4.463   5.085  17.150  0.00  0.00    +0.000 A 
ATOM     29  C   UNL     1       4.853   6.111  16.278  0.00  0.00    +0.000 A 
ATOM     30  C   UNL     1       5.558   5.808  15.112  0.00  0.00    +0.000 A 
ENDBRANCH  21  28
ENDBRANCH   1  21
TORSDOF 2
ENDMDL
