MODEL 1
REMARK VINA RESULT:      -6.9      0.000      0.000
REMARK  Name = 
REMARK  4 active torsions:
REMARK  status: ('A' for Active; 'I' for Inactive)
REMARK    1  A    between atoms: C_1  and  O_2
REMARK    2  A    between atoms: O_2  and  C_3
REMARK    3  A    between atoms: C_8  and  N_9
REMARK    4  A    between atoms: C_14  and  C_15
REMARK                            x       y       z     vdW  Elec       q    Type
REMARK                         _______ _______ _______ _____ _____    ______ ____
ROOT
ATOM      1  N   UNL     1      -4.957  13.105  20.510  0.00  0.00    +0.000 N 
ATOM      2  C   UNL     1      -3.586  12.973  20.639  0.00  0.00    +0.000 A 
ATOM      3  N   UNL     1      -2.683  13.364  19.693  0.00  0.00    +0.000 N 
ATOM      4  C   UNL     1      -1.484  12.781  19.461  0.00  0.00    +0.000 A 
ATOM      5  N   UNL     1      -1.141  11.565  19.821  0.00  0.00    +0.000 NA
ATOM      6  C   UNL     1       0.132  11.249  19.380  0.00  0.00    +0.000 A 
ATOM      7  C   UNL     1       0.771  12.275  18.714  0.00  0.00    +0.000 A 
ATOM      8  S   UNL     1      -0.287  13.611  18.539  0.00  0.00    +0.000 S 
ATOM      9  N   UNL     1      -3.217  12.524  21.816  0.00  0.00    +0.000 NA
ATOM     10  N   UNL     1      -4.359  12.355  22.513  0.00  0.00    +0.000 N 
ATOM     11  C   UNL     1      -5.460  12.667  21.734  0.00  0.00    +0.000 A 
ATOM     12  S   UNL     1      -6.995  12.406  22.323  0.00  0.00    +0.000 S 
ATOM     13  H   UNL     1      -3.040  13.958  18.964  0.00  0.00    +0.000 HD
ATOM     14  H   UNL     1      -4.363  11.971  23.449  0.00  0.00    +0.000 HD
ENDROOT
BRANCH   6  15
ATOM     15  C   UNL     1       0.722   9.943  19.652  0.00  0.00    +0.000 A 
ATOM     16  C   UNL     1       0.579   9.309  20.895  0.00  0.00    +0.000 A 
ATOM     17  C   UNL     1       1.128   8.042  21.118  0.00  0.00    +0.000 A 
ATOM     18  C   UNL     1       1.835   7.405  20.101  0.00  0.00    +0.000 A 
ATOM     19 BR   UNL     1       2.542   5.678  20.393  0.00  0.00    +0.000 Br
ATOM     20  C   UNL     1       2.013   8.029  18.869  0.00  0.00    +0.000 A 
ATOM     21  C   UNL     1       1.463   9.296  18.649  0.00  0.00    +0.000 A 
ENDBRANCH   6  15
BRANCH   1  27
ATOM     22  C   UNL     1      -5.795  12.783  18.152  0.00  0.00    +0.000 A 
ATOM     23  C   UNL     1      -6.674  13.193  17.131  0.00  0.00    +0.000 A 
ATOM     24  C   UNL     1      -7.441  14.346  17.260  0.00  0.00    +0.000 A 
ATOM     25  C   UNL     1      -7.330  15.108  18.410  0.00  0.00    +0.000 A 
ATOM     26  C   UNL     1      -6.482  14.693  19.441  0.00  0.00    +0.000 A 
ATOM     27  C   UNL     1      -5.726  13.506  19.367  0.00  0.00    +0.000 A 
BRANCH  22  29
ATOM     28  C   UNL     1      -4.529  11.381  16.718  0.00  0.00    +0.000 C 
ATOM     29  O   UNL     1      -5.081  11.618  18.016  0.00  0.00    +0.000 OA
ENDBRANCH  22  29
ENDBRANCH   1  27
TORSDOF 3
ENDMDL
MODEL 2
REMARK VINA RESULT:      -6.6      0.854      1.279
REMARK  Name = 
REMARK  4 active torsions:
REMARK  status: ('A' for Active; 'I' for Inactive)
REMARK    1  A    between atoms: C_1  and  O_2
REMARK    2  A    between atoms: O_2  and  C_3
REMARK    3  A    between atoms: C_8  and  N_9
REMARK    4  A    between atoms: C_14  and  C_15
REMARK                            x       y       z     vdW  Elec       q    Type
REMARK                         _______ _______ _______ _____ _____    ______ ____
ROOT
ATOM      1  N   UNL     1      -5.437  13.461  20.392  0.00  0.00    +0.000 N 
ATOM      2  C   UNL     1      -4.106  13.293  20.729  0.00  0.00    +0.000 A 
ATOM      3  N   UNL     1      -3.067  13.899  20.084  0.00  0.00    +0.000 N 
ATOM      4  C   UNL     1      -1.825  13.385  19.936  0.00  0.00    +0.000 A 
ATOM      5  N   UNL     1      -1.503  12.115  20.045  0.00  0.00    +0.000 NA
ATOM      6  C   UNL     1      -0.161  11.910  19.776  0.00  0.00    +0.000 A 
ATOM      7  C   UNL     1       0.544  13.065  19.505  0.00  0.00    +0.000 A 
ATOM      8  S   UNL     1      -0.517  14.409  19.474  0.00  0.00    +0.000 S 
ATOM      9  N   UNL     1      -3.932  12.566  21.808  0.00  0.00    +0.000 NA
ATOM     10  N   UNL     1      -5.171  12.237  22.226  0.00  0.00    +0.000 N 
ATOM     11  C   UNL     1      -6.129  12.738  21.363  0.00  0.00    +0.000 A 
ATOM     12  S   UNL     1      -7.733  12.349  21.585  0.00  0.00    +0.000 S 
ATOM     13  H   UNL     1      -3.313  14.657  19.469  0.00  0.00    +0.000 HD
ATOM     14  H   UNL     1      -5.324  11.634  23.024  0.00  0.00    +0.000 HD
ENDROOT
BRANCH   6  15
ATOM     15  C   UNL     1       0.422  10.574  19.823  0.00  0.00    +0.000 A 
ATOM     16  C   UNL     1       1.094  10.019  18.724  0.00  0.00    +0.000 A 
ATOM     17  C   UNL     1       1.672   8.748  18.808  0.00  0.00    +0.000 A 
ATOM     18  C   UNL     1       1.570   8.018  19.990  0.00  0.00    +0.000 A 
ATOM     19 BR   UNL     1       2.385   6.317  20.112  0.00  0.00    +0.000 Br
ATOM     20  C   UNL     1       0.883   8.539  21.083  0.00  0.00    +0.000 A 
ATOM     21  C   UNL     1       0.306   9.810  20.996  0.00  0.00    +0.000 A 
ENDBRANCH   6  15
BRANCH   1  27
ATOM     22  C   UNL     1      -6.360  13.506  18.045  0.00  0.00    +0.000 A 
ATOM     23  C   UNL     1      -7.028  14.230  17.037  0.00  0.00    +0.000 A 
ATOM     24  C   UNL     1      -7.299  15.586  17.184  0.00  0.00    +0.000 A 
ATOM     25  C   UNL     1      -6.896  16.237  18.337  0.00  0.00    +0.000 A 
ATOM     26  C   UNL     1      -6.258  15.521  19.354  0.00  0.00    +0.000 A 
ATOM     27  C   UNL     1      -6.009  14.136  19.262  0.00  0.00    +0.000 A 
BRANCH  22  29
ATOM     28  C   UNL     1      -4.858  11.795  17.377  0.00  0.00    +0.000 C 
ATOM     29  O   UNL     1      -6.143  12.159  17.891  0.00  0.00    +0.000 OA
ENDBRANCH  22  29
ENDBRANCH   1  27
TORSDOF 3
ENDMDL
MODEL 3
REMARK VINA RESULT:      -6.5      4.483      6.365
REMARK  Name = 
REMARK  4 active torsions:
REMARK  status: ('A' for Active; 'I' for Inactive)
REMARK    1  A    between atoms: C_1  and  O_2
REMARK    2  A    between atoms: O_2  and  C_3
REMARK    3  A    between atoms: C_8  and  N_9
REMARK    4  A    between atoms: C_14  and  C_15
REMARK                            x       y       z     vdW  Elec       q    Type
REMARK                         _______ _______ _______ _____ _____    ______ ____
ROOT
ATOM      1  N   UNL     1      -0.492  11.434  19.937  0.00  0.00    +0.000 N 
ATOM      2  C   UNL     1       0.211  12.608  20.142  0.00  0.00    +0.000 A 
ATOM      3  N   UNL     1      -0.043  13.780  19.490  0.00  0.00    +0.000 N 
ATOM      4  C   UNL     1       0.876  14.724  19.182  0.00  0.00    +0.000 A 
ATOM      5  N   UNL     1       2.175  14.537  19.115  0.00  0.00    +0.000 NA
ATOM      6  C   UNL     1       2.830  15.688  18.716  0.00  0.00    +0.000 A 
ATOM      7  C   UNL     1       2.001  16.775  18.526  0.00  0.00    +0.000 A 
ATOM      8  S   UNL     1       0.365  16.311  18.739  0.00  0.00    +0.000 S 
ATOM      9  N   UNL     1       1.092  12.522  21.111  0.00  0.00    +0.000 NA
ATOM     10  N   UNL     1       0.985  11.265  21.587  0.00  0.00    +0.000 N 
ATOM     11  C   UNL     1       0.045  10.547  20.869  0.00  0.00    +0.000 A 
ATOM     12  S   UNL     1      -0.172   8.925  21.174  0.00  0.00    +0.000 S 
ATOM     13  H   UNL     1      -0.915  13.826  18.991  0.00  0.00    +0.000 HD
ATOM     14  H   UNL     1       1.591  10.917  22.318  0.00  0.00    +0.000 HD
ENDROOT
BRANCH   6  15
ATOM     15  C   UNL     1       4.280  15.714  18.559  0.00  0.00    +0.000 A 
ATOM     16  C   UNL     1       4.980  14.655  17.963  0.00  0.00    +0.000 A 
ATOM     17  C   UNL     1       6.367  14.721  17.796  0.00  0.00    +0.000 A 
ATOM     18  C   UNL     1       7.065  15.843  18.235  0.00  0.00    +0.000 A 
ATOM     19 BR   UNL     1       8.934  15.945  17.973  0.00  0.00    +0.000 Br
ATOM     20  C   UNL     1       6.393  16.893  18.854  0.00  0.00    +0.000 A 
ATOM     21  C   UNL     1       5.006  16.825  19.020  0.00  0.00    +0.000 A 
ENDBRANCH   6  15
BRANCH   1  27
ATOM     22  C   UNL     1      -2.773  11.710  18.895  0.00  0.00    +0.000 A 
ATOM     23  C   UNL     1      -3.631  11.441  17.811  0.00  0.00    +0.000 A 
ATOM     24  C   UNL     1      -3.263  10.558  16.802  0.00  0.00    +0.000 A 
ATOM     25  C   UNL     1      -2.034   9.925  16.871  0.00  0.00    +0.000 A 
ATOM     26  C   UNL     1      -1.164  10.206  17.929  0.00  0.00    +0.000 A 
ATOM     27  C   UNL     1      -1.482  11.132  18.944  0.00  0.00    +0.000 A 
BRANCH  22  29
ATOM     28  C   UNL     1      -4.546  12.682  20.136  0.00  0.00    +0.000 C 
ATOM     29  O   UNL     1      -3.145  12.618  19.855  0.00  0.00    +0.000 OA
ENDBRANCH  22  29
ENDBRANCH   1  27
TORSDOF 3
ENDMDL
MODEL 4
REMARK VINA RESULT:      -6.5      1.229      1.898
REMARK  Name = 
REMARK  4 active torsions:
REMARK  status: ('A' for Active; 'I' for Inactive)
REMARK    1  A    between atoms: C_1  and  O_2
REMARK    2  A    between atoms: O_2  and  C_3
REMARK    3  A    between atoms: C_8  and  N_9
REMARK    4  A    between atoms: C_14  and  C_15
REMARK                            x       y       z     vdW  Elec       q    Type
REMARK                         _______ _______ _______ _____ _____    ______ ____
ROOT
ATOM      1  N   UNL     1      -4.830  13.282  20.794  0.00  0.00    +0.000 N 
ATOM      2  C   UNL     1      -3.454  13.146  20.849  0.00  0.00    +0.000 A 
ATOM      3  N   UNL     1      -2.596  13.622  19.901  0.00  0.00    +0.000 N 
ATOM      4  C   UNL     1      -1.408  13.068  19.566  0.00  0.00    +0.000 A 
ATOM      5  N   UNL     1      -1.046  11.828  19.804  0.00  0.00    +0.000 NA
ATOM      6  C   UNL     1       0.206  11.558  19.281  0.00  0.00    +0.000 A 
ATOM      7  C   UNL     1       0.812  12.641  18.678  0.00  0.00    +0.000 A 
ATOM      8  S   UNL     1      -0.254  13.982  18.667  0.00  0.00    +0.000 S 
ATOM      9  N   UNL     1      -3.032  12.600  21.965  0.00  0.00    +0.000 NA
ATOM     10  N   UNL     1      -4.141  12.364  22.696  0.00  0.00    +0.000 N 
ATOM     11  C   UNL     1      -5.276  12.737  21.997  0.00  0.00    +0.000 A 
ATOM     12  S   UNL     1      -6.783  12.418  22.629  0.00  0.00    +0.000 S 
ATOM     13  H   UNL     1      -2.986  14.275  19.243  0.00  0.00    +0.000 HD
ATOM     14  H   UNL     1      -4.102  11.901  23.594  0.00  0.00    +0.000 HD
ENDROOT
BRANCH   6  15
ATOM     15  C   UNL     1       0.810  10.236  19.412  0.00  0.00    +0.000 A 
ATOM     16  C   UNL     1       0.805   9.537  20.628  0.00  0.00    +0.000 A 
ATOM     17  C   UNL     1       1.362   8.257  20.717  0.00  0.00    +0.000 A 
ATOM     18  C   UNL     1       1.940   7.674  19.592  0.00  0.00    +0.000 A 
ATOM     19 BR   UNL     1       2.658   5.930  19.707  0.00  0.00    +0.000 Br
ATOM     20  C   UNL     1       1.980   8.362  18.383  0.00  0.00    +0.000 A 
ATOM     21  C   UNL     1       1.422   9.642  18.296  0.00  0.00    +0.000 A 
ENDBRANCH   6  15
BRANCH   1  27
ATOM     22  C   UNL     1      -5.959  15.141  19.515  0.00  0.00    +0.000 A 
ATOM     23  C   UNL     1      -6.672  15.539  18.367  0.00  0.00    +0.000 A 
ATOM     24  C   UNL     1      -7.143  14.605  17.452  0.00  0.00    +0.000 A 
ATOM     25  C   UNL     1      -6.916  13.259  17.679  0.00  0.00    +0.000 A 
ATOM     26  C   UNL     1      -6.186  12.856  18.801  0.00  0.00    +0.000 A 
ATOM     27  C   UNL     1      -5.650  13.776  19.725  0.00  0.00    +0.000 A 
BRANCH  22  29
ATOM     28  C   UNL     1      -5.109  17.339  19.788  0.00  0.00    +0.000 C 
ATOM     29  O   UNL     1      -5.469  16.087  20.380  0.00  0.00    +0.000 OA
ENDBRANCH  22  29
ENDBRANCH   1  27
TORSDOF 3
ENDMDL
MODEL 5
REMARK VINA RESULT:      -6.4      1.329      1.458
REMARK  Name = 
REMARK  4 active torsions:
REMARK  status: ('A' for Active; 'I' for Inactive)
REMARK    1  A    between atoms: C_1  and  O_2
REMARK    2  A    between atoms: O_2  and  C_3
REMARK    3  A    between atoms: C_8  and  N_9
REMARK    4  A    between atoms: C_14  and  C_15
REMARK                            x       y       z     vdW  Elec       q    Type
REMARK                         _______ _______ _______ _____ _____    ______ ____
ROOT
ATOM      1  N   UNL     1      -4.168  13.434  21.537  0.00  0.00    +0.000 N 
ATOM      2  C   UNL     1      -2.811  13.243  21.349  0.00  0.00    +0.000 A 
ATOM      3  N   UNL     1      -2.129  13.621  20.229  0.00  0.00    +0.000 N 
ATOM      4  C   UNL     1      -1.041  12.996  19.722  0.00  0.00    +0.000 A 
ATOM      5  N   UNL     1      -0.680  11.758  19.975  0.00  0.00    +0.000 NA
ATOM      6  C   UNL     1       0.444  11.402  19.252  0.00  0.00    +0.000 A 
ATOM      7  C   UNL     1       0.962  12.418  18.475  0.00  0.00    +0.000 A 
ATOM      8  S   UNL     1      -0.046  13.800  18.566  0.00  0.00    +0.000 S 
ATOM      9  N   UNL     1      -2.206  12.750  22.404  0.00  0.00    +0.000 NA
ATOM     10  N   UNL     1      -3.168  12.609  23.339  0.00  0.00    +0.000 N 
ATOM     11  C   UNL     1      -4.400  12.986  22.836  0.00  0.00    +0.000 A 
ATOM     12  S   UNL     1      -5.773  12.772  23.753  0.00  0.00    +0.000 S 
ATOM     13  H   UNL     1      -2.613  14.247  19.609  0.00  0.00    +0.000 HD
ATOM     14  H   UNL     1      -2.977  12.201  24.245  0.00  0.00    +0.000 HD
ENDROOT
BRANCH   6  15
ATOM     15  C   UNL     1       1.021  10.066  19.363  0.00  0.00    +0.000 A 
ATOM     16  C   UNL     1       0.957   9.328  20.554  0.00  0.00    +0.000 A 
ATOM     17  C   UNL     1       1.490   8.037  20.622  0.00  0.00    +0.000 A 
ATOM     18  C   UNL     1       2.101   7.479  19.501  0.00  0.00    +0.000 A 
ATOM     19 BR   UNL     1       2.785   5.720  19.586  0.00  0.00    +0.000 Br
ATOM     20  C   UNL     1       2.200   8.206  18.318  0.00  0.00    +0.000 A 
ATOM     21  C   UNL     1       1.667   9.498  18.253  0.00  0.00    +0.000 A 
ENDBRANCH   6  15
BRANCH   1  27
ATOM     22  C   UNL     1      -5.993  13.049  19.838  0.00  0.00    +0.000 A 
ATOM     23  C   UNL     1      -7.017  13.597  19.040  0.00  0.00    +0.000 A 
ATOM     24  C   UNL     1      -7.189  14.973  18.933  0.00  0.00    +0.000 A 
ATOM     25  C   UNL     1      -6.332  15.818  19.616  0.00  0.00    +0.000 A 
ATOM     26  C   UNL     1      -5.332  15.283  20.432  0.00  0.00    +0.000 A 
ATOM     27  C   UNL     1      -5.156  13.895  20.604  0.00  0.00    +0.000 A 
BRANCH  22  29
ATOM     28  C   UNL     1      -7.099  10.971  20.127  0.00  0.00    +0.000 C 
ATOM     29  O   UNL     1      -5.873  11.687  19.959  0.00  0.00    +0.000 OA
ENDBRANCH  22  29
ENDBRANCH   1  27
TORSDOF 3
ENDMDL
MODEL 6
REMARK VINA RESULT:      -6.3      4.941      7.144
REMARK  Name = 
REMARK  4 active torsions:
REMARK  status: ('A' for Active; 'I' for Inactive)
REMARK    1  A    between atoms: C_1  and  O_2
REMARK    2  A    between atoms: O_2  and  C_3
REMARK    3  A    between atoms: C_8  and  N_9
REMARK    4  A    between atoms: C_14  and  C_15
REMARK                            x       y       z     vdW  Elec       q    Type
REMARK                         _______ _______ _______ _____ _____    ______ ____
ROOT
ATOM      1  N   UNL     1       2.687  15.467  19.461  0.00  0.00    +0.000 N 
ATOM      2  C   UNL     1       2.179  14.356  18.810  0.00  0.00    +0.000 A 
ATOM      3  N   UNL     1       0.930  13.848  19.017  0.00  0.00    +0.000 N 
ATOM      4  C   UNL     1       0.583  12.544  18.912  0.00  0.00    +0.000 A 
ATOM      5  N   UNL     1       1.411  11.525  18.963  0.00  0.00    +0.000 NA
ATOM      6  C   UNL     1       0.733  10.321  18.887  0.00  0.00    +0.000 A 
ATOM      7  C   UNL     1      -0.632  10.449  18.728  0.00  0.00    +0.000 A 
ATOM      8  S   UNL     1      -1.079  12.101  18.793  0.00  0.00    +0.000 S 
ATOM      9  N   UNL     1       2.982  13.887  17.884  0.00  0.00    +0.000 NA
ATOM     10  N   UNL     1       4.059  14.698  17.893  0.00  0.00    +0.000 N 
ATOM     11  C   UNL     1       3.936  15.666  18.875  0.00  0.00    +0.000 A 
ATOM     12  S   UNL     1       5.200  16.705  19.180  0.00  0.00    +0.000 S 
ATOM     13  H   UNL     1       0.291  14.441  19.519  0.00  0.00    +0.000 HD
ATOM     14  H   UNL     1       4.860  14.531  17.298  0.00  0.00    +0.000 HD
ENDROOT
BRANCH   6  15
ATOM     15  C   UNL     1       1.447   9.049  18.937  0.00  0.00    +0.000 A 
ATOM     16  C   UNL     1       2.154   8.553  17.832  0.00  0.00    +0.000 A 
ATOM     17  C   UNL     1       2.856   7.346  17.919  0.00  0.00    +0.000 A 
ATOM     18  C   UNL     1       2.846   6.622  19.108  0.00  0.00    +0.000 A 
ATOM     19 BR   UNL     1       3.827   5.012  19.233  0.00  0.00    +0.000 Br
ATOM     20  C   UNL     1       2.127   7.083  20.208  0.00  0.00    +0.000 A 
ATOM     21  C   UNL     1       1.426   8.290  20.119  0.00  0.00    +0.000 A 
ENDBRANCH   6  15
BRANCH   1  27
ATOM     22  C   UNL     1       2.243  15.841  21.916  0.00  0.00    +0.000 A 
ATOM     23  C   UNL     1       1.767  16.701  22.926  0.00  0.00    +0.000 A 
ATOM     24  C   UNL     1       1.120  17.891  22.613  0.00  0.00    +0.000 A 
ATOM     25  C   UNL     1       0.933  18.232  21.285  0.00  0.00    +0.000 A 
ATOM     26  C   UNL     1       1.427  17.400  20.277  0.00  0.00    +0.000 A 
ATOM     27  C   UNL     1       2.130  16.210  20.554  0.00  0.00    +0.000 A 
BRANCH  22  29
ATOM     28  C   UNL     1       4.285  14.865  22.627  0.00  0.00    +0.000 C 
ATOM     29  O   UNL     1       2.915  14.693  22.253  0.00  0.00    +0.000 OA
ENDBRANCH  22  29
ENDBRANCH   1  27
TORSDOF 3
ENDMDL
MODEL 7
REMARK VINA RESULT:      -6.3      4.989      7.393
REMARK  Name = 
REMARK  4 active torsions:
REMARK  status: ('A' for Active; 'I' for Inactive)
REMARK    1  A    between atoms: C_1  and  O_2
REMARK    2  A    between atoms: O_2  and  C_3
REMARK    3  A    between atoms: C_8  and  N_9
REMARK    4  A    between atoms: C_14  and  C_15
REMARK                            x       y       z     vdW  Elec       q    Type
REMARK                         _______ _______ _______ _____ _____    ______ ____
ROOT
ATOM      1  N   UNL     1       3.387  15.644  19.244  0.00  0.00    +0.000 N 
ATOM      2  C   UNL     1       2.783  14.564  18.625  0.00  0.00    +0.000 A 
ATOM      3  N   UNL     1       1.465  14.238  18.763  0.00  0.00    +0.000 N 
ATOM      4  C   UNL     1       0.956  12.985  18.714  0.00  0.00    +0.000 A 
ATOM      5  N   UNL     1       1.633  11.874  18.894  0.00  0.00    +0.000 NA
ATOM      6  C   UNL     1       0.808  10.765  18.840  0.00  0.00    +0.000 A 
ATOM      7  C   UNL     1      -0.513  11.056  18.565  0.00  0.00    +0.000 A 
ATOM      8  S   UNL     1      -0.738  12.752  18.489  0.00  0.00    +0.000 S 
ATOM      9  N   UNL     1       3.579  13.929  17.798  0.00  0.00    +0.000 NA
ATOM     10  N   UNL     1       4.752  14.593  17.842  0.00  0.00    +0.000 N 
ATOM     11  C   UNL     1       4.690  15.638  18.748  0.00  0.00    +0.000 A 
ATOM     12  S   UNL     1       6.057  16.525  19.088  0.00  0.00    +0.000 S 
ATOM     13  H   UNL     1       0.878  14.943  19.174  0.00  0.00    +0.000 HD
ATOM     14  H   UNL     1       5.563  14.282  17.325  0.00  0.00    +0.000 HD
ENDROOT
BRANCH   6  15
ATOM     15  C   UNL     1       1.339   9.419  19.026  0.00  0.00    +0.000 A 
ATOM     16  C   UNL     1       1.945   8.710  17.979  0.00  0.00    +0.000 A 
ATOM     17  C   UNL     1       2.475   7.434  18.194  0.00  0.00    +0.000 A 
ATOM     18  C   UNL     1       2.392   6.853  19.457  0.00  0.00    +0.000 A 
ATOM     19 BR   UNL     1       3.143   5.145  19.754  0.00  0.00    +0.000 Br
ATOM     20  C   UNL     1       1.769   7.528  20.503  0.00  0.00    +0.000 A 
ATOM     21  C   UNL     1       1.240   8.804  20.285  0.00  0.00    +0.000 A 
ENDBRANCH   6  15
BRANCH   1  27
ATOM     22  C   UNL     1       2.197  17.750  19.961  0.00  0.00    +0.000 A 
ATOM     23  C   UNL     1       1.605  18.492  21.002  0.00  0.00    +0.000 A 
ATOM     24  C   UNL     1       1.709  18.084  22.327  0.00  0.00    +0.000 A 
ATOM     25  C   UNL     1       2.416  16.933  22.628  0.00  0.00    +0.000 A 
ATOM     26  C   UNL     1       2.983  16.175  21.599  0.00  0.00    +0.000 A 
ATOM     27  C   UNL     1       2.858  16.531  20.241  0.00  0.00    +0.000 A 
BRANCH  22  29
ATOM     28  C   UNL     1       0.774  17.859  18.066  0.00  0.00    +0.000 C 
ATOM     29  O   UNL     1       2.043  18.154  18.658  0.00  0.00    +0.000 OA
ENDBRANCH  22  29
ENDBRANCH   1  27
TORSDOF 3
ENDMDL
MODEL 8
REMARK VINA RESULT:      -6.3      5.578      7.340
REMARK  Name = 
REMARK  4 active torsions:
REMARK  status: ('A' for Active; 'I' for Inactive)
REMARK    1  A    between atoms: C_1  and  O_2
REMARK    2  A    between atoms: O_2  and  C_3
REMARK    3  A    between atoms: C_8  and  N_9
REMARK    4  A    between atoms: C_14  and  C_15
REMARK                            x       y       z     vdW  Elec       q    Type
REMARK                         _______ _______ _______ _____ _____    ______ ____
ROOT
ATOM      1  N   UNL     1       2.506  13.910  19.703  0.00  0.00    +0.000 N 
ATOM      2  C   UNL     1       1.756  12.749  19.639  0.00  0.00    +0.000 A 
ATOM      3  N   UNL     1       1.170  12.152  20.717  0.00  0.00    +0.000 N 
ATOM      4  C   UNL     1       0.959  10.823  20.863  0.00  0.00    +0.000 A 
ATOM      5  N   UNL     1       1.582   9.871  20.205  0.00  0.00    +0.000 NA
ATOM      6  C   UNL     1       1.179   8.618  20.630  0.00  0.00    +0.000 A 
ATOM      7  C   UNL     1       0.195   8.637  21.597  0.00  0.00    +0.000 A 
ATOM      8  S   UNL     1      -0.143  10.252  22.060  0.00  0.00    +0.000 S 
ATOM      9  N   UNL     1       1.567  12.321  18.413  0.00  0.00    +0.000 NA
ATOM     10  N   UNL     1       2.193  13.212  17.618  0.00  0.00    +0.000 N 
ATOM     11  C   UNL     1       2.817  14.190  18.374  0.00  0.00    +0.000 A 
ATOM     12  S   UNL     1       3.775  15.330  17.629  0.00  0.00    +0.000 S 
ATOM     13  H   UNL     1       1.123  12.706  21.556  0.00  0.00    +0.000 HD
ATOM     14  H   UNL     1       2.241  13.093  16.615  0.00  0.00    +0.000 HD
ENDROOT
BRANCH   6  15
ATOM     15  C   UNL     1       1.748   7.406  20.049  0.00  0.00    +0.000 A 
ATOM     16  C   UNL     1       1.670   6.166  20.699  0.00  0.00    +0.000 A 
ATOM     17  C   UNL     1       2.195   5.014  20.104  0.00  0.00    +0.000 A 
ATOM     18  C   UNL     1       2.813   5.098  18.859  0.00  0.00    +0.000 A 
ATOM     19 BR   UNL     1       3.487   3.533  18.041  0.00  0.00    +0.000 Br
ATOM     20  C   UNL     1       2.925   6.324  18.210  0.00  0.00    +0.000 A 
ATOM     21  C   UNL     1       2.400   7.474  18.807  0.00  0.00    +0.000 A 
ENDBRANCH   6  15
BRANCH   1  27
ATOM     22  C   UNL     1       2.295  15.750  21.417  0.00  0.00    +0.000 A 
ATOM     23  C   UNL     1       2.753  16.317  22.622  0.00  0.00    +0.000 A 
ATOM     24  C   UNL     1       3.899  15.843  23.252  0.00  0.00    +0.000 A 
ATOM     25  C   UNL     1       4.605  14.801  22.678  0.00  0.00    +0.000 A 
ATOM     26  C   UNL     1       4.143  14.213  21.498  0.00  0.00    +0.000 A 
ATOM     27  C   UNL     1       2.960  14.633  20.856  0.00  0.00    +0.000 A 
BRANCH  22  29
ATOM     28  C   UNL     1       1.287  17.337  19.971  0.00  0.00    +0.000 C 
ATOM     29  O   UNL     1       1.138  16.210  20.838  0.00  0.00    +0.000 OA
ENDBRANCH  22  29
ENDBRANCH   1  27
TORSDOF 3
ENDMDL
MODEL 9
REMARK VINA RESULT:      -6.3      1.065      1.536
REMARK  Name = 
REMARK  4 active torsions:
REMARK  status: ('A' for Active; 'I' for Inactive)
REMARK    1  A    between atoms: C_1  and  O_2
REMARK    2  A    between atoms: O_2  and  C_3
REMARK    3  A    between atoms: C_8  and  N_9
REMARK    4  A    between atoms: C_14  and  C_15
REMARK                            x       y       z     vdW  Elec       q    Type
REMARK                         _______ _______ _______ _____ _____    ______ ____
ROOT
ATOM      1  N   UNL     1      -4.036  13.262  21.608  0.00  0.00    +0.000 N 
ATOM      2  C   UNL     1      -2.685  13.061  21.390  0.00  0.00    +0.000 A 
ATOM      3  N   UNL     1      -2.024  13.440  20.258  0.00  0.00    +0.000 N 
ATOM      4  C   UNL     1      -0.953  12.809  19.723  0.00  0.00    +0.000 A 
ATOM      5  N   UNL     1      -0.597  11.566  19.962  0.00  0.00    +0.000 NA
ATOM      6  C   UNL     1       0.508  11.206  19.212  0.00  0.00    +0.000 A 
ATOM      7  C   UNL     1       1.017  12.222  18.429  0.00  0.00    +0.000 A 
ATOM      8  S   UNL     1       0.023  13.612  18.550  0.00  0.00    +0.000 S 
ATOM      9  N   UNL     1      -2.062  12.557  22.429  0.00  0.00    +0.000 NA
ATOM     10  N   UNL     1      -3.003  12.418  23.384  0.00  0.00    +0.000 N 
ATOM     11  C   UNL     1      -4.244  12.808  22.910  0.00  0.00    +0.000 A 
ATOM     12  S   UNL     1      -5.598  12.601  23.856  0.00  0.00    +0.000 S 
ATOM     13  H   UNL     1      -2.517  14.074  19.652  0.00  0.00    +0.000 HD
ATOM     14  H   UNL     1      -2.797  12.004  24.284  0.00  0.00    +0.000 HD
ENDROOT
BRANCH   6  15
ATOM     15  C   UNL     1       1.076   9.865  19.303  0.00  0.00    +0.000 A 
ATOM     16  C   UNL     1       1.703   9.251  18.209  0.00  0.00    +0.000 A 
ATOM     17  C   UNL     1       2.267   7.977  18.333  0.00  0.00    +0.000 A 
ATOM     18  C   UNL     1       2.197   7.304  19.550  0.00  0.00    +0.000 A 
ATOM     19 BR   UNL     1       2.994   5.599  19.725  0.00  0.00    +0.000 Br
ATOM     20  C   UNL     1       1.555   7.884  20.640  0.00  0.00    +0.000 A 
ATOM     21  C   UNL     1       0.991   9.158  20.514  0.00  0.00    +0.000 A 
ENDBRANCH   6  15
BRANCH   1  27
ATOM     22  C   UNL     1      -5.481  13.035  19.552  0.00  0.00    +0.000 A 
ATOM     23  C   UNL     1      -6.559  13.526  18.790  0.00  0.00    +0.000 A 
ATOM     24  C   UNL     1      -7.171  14.735  19.103  0.00  0.00    +0.000 A 
ATOM     25  C   UNL     1      -6.705  15.472  20.178  0.00  0.00    +0.000 A 
ATOM     26  C   UNL     1      -5.655  14.979  20.957  0.00  0.00    +0.000 A 
ATOM     27  C   UNL     1      -5.041  13.736  20.700  0.00  0.00    +0.000 A 
BRANCH  22  29
ATOM     28  C   UNL     1      -4.329  11.720  17.949  0.00  0.00    +0.000 C 
ATOM     29  O   UNL     1      -4.923  11.818  19.246  0.00  0.00    +0.000 OA
ENDBRANCH  22  29
ENDBRANCH   1  27
TORSDOF 3
ENDMDL
