MODEL 1
REMARK VINA RESULT:      -7.8      0.000      0.000
REMARK  Name = 
REMARK  5 active torsions:
REMARK  status: ('A' for Active; 'I' for Inactive)
REMARK    1  A    between atoms: C_2  and  C_4
REMARK    2  A    between atoms: C_8  and  C_10
REMARK    3  A    between atoms: C_10  and  C_11
REMARK    4  A    between atoms: C_11  and  C_12
REMARK    5  A    between atoms: C_14  and  O_15
REMARK                            x       y       z     vdW  Elec       q    Type
REMARK                         _______ _______ _______ _____ _____    ______ ____
ROOT
ATOM      1  C   UNL     1       3.677   7.369  18.159  0.00  0.00    +0.000 C 
ENDROOT
BRANCH   1   6
ATOM      2  C   UNL     1       1.472   3.349  20.229  0.00  0.00    +0.000 C 
ATOM      3  C   UNL     1       2.227   2.875  18.973  0.00  0.00    +0.000 C 
ATOM      4  C   UNL     1       3.575   3.571  18.759  0.00  0.00    +0.000 C 
ATOM      5  N   UNL     1       3.462   5.018  18.926  0.00  0.00    +0.000 N 
ATOM      6  C   UNL     1       3.814   5.877  17.890  0.00  0.00    +0.000 C 
ATOM      7  O   UNL     1       4.215   5.464  16.802  0.00  0.00    +0.000 OA
ATOM      8  C   UNL     1       2.933   5.428  20.223  0.00  0.00    +0.000 C 
ATOM      9  C   UNL     1       1.521   4.876  20.390  0.00  0.00    +0.000 C 
BRANCH   2  11
ATOM     10  N   UNL     1       0.983   2.444  22.446  0.00  0.00    +0.000 N 
ATOM     11  C   UNL     1       1.943   2.650  21.500  0.00  0.00    +0.000 C 
ATOM     12  O   UNL     1       3.098   2.299  21.708  0.00  0.00    +0.000 OA
ATOM     13  H   UNL     1       1.307   2.094  23.339  0.00  0.00    +0.000 HD
ATOM     14  H   UNL     1       0.105   2.945  22.434  0.00  0.00    +0.000 HD
ENDBRANCH   2  11
ENDBRANCH   1   6
BRANCH   1  15
ATOM     15  C   UNL     1       2.447   7.974  17.486  0.00  0.00    +0.000 C 
BRANCH  15  16
ATOM     16  C   UNL     1       1.674   8.820  18.464  0.00  0.00    +0.000 A 
ATOM     17  N   UNL     1       0.965   9.849  17.971  0.00  0.00    +0.000 NA
ATOM     18  C   UNL     1       0.250  10.527  18.878  0.00  0.00    +0.000 A 
ATOM     19  C   UNL     1       0.176  10.247  20.234  0.00  0.00    +0.000 A 
ATOM     20  C   UNL     1      -0.606  10.962  21.170  0.00  0.00    +0.000 A 
ATOM     21  C   UNL     1      -0.615  10.585  22.511  0.00  0.00    +0.000 A 
ATOM     22  C   UNL     1       0.166   9.509  22.916  0.00  0.00    +0.000 A 
ATOM     23  C   UNL     1       0.942   8.815  21.979  0.00  0.00    +0.000 A 
ATOM     24  C   UNL     1       0.955   9.160  20.631  0.00  0.00    +0.000 A 
ATOM     25  N   UNL     1       1.693   8.450  19.760  0.00  0.00    +0.000 NA
BRANCH  18  26
ATOM     26  O   UNL     1      -0.443  11.567  18.337  0.00  0.00    +0.000 OA
ATOM     27  H   UNL     1      -1.348  11.211  18.380  0.00  0.00    +0.000 HD
ENDBRANCH  18  26
ENDBRANCH  15  16
ENDBRANCH   1  15
TORSDOF 5
ENDMDL
MODEL 2
REMARK VINA RESULT:      -7.7      2.242      3.858
REMARK  Name = 
REMARK  5 active torsions:
REMARK  status: ('A' for Active; 'I' for Inactive)
REMARK    1  A    between atoms: C_2  and  C_4
REMARK    2  A    between atoms: C_8  and  C_10
REMARK    3  A    between atoms: C_10  and  C_11
REMARK    4  A    between atoms: C_11  and  C_12
REMARK    5  A    between atoms: C_14  and  O_15
REMARK                            x       y       z     vdW  Elec       q    Type
REMARK                         _______ _______ _______ _____ _____    ______ ____
ROOT
ATOM      1  C   UNL     1       1.978   6.654  18.317  0.00  0.00    +0.000 C 
ENDROOT
BRANCH   1   6
ATOM      2  C   UNL     1       6.936   6.136  17.635  0.00  0.00    +0.000 C 
ATOM      3  C   UNL     1       6.593   5.575  19.027  0.00  0.00    +0.000 C 
ATOM      4  C   UNL     1       5.266   4.810  19.079  0.00  0.00    +0.000 C 
ATOM      5  N   UNL     1       4.198   5.546  18.408  0.00  0.00    +0.000 N 
ATOM      6  C   UNL     1       3.044   5.901  19.100  0.00  0.00    +0.000 C 
ATOM      7  O   UNL     1       2.882   5.629  20.290  0.00  0.00    +0.000 OA
ATOM      8  C   UNL     1       4.485   5.875  17.016  0.00  0.00    +0.000 C 
ATOM      9  C   UNL     1       5.715   6.774  16.953  0.00  0.00    +0.000 C 
BRANCH   2  11
ATOM     10  N   UNL     1       7.536   5.374  15.392  0.00  0.00    +0.000 N 
ATOM     11  C   UNL     1       7.591   5.101  16.726  0.00  0.00    +0.000 C 
ATOM     12  O   UNL     1       8.122   4.071  17.123  0.00  0.00    +0.000 OA
ATOM     13  H   UNL     1       7.857   4.638  14.774  0.00  0.00    +0.000 HD
ATOM     14  H   UNL     1       6.889   6.051  15.011  0.00  0.00    +0.000 HD
ENDBRANCH   2  11
ENDBRANCH   1   6
BRANCH   1  15
ATOM     15  C   UNL     1       2.366   8.107  18.049  0.00  0.00    +0.000 C 
BRANCH  15  16
ATOM     16  C   UNL     1       1.533   9.038  18.891  0.00  0.00    +0.000 A 
ATOM     17  N   UNL     1       0.972  10.094  18.279  0.00  0.00    +0.000 NA
ATOM     18  C   UNL     1       0.193  10.852  19.062  0.00  0.00    +0.000 A 
ATOM     19  C   UNL     1      -0.081  10.626  20.403  0.00  0.00    +0.000 A 
ATOM     20  C   UNL     1      -0.927  11.426  21.205  0.00  0.00    +0.000 A 
ATOM     21  C   UNL     1      -1.141  11.099  22.541  0.00  0.00    +0.000 A 
ATOM     22  C   UNL     1      -0.501   9.988  23.077  0.00  0.00    +0.000 A 
ATOM     23  C   UNL     1       0.340   9.209  22.272  0.00  0.00    +0.000 A 
ATOM     24  C   UNL     1       0.558   9.504  20.930  0.00  0.00    +0.000 A 
ATOM     25  N   UNL     1       1.352   8.715  20.187  0.00  0.00    +0.000 NA
BRANCH  18  26
ATOM     26  O   UNL     1      -0.345  11.916  18.405  0.00  0.00    +0.000 OA
ATOM     27  H   UNL     1       0.451  12.270  17.969  0.00  0.00    +0.000 HD
ENDBRANCH  18  26
ENDBRANCH  15  16
ENDBRANCH   1  15
TORSDOF 5
ENDMDL
MODEL 3
REMARK VINA RESULT:      -7.6      1.453      1.535
REMARK  Name = 
REMARK  5 active torsions:
REMARK  status: ('A' for Active; 'I' for Inactive)
REMARK    1  A    between atoms: C_2  and  C_4
REMARK    2  A    between atoms: C_8  and  C_10
REMARK    3  A    between atoms: C_10  and  C_11
REMARK    4  A    between atoms: C_11  and  C_12
REMARK    5  A    between atoms: C_14  and  O_15
REMARK                            x       y       z     vdW  Elec       q    Type
REMARK                         _______ _______ _______ _____ _____    ______ ____
ROOT
ATOM      1  C   UNL     1       3.424   8.002  18.141  0.00  0.00    +0.000 C 
ENDROOT
BRANCH   1   6
ATOM      2  C   UNL     1       1.883   3.214  18.048  0.00  0.00    +0.000 C 
ATOM      3  C   UNL     1       2.944   3.387  16.945  0.00  0.00    +0.000 C 
ATOM      4  C   UNL     1       4.107   4.302  17.340  0.00  0.00    +0.000 C 
ATOM      5  N   UNL     1       3.629   5.534  17.963  0.00  0.00    +0.000 N 
ATOM      6  C   UNL     1       3.953   6.773  17.417  0.00  0.00    +0.000 C 
ATOM      7  O   UNL     1       4.631   6.882  16.394  0.00  0.00    +0.000 OA
ATOM      8  C   UNL     1       2.792   5.321  19.139  0.00  0.00    +0.000 C 
ATOM      9  C   UNL     1       1.543   4.545  18.735  0.00  0.00    +0.000 C 
BRANCH   2  11
ATOM     10  N   UNL     1       3.161   1.218  18.644  0.00  0.00    +0.000 N 
ATOM     11  C   UNL     1       2.265   2.151  19.073  0.00  0.00    +0.000 C 
ATOM     12  O   UNL     1       1.806   2.090  20.207  0.00  0.00    +0.000 OA
ATOM     13  H   UNL     1       3.327   0.440  19.272  0.00  0.00    +0.000 HD
ATOM     14  H   UNL     1       3.351   1.071  17.663  0.00  0.00    +0.000 HD
ENDBRANCH   2  11
ENDBRANCH   1   6
BRANCH   1  15
ATOM     15  C   UNL     1       2.035   8.413  17.656  0.00  0.00    +0.000 C 
BRANCH  15  16
ATOM     16  C   UNL     1       1.316   9.197  18.724  0.00  0.00    +0.000 A 
ATOM     17  N   UNL     1       0.633  10.288  18.339  0.00  0.00    +0.000 NA
ATOM     18  C   UNL     1      -0.036  10.909  19.319  0.00  0.00    +0.000 A 
ATOM     19  C   UNL     1      -0.089  10.515  20.648  0.00  0.00    +0.000 A 
ATOM     20  C   UNL     1      -0.823  11.172  21.661  0.00  0.00    +0.000 A 
ATOM     21  C   UNL     1      -0.815  10.681  22.964  0.00  0.00    +0.000 A 
ATOM     22  C   UNL     1      -0.065   9.548  23.256  0.00  0.00    +0.000 A 
ATOM     23  C   UNL     1       0.664   8.911  22.242  0.00  0.00    +0.000 A 
ATOM     24  C   UNL     1       0.659   9.372  20.929  0.00  0.00    +0.000 A 
ATOM     25  N   UNL     1       1.350   8.716  19.982  0.00  0.00    +0.000 NA
BRANCH  18  26
ATOM     26  O   UNL     1      -0.703  12.015  18.888  0.00  0.00    +0.000 OA
ATOM     27  H   UNL     1      -0.091  12.328  18.199  0.00  0.00    +0.000 HD
ENDBRANCH  18  26
ENDBRANCH  15  16
ENDBRANCH   1  15
TORSDOF 5
ENDMDL
MODEL 4
REMARK VINA RESULT:      -7.6      2.373      3.166
REMARK  Name = 
REMARK  5 active torsions:
REMARK  status: ('A' for Active; 'I' for Inactive)
REMARK    1  A    between atoms: C_2  and  C_4
REMARK    2  A    between atoms: C_8  and  C_10
REMARK    3  A    between atoms: C_10  and  C_11
REMARK    4  A    between atoms: C_11  and  C_12
REMARK    5  A    between atoms: C_14  and  O_15
REMARK                            x       y       z     vdW  Elec       q    Type
REMARK                         _______ _______ _______ _____ _____    ______ ____
ROOT
ATOM      1  C   UNL     1       2.235   7.910  18.626  0.00  0.00    +0.000 C 
ENDROOT
BRANCH   1   6
ATOM      2  C   UNL     1       2.421   3.013  17.490  0.00  0.00    +0.000 C 
ATOM      3  C   UNL     1       3.715   3.664  16.969  0.00  0.00    +0.000 C 
ATOM      4  C   UNL     1       4.288   4.739  17.898  0.00  0.00    +0.000 C 
ATOM      5  N   UNL     1       3.249   5.660  18.353  0.00  0.00    +0.000 N 
ATOM      6  C   UNL     1       3.357   7.025  18.102  0.00  0.00    +0.000 C 
ATOM      7  O   UNL     1       4.307   7.505  17.483  0.00  0.00    +0.000 OA
ATOM      8  C   UNL     1       2.134   5.010  19.034  0.00  0.00    +0.000 C 
ATOM      9  C   UNL     1       1.446   4.049  18.071  0.00  0.00    +0.000 C 
BRANCH   2  11
ATOM     10  N   UNL     1       3.794   1.136  18.244  0.00  0.00    +0.000 N 
ATOM     11  C   UNL     1       2.686   1.892  18.490  0.00  0.00    +0.000 C 
ATOM     12  O   UNL     1       1.968   1.638  19.449  0.00  0.00    +0.000 OA
ATOM     13  H   UNL     1       3.912   0.316  18.827  0.00  0.00    +0.000 HD
ATOM     14  H   UNL     1       4.249   1.133  17.341  0.00  0.00    +0.000 HD
ENDBRANCH   2  11
ENDBRANCH   1   6
BRANCH   1  15
ATOM     15  C   UNL     1       2.012   9.147  17.758  0.00  0.00    +0.000 C 
BRANCH  15  16
ATOM     16  C   UNL     1       0.772   9.882  18.197  0.00  0.00    +0.000 A 
ATOM     17  N   UNL     1       0.920  10.862  19.103  0.00  0.00    +0.000 NA
ATOM     18  C   UNL     1      -0.205  11.521  19.410  0.00  0.00    +0.000 A 
ATOM     19  C   UNL     1      -1.461  11.287  18.868  0.00  0.00    +0.000 A 
ATOM     20  C   UNL     1      -2.631  12.013  19.189  0.00  0.00    +0.000 A 
ATOM     21  C   UNL     1      -3.840  11.700  18.573  0.00  0.00    +0.000 A 
ATOM     22  C   UNL     1      -3.883  10.657  17.656  0.00  0.00    +0.000 A 
ATOM     23  C   UNL     1      -2.717   9.942  17.354  0.00  0.00    +0.000 A 
ATOM     24  C   UNL     1      -1.493  10.246  17.942  0.00  0.00    +0.000 A 
ATOM     25  N   UNL     1      -0.392   9.552  17.604  0.00  0.00    +0.000 NA
BRANCH  18  26
ATOM     26  O   UNL     1      -0.012  12.497  20.340  0.00  0.00    +0.000 OA
ATOM     27  H   UNL     1       0.717  12.105  20.852  0.00  0.00    +0.000 HD
ENDBRANCH  18  26
ENDBRANCH  15  16
ENDBRANCH   1  15
TORSDOF 5
ENDMDL
MODEL 5
REMARK VINA RESULT:      -7.5      1.751      2.051
REMARK  Name = 
REMARK  5 active torsions:
REMARK  status: ('A' for Active; 'I' for Inactive)
REMARK    1  A    between atoms: C_2  and  C_4
REMARK    2  A    between atoms: C_8  and  C_10
REMARK    3  A    between atoms: C_10  and  C_11
REMARK    4  A    between atoms: C_11  and  C_12
REMARK    5  A    between atoms: C_14  and  O_15
REMARK                            x       y       z     vdW  Elec       q    Type
REMARK                         _______ _______ _______ _____ _____    ______ ____
ROOT
ATOM      1  C   UNL     1       1.880   7.873  18.005  0.00  0.00    +0.000 C 
ENDROOT
BRANCH   1   6
ATOM      2  C   UNL     1       2.809   2.973  17.341  0.00  0.00    +0.000 C 
ATOM      3  C   UNL     1       4.122   3.737  17.095  0.00  0.00    +0.000 C 
ATOM      4  C   UNL     1       4.342   4.918  18.046  0.00  0.00    +0.000 C 
ATOM      5  N   UNL     1       3.140   5.740  18.164  0.00  0.00    +0.000 N 
ATOM      6  C   UNL     1       3.176   7.092  17.838  0.00  0.00    +0.000 C 
ATOM      7  O   UNL     1       4.198   7.642  17.428  0.00  0.00    +0.000 OA
ATOM      8  C   UNL     1       1.959   5.006  18.606  0.00  0.00    +0.000 C 
ATOM      9  C   UNL     1       1.626   3.923  17.586  0.00  0.00    +0.000 C 
BRANCH   2  11
ATOM     10  N   UNL     1       1.744   1.426  18.904  0.00  0.00    +0.000 N 
ATOM     11  C   UNL     1       2.924   1.945  18.461  0.00  0.00    +0.000 C 
ATOM     12  O   UNL     1       3.982   1.595  18.972  0.00  0.00    +0.000 OA
ATOM     13  H   UNL     1       1.799   0.837  19.727  0.00  0.00    +0.000 HD
ATOM     14  H   UNL     1       0.858   1.871  18.710  0.00  0.00    +0.000 HD
ENDBRANCH   2  11
ENDBRANCH   1   6
BRANCH   1  15
ATOM     15  C   UNL     1       2.090   9.383  17.907  0.00  0.00    +0.000 C 
BRANCH  15  16
ATOM     16  C   UNL     1       1.277  10.097  18.955  0.00  0.00    +0.000 A 
ATOM     17  N   UNL     1       0.747  11.286  18.627  0.00  0.00    +0.000 NA
ATOM     18  C   UNL     1      -0.016  11.845  19.576  0.00  0.00    +0.000 A 
ATOM     19  C   UNL     1      -0.303  11.299  20.818  0.00  0.00    +0.000 A 
ATOM     20  C   UNL     1      -1.132  11.896  21.795  0.00  0.00    +0.000 A 
ATOM     21  C   UNL     1      -1.363  11.252  23.008  0.00  0.00    +0.000 A 
ATOM     22  C   UNL     1      -0.755  10.025  23.249  0.00  0.00    +0.000 A 
ATOM     23  C   UNL     1       0.070   9.450  22.274  0.00  0.00    +0.000 A 
ATOM     24  C   UNL     1       0.303  10.065  21.048  0.00  0.00    +0.000 A 
ATOM     25  N   UNL     1       1.080   9.465  20.130  0.00  0.00    +0.000 NA
BRANCH  18  26
ATOM     26  O   UNL     1      -0.522  13.054  19.206  0.00  0.00    +0.000 OA
ATOM     27  H   UNL     1      -0.530  13.508  20.067  0.00  0.00    +0.000 HD
ENDBRANCH  18  26
ENDBRANCH  15  16
ENDBRANCH   1  15
TORSDOF 5
ENDMDL
MODEL 6
REMARK VINA RESULT:      -7.5      2.413      4.047
REMARK  Name = 
REMARK  5 active torsions:
REMARK  status: ('A' for Active; 'I' for Inactive)
REMARK    1  A    between atoms: C_2  and  C_4
REMARK    2  A    between atoms: C_8  and  C_10
REMARK    3  A    between atoms: C_10  and  C_11
REMARK    4  A    between atoms: C_11  and  C_12
REMARK    5  A    between atoms: C_14  and  O_15
REMARK                            x       y       z     vdW  Elec       q    Type
REMARK                         _______ _______ _______ _____ _____    ______ ____
ROOT
ATOM      1  C   UNL     1       3.029   7.151  18.793  0.00  0.00    +0.000 C 
ENDROOT
BRANCH   1   6
ATOM      2  C   UNL     1       6.546   4.477  16.386  0.00  0.00    +0.000 C 
ATOM      3  C   UNL     1       5.382   3.527  16.721  0.00  0.00    +0.000 C 
ATOM      4  C   UNL     1       3.997   4.164  16.571  0.00  0.00    +0.000 C 
ATOM      5  N   UNL     1       3.944   5.482  17.199  0.00  0.00    +0.000 N 
ATOM      6  C   UNL     1       3.021   5.746  18.206  0.00  0.00    +0.000 C 
ATOM      7  O   UNL     1       2.234   4.893  18.616  0.00  0.00    +0.000 OA
ATOM      8  C   UNL     1       4.940   6.422  16.695  0.00  0.00    +0.000 C 
ATOM      9  C   UNL     1       6.336   5.879  16.980  0.00  0.00    +0.000 C 
BRANCH   2  11
ATOM     10  N   UNL     1       7.746   5.497  14.517  0.00  0.00    +0.000 N 
ATOM     11  C   UNL     1       6.834   4.555  14.891  0.00  0.00    +0.000 C 
ATOM     12  O   UNL     1       6.291   3.854  14.045  0.00  0.00    +0.000 OA
ATOM     13  H   UNL     1       7.854   5.641  13.520  0.00  0.00    +0.000 HD
ATOM     14  H   UNL     1       8.007   6.259  15.128  0.00  0.00    +0.000 HD
ENDBRANCH   2  11
ENDBRANCH   1   6
BRANCH   1  15
ATOM     15  C   UNL     1       2.260   8.149  17.930  0.00  0.00    +0.000 C 
BRANCH  15  16
ATOM     16  C   UNL     1       1.451   9.080  18.796  0.00  0.00    +0.000 A 
ATOM     17  N   UNL     1       0.866  10.132  18.200  0.00  0.00    +0.000 NA
ATOM     18  C   UNL     1       0.110  10.888  19.006  0.00  0.00    +0.000 A 
ATOM     19  C   UNL     1      -0.120  10.665  20.356  0.00  0.00    +0.000 A 
ATOM     20  C   UNL     1      -0.943  11.464  21.182  0.00  0.00    +0.000 A 
ATOM     21  C   UNL     1      -1.113  11.139  22.526  0.00  0.00    +0.000 A 
ATOM     22  C   UNL     1      -0.452  10.032  23.043  0.00  0.00    +0.000 A 
ATOM     23  C   UNL     1       0.366   9.254  22.214  0.00  0.00    +0.000 A 
ATOM     24  C   UNL     1       0.540   9.547  20.865  0.00  0.00    +0.000 A 
ATOM     25  N   UNL     1       1.313   8.759  20.098  0.00  0.00    +0.000 NA
BRANCH  18  26
ATOM     26  O   UNL     1      -0.453  11.949  18.364  0.00  0.00    +0.000 OA
ATOM     27  H   UNL     1      -1.019  11.483  17.724  0.00  0.00    +0.000 HD
ENDBRANCH  18  26
ENDBRANCH  15  16
ENDBRANCH   1  15
TORSDOF 5
ENDMDL
MODEL 7
REMARK VINA RESULT:      -7.4      2.857      4.500
REMARK  Name = 
REMARK  5 active torsions:
REMARK  status: ('A' for Active; 'I' for Inactive)
REMARK    1  A    between atoms: C_2  and  C_4
REMARK    2  A    between atoms: C_8  and  C_10
REMARK    3  A    between atoms: C_10  and  C_11
REMARK    4  A    between atoms: C_11  and  C_12
REMARK    5  A    between atoms: C_14  and  O_15
REMARK                            x       y       z     vdW  Elec       q    Type
REMARK                         _______ _______ _______ _____ _____    ______ ____
ROOT
ATOM      1  C   UNL     1       2.035   7.513  17.839  0.00  0.00    +0.000 C 
ENDROOT
BRANCH   1   6
ATOM      2  C   UNL     1       6.876   6.145  17.880  0.00  0.00    +0.000 C 
ATOM      3  C   UNL     1       6.251   5.698  19.214  0.00  0.00    +0.000 C 
ATOM      4  C   UNL     1       4.819   5.170  19.084  0.00  0.00    +0.000 C 
ATOM      5  N   UNL     1       3.997   6.051  18.259  0.00  0.00    +0.000 N 
ATOM      6  C   UNL     1       2.836   6.619  18.774  0.00  0.00    +0.000 C 
ATOM      7  O   UNL     1       2.465   6.420  19.932  0.00  0.00    +0.000 OA
ATOM      8  C   UNL     1       4.528   6.278  16.919  0.00  0.00    +0.000 C 
ATOM      9  C   UNL     1       5.890   6.955  17.023  0.00  0.00    +0.000 C 
BRANCH   2  11
ATOM     10  N   UNL     1       8.204   4.094  17.807  0.00  0.00    +0.000 N 
ATOM     11  C   UNL     1       7.464   4.984  17.085  0.00  0.00    +0.000 C 
ATOM     12  O   UNL     1       7.326   4.833  15.877  0.00  0.00    +0.000 OA
ATOM     13  H   UNL     1       8.699   3.390  17.272  0.00  0.00    +0.000 HD
ATOM     14  H   UNL     1       8.563   4.319  18.724  0.00  0.00    +0.000 HD
ENDBRANCH   2  11
ENDBRANCH   1   6
BRANCH   1  15
ATOM     15  C   UNL     1       2.300   8.998  18.080  0.00  0.00    +0.000 C 
BRANCH  15  16
ATOM     16  C   UNL     1       1.020   9.710  18.434  0.00  0.00    +0.000 A 
ATOM     17  N   UNL     1       1.048  10.557  19.477  0.00  0.00    +0.000 NA
ATOM     18  C   UNL     1      -0.100  11.207  19.707  0.00  0.00    +0.000 A 
ATOM     19  C   UNL     1      -1.266  11.090  18.966  0.00  0.00    +0.000 A 
ATOM     20  C   UNL     1      -2.460  11.806  19.212  0.00  0.00    +0.000 A 
ATOM     21  C   UNL     1      -3.572  11.618  18.394  0.00  0.00    +0.000 A 
ATOM     22  C   UNL     1      -3.495  10.708  17.346  0.00  0.00    +0.000 A 
ATOM     23  C   UNL     1      -2.308  10.000  17.120  0.00  0.00    +0.000 A 
ATOM     24  C   UNL     1      -1.178  10.182  17.911  0.00  0.00    +0.000 A 
ATOM     25  N   UNL     1      -0.051   9.502  17.642  0.00  0.00    +0.000 NA
BRANCH  18  26
ATOM     26  O   UNL     1      -0.030  12.044  20.779  0.00  0.00    +0.000 OA
ATOM     27  H   UNL     1      -0.945  12.375  20.798  0.00  0.00    +0.000 HD
ENDBRANCH  18  26
ENDBRANCH  15  16
ENDBRANCH   1  15
TORSDOF 5
ENDMDL
MODEL 8
REMARK VINA RESULT:      -7.4      2.374      3.990
REMARK  Name = 
REMARK  5 active torsions:
REMARK  status: ('A' for Active; 'I' for Inactive)
REMARK    1  A    between atoms: C_2  and  C_4
REMARK    2  A    between atoms: C_8  and  C_10
REMARK    3  A    between atoms: C_10  and  C_11
REMARK    4  A    between atoms: C_11  and  C_12
REMARK    5  A    between atoms: C_14  and  O_15
REMARK                            x       y       z     vdW  Elec       q    Type
REMARK                         _______ _______ _______ _____ _____    ______ ____
ROOT
ATOM      1  C   UNL     1       2.356   7.373  18.896  0.00  0.00    +0.000 C 
ENDROOT
BRANCH   1   6
ATOM      2  C   UNL     1       6.302   4.789  17.146  0.00  0.00    +0.000 C 
ATOM      3  C   UNL     1       5.239   3.772  17.599  0.00  0.00    +0.000 C 
ATOM      4  C   UNL     1       3.801   4.194  17.283  0.00  0.00    +0.000 C 
ATOM      5  N   UNL     1       3.556   5.583  17.663  0.00  0.00    +0.000 N 
ATOM      6  C   UNL     1       2.549   5.899  18.571  0.00  0.00    +0.000 C 
ATOM      7  O   UNL     1       1.844   5.037  19.096  0.00  0.00    +0.000 OA
ATOM      8  C   UNL     1       4.463   6.540  17.039  0.00  0.00    +0.000 C 
ATOM      9  C   UNL     1       5.893   6.235  17.471  0.00  0.00    +0.000 C 
BRANCH   2  11
ATOM     10  N   UNL     1       7.490   5.610  15.174  0.00  0.00    +0.000 N 
ATOM     11  C   UNL     1       6.669   4.643  15.672  0.00  0.00    +0.000 C 
ATOM     12  O   UNL     1       6.259   3.747  14.944  0.00  0.00    +0.000 OA
ATOM     13  H   UNL     1       7.641   5.593  14.173  0.00  0.00    +0.000 HD
ATOM     14  H   UNL     1       7.628   6.492  15.650  0.00  0.00    +0.000 HD
ENDBRANCH   2  11
ENDBRANCH   1   6
BRANCH   1  15
ATOM     15  C   UNL     1       1.925   7.601  20.344  0.00  0.00    +0.000 C 
BRANCH  15  16
ATOM     16  C   UNL     1       1.072   8.838  20.451  0.00  0.00    +0.000 A 
ATOM     17  N   UNL     1       0.859   9.545  19.329  0.00  0.00    +0.000 NA
ATOM     18  C   UNL     1       0.044  10.598  19.471  0.00  0.00    +0.000 A 
ATOM     19  C   UNL     1      -0.586  10.989  20.644  0.00  0.00    +0.000 A 
ATOM     20  C   UNL     1      -1.463  12.091  20.766  0.00  0.00    +0.000 A 
ATOM     21  C   UNL     1      -2.052  12.386  21.993  0.00  0.00    +0.000 A 
ATOM     22  C   UNL     1      -1.753  11.594  23.095  0.00  0.00    +0.000 A 
ATOM     23  C   UNL     1      -0.877  10.510  22.960  0.00  0.00    +0.000 A 
ATOM     24  C   UNL     1      -0.288  10.183  21.742  0.00  0.00    +0.000 A 
ATOM     25  N   UNL     1       0.526   9.118  21.651  0.00  0.00    +0.000 NA
BRANCH  18  26
ATOM     26  O   UNL     1      -0.134  11.292  18.313  0.00  0.00    +0.000 OA
ATOM     27  H   UNL     1      -0.403  10.569  17.719  0.00  0.00    +0.000 HD
ENDBRANCH  18  26
ENDBRANCH  15  16
ENDBRANCH   1  15
TORSDOF 5
ENDMDL
MODEL 9
REMARK VINA RESULT:      -7.3      2.295      8.072
REMARK  Name = 
REMARK  5 active torsions:
REMARK  status: ('A' for Active; 'I' for Inactive)
REMARK    1  A    between atoms: C_2  and  C_4
REMARK    2  A    between atoms: C_8  and  C_10
REMARK    3  A    between atoms: C_10  and  C_11
REMARK    4  A    between atoms: C_11  and  C_12
REMARK    5  A    between atoms: C_14  and  O_15
REMARK                            x       y       z     vdW  Elec       q    Type
REMARK                         _______ _______ _______ _____ _____    ______ ____
ROOT
ATOM      1  C   UNL     1       1.830   7.517  19.624  0.00  0.00    +0.000 C 
ENDROOT
BRANCH   1   6
ATOM      2  C   UNL     1      -1.392  11.365  19.275  0.00  0.00    +0.000 C 
ATOM      3  C   UNL     1      -1.037  11.184  20.762  0.00  0.00    +0.000 C 
ATOM      4  C   UNL     1       0.430  10.820  21.011  0.00  0.00    +0.000 C 
ATOM      5  N   UNL     1       0.876   9.756  20.115  0.00  0.00    +0.000 N 
ATOM      6  C   UNL     1       1.376   8.564  20.631  0.00  0.00    +0.000 C 
ATOM      7  O   UNL     1       1.449   8.351  21.842  0.00  0.00    +0.000 OA
ATOM      8  C   UNL     1       0.712  10.063  18.699  0.00  0.00    +0.000 C 
ATOM      9  C   UNL     1      -0.767  10.271  18.395  0.00  0.00    +0.000 C 
BRANCH   2  11
ATOM     10  N   UNL     1      -1.019  12.878  17.393  0.00  0.00    +0.000 N 
ATOM     11  C   UNL     1      -1.043  12.754  18.750  0.00  0.00    +0.000 C 
ATOM     12  O   UNL     1      -0.775  13.715  19.462  0.00  0.00    +0.000 OA
ATOM     13  H   UNL     1      -0.670  13.759  17.033  0.00  0.00    +0.000 HD
ATOM     14  H   UNL     1      -0.965  12.074  16.783  0.00  0.00    +0.000 HD
ENDBRANCH   2  11
ENDBRANCH   1   6
BRANCH   1  15
ATOM     15  C   UNL     1       2.458   6.296  20.292  0.00  0.00    +0.000 C 
BRANCH  15  16
ATOM     16  C   UNL     1       3.425   5.621  19.354  0.00  0.00    +0.000 A 
ATOM     17  N   UNL     1       3.860   4.394  19.686  0.00  0.00    +0.000 NA
ATOM     18  C   UNL     1       4.668   3.819  18.786  0.00  0.00    +0.000 A 
ATOM     19  C   UNL     1       5.061   4.368  17.574  0.00  0.00    +0.000 A 
ATOM     20  C   UNL     1       5.895   3.731  16.627  0.00  0.00    +0.000 A 
ATOM     21  C   UNL     1       6.217   4.372  15.433  0.00  0.00    +0.000 A 
ATOM     22  C   UNL     1       5.720   5.648  15.194  0.00  0.00    +0.000 A 
ATOM     23  C   UNL     1       4.901   6.269  16.146  0.00  0.00    +0.000 A 
ATOM     24  C   UNL     1       4.551   5.644  17.338  0.00  0.00    +0.000 A 
ATOM     25  N   UNL     1       3.739   6.265  18.212  0.00  0.00    +0.000 NA
BRANCH  18  26
ATOM     26  O   UNL     1       5.094   2.584  19.169  0.00  0.00    +0.000 OA
ATOM     27  H   UNL     1       4.674   2.520  20.044  0.00  0.00    +0.000 HD
ENDBRANCH  18  26
ENDBRANCH  15  16
ENDBRANCH   1  15
TORSDOF 5
ENDMDL
