MODEL 1
REMARK VINA RESULT:      -7.0      0.000      0.000
REMARK  Name = 
REMARK  5 active torsions:
REMARK  status: ('A' for Active; 'I' for Inactive)
REMARK    1  A    between atoms: C_1  and  N_2
REMARK    2  A    between atoms: C_3  and  C_4
REMARK    3  A    between atoms: C_4  and  N_5
REMARK    4  A    between atoms: N_8  and  C_9
REMARK    5  A    between atoms: C_9  and  C_10
REMARK                            x       y       z     vdW  Elec       q    Type
REMARK                         _______ _______ _______ _____ _____    ______ ____
ROOT
ATOM      1  N   UNL     1       6.597   5.659  17.039  0.00  0.00    +0.000 NA
ATOM      2  C   UNL     1       7.067   4.299  16.796  0.00  0.00    +0.000 C 
ATOM      3  C   UNL     1       6.182   3.436  15.869  0.00  0.00    +0.000 C 
ATOM      4  N   UNL     1       5.691   4.112  14.661  0.00  0.00    +0.000 NA
ATOM      5  C   UNL     1       5.004   5.349  15.066  0.00  0.00    +0.000 C 
ATOM      6  C   UNL     1       5.820   6.289  15.977  0.00  0.00    +0.000 C 
ENDROOT
BRANCH   1   7
ATOM      7  C   UNL     1       6.293   6.028  18.420  0.00  0.00    +0.000 C 
BRANCH   7  10
ATOM      8  C   UNL     1       3.322   6.987  18.413  0.00  0.00    +0.000 C 
ATOM      9  N   UNL     1       3.812   5.779  19.029  0.00  0.00    +0.000 N 
ATOM     10  C   UNL     1       5.104   5.287  19.007  0.00  0.00    +0.000 A 
ATOM     11  N   UNL     1       5.121   4.052  19.485  0.00  0.00    +0.000 NA
ATOM     12  C   UNL     1       3.835   3.776  19.865  0.00  0.00    +0.000 A 
ATOM     13  C   UNL     1       3.278   2.600  20.405  0.00  0.00    +0.000 A 
ATOM     14  C   UNL     1       1.916   2.580  20.739  0.00  0.00    +0.000 A 
ATOM     15  C   UNL     1       1.121   3.714  20.572  0.00  0.00    +0.000 A 
ATOM     16  C   UNL     1       1.651   4.886  20.023  0.00  0.00    +0.000 A 
ATOM     17  C   UNL     1       3.005   4.865  19.664  0.00  0.00    +0.000 A 
ENDBRANCH   7  10
ENDBRANCH   1   7
BRANCH   4  18
ATOM     18  C   UNL     1       6.723   4.352  13.630  0.00  0.00    +0.000 C 
BRANCH  18  19
ATOM     19  C   UNL     1       6.341   3.910  12.188  0.00  0.00    +0.000 C 
ATOM     20  C   UNL     1       4.846   3.636  12.039  0.00  0.00    +0.000 C 
ATOM     21  C   UNL     1       4.784   2.418  11.154  0.00  0.00    +0.000 C 
ATOM     22  C   UNL     1       6.079   1.703  11.451  0.00  0.00    +0.000 C 
ATOM     23  O   UNL     1       7.028   2.700  11.824  0.00  0.00    +0.000 OA
ENDBRANCH  18  19
ENDBRANCH   4  18
TORSDOF 4
ENDMDL
MODEL 2
REMARK VINA RESULT:      -6.5      3.205      7.501
REMARK  Name = 
REMARK  5 active torsions:
REMARK  status: ('A' for Active; 'I' for Inactive)
REMARK    1  A    between atoms: C_1  and  N_2
REMARK    2  A    between atoms: C_3  and  C_4
REMARK    3  A    between atoms: C_4  and  N_5
REMARK    4  A    between atoms: N_8  and  C_9
REMARK    5  A    between atoms: C_9  and  C_10
REMARK                            x       y       z     vdW  Elec       q    Type
REMARK                         _______ _______ _______ _____ _____    ______ ____
ROOT
ATOM      1  N   UNL     1       5.638   5.810  18.458  0.00  0.00    +0.000 NA
ATOM      2  C   UNL     1       5.249   6.887  17.553  0.00  0.00    +0.000 C 
ATOM      3  C   UNL     1       3.776   6.875  17.087  0.00  0.00    +0.000 C 
ATOM      4  N   UNL     1       2.786   6.606  18.138  0.00  0.00    +0.000 NA
ATOM      5  C   UNL     1       3.150   5.348  18.810  0.00  0.00    +0.000 C 
ATOM      6  C   UNL     1       4.600   5.273  19.331  0.00  0.00    +0.000 C 
ENDROOT
BRANCH   1   7
ATOM      7  C   UNL     1       6.690   4.900  18.007  0.00  0.00    +0.000 C 
BRANCH   7  10
ATOM      8  C   UNL     1       4.648   3.311  16.262  0.00  0.00    +0.000 C 
ATOM      9  N   UNL     1       5.842   3.957  15.776  0.00  0.00    +0.000 N 
ATOM     10  C   UNL     1       6.740   4.717  16.500  0.00  0.00    +0.000 A 
ATOM     11  N   UNL     1       7.579   5.326  15.675  0.00  0.00    +0.000 NA
ATOM     12  C   UNL     1       7.244   4.903  14.416  0.00  0.00    +0.000 A 
ATOM     13  C   UNL     1       7.784   5.257  13.164  0.00  0.00    +0.000 A 
ATOM     14  C   UNL     1       7.272   4.654  12.005  0.00  0.00    +0.000 A 
ATOM     15  C   UNL     1       6.264   3.692  12.083  0.00  0.00    +0.000 A 
ATOM     16  C   UNL     1       5.704   3.339  13.315  0.00  0.00    +0.000 A 
ATOM     17  C   UNL     1       6.209   3.985  14.451  0.00  0.00    +0.000 A 
ENDBRANCH   7  10
ENDBRANCH   1   7
BRANCH   4  18
ATOM     18  C   UNL     1       2.589   7.717  19.094  0.00  0.00    +0.000 C 
BRANCH  18  19
ATOM     19  C   UNL     1       1.473   8.732  18.715  0.00  0.00    +0.000 C 
ATOM     20  C   UNL     1       2.025   9.970  18.009  0.00  0.00    +0.000 C 
ATOM     21  C   UNL     1       1.219  11.107  18.581  0.00  0.00    +0.000 C 
ATOM     22  C   UNL     1       0.848  10.616  19.959  0.00  0.00    +0.000 C 
ATOM     23  O   UNL     1       0.779   9.193  19.888  0.00  0.00    +0.000 OA
ENDBRANCH  18  19
ENDBRANCH   4  18
TORSDOF 4
ENDMDL
MODEL 3
REMARK VINA RESULT:      -6.4      5.201      8.199
REMARK  Name = 
REMARK  5 active torsions:
REMARK  status: ('A' for Active; 'I' for Inactive)
REMARK    1  A    between atoms: C_1  and  N_2
REMARK    2  A    between atoms: C_3  and  C_4
REMARK    3  A    between atoms: C_4  and  N_5
REMARK    4  A    between atoms: N_8  and  C_9
REMARK    5  A    between atoms: C_9  and  C_10
REMARK                            x       y       z     vdW  Elec       q    Type
REMARK                         _______ _______ _______ _____ _____    ______ ____
ROOT
ATOM      1  N   UNL     1       0.861   8.664  20.342  0.00  0.00    +0.000 NA
ATOM      2  C   UNL     1      -0.028   9.145  21.395  0.00  0.00    +0.000 C 
ATOM      3  C   UNL     1      -0.098  10.679  21.567  0.00  0.00    +0.000 C 
ATOM      4  N   UNL     1      -0.197  11.448  20.320  0.00  0.00    +0.000 NA
ATOM      5  C   UNL     1       0.916  11.054  19.441  0.00  0.00    +0.000 C 
ATOM      6  C   UNL     1       1.054   9.538  19.190  0.00  0.00    +0.000 C 
ENDROOT
BRANCH   1   7
ATOM      7  C   UNL     1       1.973   7.804  20.741  0.00  0.00    +0.000 C 
BRANCH   7  10
ATOM      8  C   UNL     1       3.330   6.823  18.107  0.00  0.00    +0.000 C 
ATOM      9  N   UNL     1       2.479   6.029  18.958  0.00  0.00    +0.000 N 
ATOM     10  C   UNL     1       1.906   6.402  20.159  0.00  0.00    +0.000 A 
ATOM     11  N   UNL     1       1.381   5.341  20.754  0.00  0.00    +0.000 NA
ATOM     12  C   UNL     1       1.575   4.292  19.895  0.00  0.00    +0.000 A 
ATOM     13  C   UNL     1       1.246   2.929  20.036  0.00  0.00    +0.000 A 
ATOM     14  C   UNL     1       1.533   2.046  18.983  0.00  0.00    +0.000 A 
ATOM     15  C   UNL     1       2.107   2.507  17.798  0.00  0.00    +0.000 A 
ATOM     16  C   UNL     1       2.455   3.853  17.646  0.00  0.00    +0.000 A 
ATOM     17  C   UNL     1       2.192   4.704  18.727  0.00  0.00    +0.000 A 
ENDBRANCH   7  10
ENDBRANCH   1   7
BRANCH   4  18
ATOM     18  C   UNL     1      -1.509  11.355  19.644  0.00  0.00    +0.000 C 
BRANCH  18  19
ATOM     19  C   UNL     1      -1.474  10.789  18.196  0.00  0.00    +0.000 C 
ATOM     20  C   UNL     1      -2.027  11.776  17.169  0.00  0.00    +0.000 C 
ATOM     21  C   UNL     1      -2.816  10.913  16.220  0.00  0.00    +0.000 C 
ATOM     22  C   UNL     1      -3.256   9.755  17.082  0.00  0.00    +0.000 C 
ATOM     23  O   UNL     1      -2.265   9.592  18.095  0.00  0.00    +0.000 OA
ENDBRANCH  18  19
ENDBRANCH   4  18
TORSDOF 4
ENDMDL
MODEL 4
REMARK VINA RESULT:      -6.3      5.591      8.522
REMARK  Name = 
REMARK  5 active torsions:
REMARK  status: ('A' for Active; 'I' for Inactive)
REMARK    1  A    between atoms: C_1  and  N_2
REMARK    2  A    between atoms: C_3  and  C_4
REMARK    3  A    between atoms: C_4  and  N_5
REMARK    4  A    between atoms: N_8  and  C_9
REMARK    5  A    between atoms: C_9  and  C_10
REMARK                            x       y       z     vdW  Elec       q    Type
REMARK                         _______ _______ _______ _____ _____    ______ ____
ROOT
ATOM      1  N   UNL     1       1.115   9.039  19.630  0.00  0.00    +0.000 NA
ATOM      2  C   UNL     1      -0.021   9.554  20.389  0.00  0.00    +0.000 C 
ATOM      3  C   UNL     1      -0.094  11.091  20.531  0.00  0.00    +0.000 C 
ATOM      4  N   UNL     1       0.183  11.850  19.305  0.00  0.00    +0.000 NA
ATOM      5  C   UNL     1       1.487  11.418  18.775  0.00  0.00    +0.000 C 
ATOM      6  C   UNL     1       1.648   9.896  18.577  0.00  0.00    +0.000 C 
ENDROOT
BRANCH   1   7
ATOM      7  C   UNL     1       2.045   8.155  20.329  0.00  0.00    +0.000 C 
BRANCH   7  10
ATOM      8  C   UNL     1       3.453   6.812  17.888  0.00  0.00    +0.000 C 
ATOM      9  N   UNL     1       2.537   6.161  18.790  0.00  0.00    +0.000 N 
ATOM     10  C   UNL     1       1.937   6.697  19.913  0.00  0.00    +0.000 A 
ATOM     11  N   UNL     1       1.344   5.737  20.607  0.00  0.00    +0.000 NA
ATOM     12  C   UNL     1       1.523   4.586  19.887  0.00  0.00    +0.000 A 
ATOM     13  C   UNL     1       1.128   3.264  20.173  0.00  0.00    +0.000 A 
ATOM     14  C   UNL     1       1.414   2.251  19.245  0.00  0.00    +0.000 A 
ATOM     15  C   UNL     1       2.051   2.543  18.039  0.00  0.00    +0.000 A 
ATOM     16  C   UNL     1       2.464   3.846  17.743  0.00  0.00    +0.000 A 
ATOM     17  C   UNL     1       2.199   4.830  18.705  0.00  0.00    +0.000 A 
ENDBRANCH   7  10
ENDBRANCH   1   7
BRANCH   4  18
ATOM     18  C   UNL     1      -0.887  11.784  18.287  0.00  0.00    +0.000 C 
BRANCH  18  19
ATOM     19  C   UNL     1      -2.194  11.072  18.739  0.00  0.00    +0.000 C 
ATOM     20  C   UNL     1      -2.665  10.023  17.732  0.00  0.00    +0.000 C 
ATOM     21  C   UNL     1      -4.164  10.181  17.714  0.00  0.00    +0.000 C 
ATOM     22  C   UNL     1      -4.367  11.633  18.070  0.00  0.00    +0.000 C 
ATOM     23  O   UNL     1      -3.267  12.017  18.892  0.00  0.00    +0.000 OA
ENDBRANCH  18  19
ENDBRANCH   4  18
TORSDOF 4
ENDMDL
MODEL 5
REMARK VINA RESULT:      -6.2      1.206      2.151
REMARK  Name = 
REMARK  5 active torsions:
REMARK  status: ('A' for Active; 'I' for Inactive)
REMARK    1  A    between atoms: C_1  and  N_2
REMARK    2  A    between atoms: C_3  and  C_4
REMARK    3  A    between atoms: C_4  and  N_5
REMARK    4  A    between atoms: N_8  and  C_9
REMARK    5  A    between atoms: C_9  and  C_10
REMARK                            x       y       z     vdW  Elec       q    Type
REMARK                         _______ _______ _______ _____ _____    ______ ____
ROOT
ATOM      1  N   UNL     1       4.705   6.240  16.466  0.00  0.00    +0.000 NA
ATOM      2  C   UNL     1       5.999   6.795  16.083  0.00  0.00    +0.000 C 
ATOM      3  C   UNL     1       7.179   5.797  16.058  0.00  0.00    +0.000 C 
ATOM      4  N   UNL     1       6.891   4.498  15.436  0.00  0.00    +0.000 NA
ATOM      5  C   UNL     1       5.707   3.920  16.093  0.00  0.00    +0.000 C 
ATOM      6  C   UNL     1       4.468   4.836  16.146  0.00  0.00    +0.000 C 
ENDROOT
BRANCH   1   7
ATOM      7  C   UNL     1       4.066   6.787  17.661  0.00  0.00    +0.000 C 
BRANCH   7  10
ATOM      8  C   UNL     1       5.617   4.861  19.565  0.00  0.00    +0.000 C 
ATOM      9  N   UNL     1       4.191   4.864  19.355  0.00  0.00    +0.000 N 
ATOM     10  C   UNL     1       3.458   5.732  18.570  0.00  0.00    +0.000 A 
ATOM     11  N   UNL     1       2.164   5.565  18.804  0.00  0.00    +0.000 NA
ATOM     12  C   UNL     1       2.074   4.541  19.708  0.00  0.00    +0.000 A 
ATOM     13  C   UNL     1       0.943   3.972  20.328  0.00  0.00    +0.000 A 
ATOM     14  C   UNL     1       1.118   2.897  21.212  0.00  0.00    +0.000 A 
ATOM     15  C   UNL     1       2.387   2.371  21.458  0.00  0.00    +0.000 A 
ATOM     16  C   UNL     1       3.522   2.932  20.865  0.00  0.00    +0.000 A 
ATOM     17  C   UNL     1       3.321   4.028  20.016  0.00  0.00    +0.000 A 
ENDBRANCH   7  10
ENDBRANCH   1   7
BRANCH   4  18
ATOM     18  C   UNL     1       6.754   4.540  13.964  0.00  0.00    +0.000 C 
BRANCH  18  19
ATOM     19  C   UNL     1       6.032   3.318  13.327  0.00  0.00    +0.000 C 
ATOM     20  C   UNL     1       6.749   2.801  12.081  0.00  0.00    +0.000 C 
ATOM     21  C   UNL     1       5.630   2.452  11.134  0.00  0.00    +0.000 C 
ATOM     22  C   UNL     1       4.522   3.392  11.539  0.00  0.00    +0.000 C 
ATOM     23  O   UNL     1       4.694   3.663  12.929  0.00  0.00    +0.000 OA
ENDBRANCH  18  19
ENDBRANCH   4  18
TORSDOF 4
ENDMDL
MODEL 6
REMARK VINA RESULT:      -6.2      6.133      9.484
REMARK  Name = 
REMARK  5 active torsions:
REMARK  status: ('A' for Active; 'I' for Inactive)
REMARK    1  A    between atoms: C_1  and  N_2
REMARK    2  A    between atoms: C_3  and  C_4
REMARK    3  A    between atoms: C_4  and  N_5
REMARK    4  A    between atoms: N_8  and  C_9
REMARK    5  A    between atoms: C_9  and  C_10
REMARK                            x       y       z     vdW  Elec       q    Type
REMARK                         _______ _______ _______ _____ _____    ______ ____
ROOT
ATOM      1  N   UNL     1       0.921   8.707  20.189  0.00  0.00    +0.000 NA
ATOM      2  C   UNL     1       0.033   9.051  21.294  0.00  0.00    +0.000 C 
ATOM      3  C   UNL     1      -0.128  10.560  21.584  0.00  0.00    +0.000 C 
ATOM      4  N   UNL     1      -0.308  11.412  20.401  0.00  0.00    +0.000 NA
ATOM      5  C   UNL     1       0.804  11.156  19.470  0.00  0.00    +0.000 C 
ATOM      6  C   UNL     1       1.029   9.675  19.103  0.00  0.00    +0.000 C 
ENDROOT
BRANCH   1   7
ATOM      7  C   UNL     1       2.095   7.892  20.498  0.00  0.00    +0.000 C 
BRANCH   7  10
ATOM      8  C   UNL     1       3.466   6.712  17.954  0.00  0.00    +0.000 C 
ATOM      9  N   UNL     1       2.579   5.997  18.836  0.00  0.00    +0.000 N 
ATOM     10  C   UNL     1       1.997   6.460  20.001  0.00  0.00    +0.000 A 
ATOM     11  N   UNL     1       1.432   5.453  20.651  0.00  0.00    +0.000 NA
ATOM     12  C   UNL     1       1.610   4.347  19.862  0.00  0.00    +0.000 A 
ATOM     13  C   UNL     1       1.239   3.006  20.080  0.00  0.00    +0.000 A 
ATOM     14  C   UNL     1       1.517   2.051  19.090  0.00  0.00    +0.000 A 
ATOM     15  C   UNL     1       2.124   2.421  17.889  0.00  0.00    +0.000 A 
ATOM     16  C   UNL     1       2.513   3.745  17.660  0.00  0.00    +0.000 A 
ATOM     17  C   UNL     1       2.257   4.669  18.682  0.00  0.00    +0.000 A 
ENDBRANCH   7  10
ENDBRANCH   1   7
BRANCH   4  18
ATOM     18  C   UNL     1      -1.629  11.285  19.748  0.00  0.00    +0.000 C 
BRANCH  18  19
ATOM     19  C   UNL     1      -2.577  12.505  19.923  0.00  0.00    +0.000 C 
ATOM     20  C   UNL     1      -2.960  12.744  21.383  0.00  0.00    +0.000 C 
ATOM     21  C   UNL     1      -4.416  13.125  21.322  0.00  0.00    +0.000 C 
ATOM     22  C   UNL     1      -4.912  12.418  20.085  0.00  0.00    +0.000 C 
ATOM     23  O   UNL     1      -3.803  12.310  19.195  0.00  0.00    +0.000 OA
ENDBRANCH  18  19
ENDBRANCH   4  18
TORSDOF 4
ENDMDL
MODEL 7
REMARK VINA RESULT:      -6.1      5.035      8.613
REMARK  Name = 
REMARK  5 active torsions:
REMARK  status: ('A' for Active; 'I' for Inactive)
REMARK    1  A    between atoms: C_1  and  N_2
REMARK    2  A    between atoms: C_3  and  C_4
REMARK    3  A    between atoms: C_4  and  N_5
REMARK    4  A    between atoms: N_8  and  C_9
REMARK    5  A    between atoms: C_9  and  C_10
REMARK                            x       y       z     vdW  Elec       q    Type
REMARK                         _______ _______ _______ _____ _____    ______ ____
ROOT
ATOM      1  N   UNL     1       1.830   8.242  19.931  0.00  0.00    +0.000 NA
ATOM      2  C   UNL     1       1.662   8.982  18.684  0.00  0.00    +0.000 C 
ATOM      3  C   UNL     1       0.364   9.812  18.564  0.00  0.00    +0.000 C 
ATOM      4  N   UNL     1      -0.002  10.584  19.759  0.00  0.00    +0.000 NA
ATOM      5  C   UNL     1      -0.051   9.667  20.909  0.00  0.00    +0.000 C 
ATOM      6  C   UNL     1       1.213   8.810  21.124  0.00  0.00    +0.000 C 
ENDROOT
BRANCH   1   7
ATOM      7  C   UNL     1       1.932   6.787  19.840  0.00  0.00    +0.000 C 
BRANCH   7  10
ATOM      8  C   UNL     1       2.113   3.890  18.693  0.00  0.00    +0.000 C 
ATOM      9  N   UNL     1       2.960   4.995  18.318  0.00  0.00    +0.000 N 
ATOM     10  C   UNL     1       2.878   6.303  18.754  0.00  0.00    +0.000 A 
ATOM     11  N   UNL     1       3.674   7.070  18.024  0.00  0.00    +0.000 NA
ATOM     12  C   UNL     1       4.309   6.230  17.149  0.00  0.00    +0.000 A 
ATOM     13  C   UNL     1       5.235   6.513  16.125  0.00  0.00    +0.000 A 
ATOM     14  C   UNL     1       5.767   5.454  15.374  0.00  0.00    +0.000 A 
ATOM     15  C   UNL     1       5.413   4.133  15.648  0.00  0.00    +0.000 A 
ATOM     16  C   UNL     1       4.484   3.832  16.649  0.00  0.00    +0.000 A 
ATOM     17  C   UNL     1       3.941   4.912  17.358  0.00  0.00    +0.000 A 
ENDBRANCH   7  10
ENDBRANCH   1   7
BRANCH   4  18
ATOM     18  C   UNL     1       0.856  11.762  20.014  0.00  0.00    +0.000 C 
BRANCH  18  19
ATOM     19  C   UNL     1       1.085  12.697  18.793  0.00  0.00    +0.000 C 
ATOM     20  C   UNL     1       2.560  12.811  18.412  0.00  0.00    +0.000 C 
ATOM     21  C   UNL     1       2.735  14.264  18.054  0.00  0.00    +0.000 C 
ATOM     22  C   UNL     1       1.686  14.959  18.887  0.00  0.00    +0.000 C 
ATOM     23  O   UNL     1       0.620  14.029  19.073  0.00  0.00    +0.000 OA
ENDBRANCH  18  19
ENDBRANCH   4  18
TORSDOF 4
ENDMDL
MODEL 8
REMARK VINA RESULT:      -6.1      5.983      9.571
REMARK  Name = 
REMARK  5 active torsions:
REMARK  status: ('A' for Active; 'I' for Inactive)
REMARK    1  A    between atoms: C_1  and  N_2
REMARK    2  A    between atoms: C_3  and  C_4
REMARK    3  A    between atoms: C_4  and  N_5
REMARK    4  A    between atoms: N_8  and  C_9
REMARK    5  A    between atoms: C_9  and  C_10
REMARK                            x       y       z     vdW  Elec       q    Type
REMARK                         _______ _______ _______ _____ _____    ______ ____
ROOT
ATOM      1  N   UNL     1       1.350   8.527  19.993  0.00  0.00    +0.000 NA
ATOM      2  C   UNL     1       1.330   8.247  21.425  0.00  0.00    +0.000 C 
ATOM      3  C   UNL     1       1.433   9.478  22.353  0.00  0.00    +0.000 C 
ATOM      4  N   UNL     1       0.602  10.626  21.969  0.00  0.00    +0.000 NA
ATOM      5  C   UNL     1       0.908  10.976  20.572  0.00  0.00    +0.000 C 
ATOM      6  C   UNL     1       0.809   9.813  19.564  0.00  0.00    +0.000 C 
ENDROOT
BRANCH   1   7
ATOM      7  C   UNL     1       2.438   7.948  19.209  0.00  0.00    +0.000 C 
BRANCH   7  10
ATOM      8  C   UNL     1       4.144   6.191  17.274  0.00  0.00    +0.000 C 
ATOM      9  N   UNL     1       3.068   5.717  18.107  0.00  0.00    +0.000 N 
ATOM     10  C   UNL     1       2.327   6.445  19.019  0.00  0.00    +0.000 A 
ATOM     11  N   UNL     1       1.587   5.625  19.751  0.00  0.00    +0.000 NA
ATOM     12  C   UNL     1       1.820   4.367  19.262  0.00  0.00    +0.000 A 
ATOM     13  C   UNL     1       1.322   3.120  19.687  0.00  0.00    +0.000 A 
ATOM     14  C   UNL     1       1.700   1.961  18.990  0.00  0.00    +0.000 A 
ATOM     15  C   UNL     1       2.531   2.037  17.872  0.00  0.00    +0.000 A 
ATOM     16  C   UNL     1       3.048   3.264  17.444  0.00  0.00    +0.000 A 
ATOM     17  C   UNL     1       2.684   4.399  18.181  0.00  0.00    +0.000 A 
ENDBRANCH   7  10
ENDBRANCH   1   7
BRANCH   4  18
ATOM     18  C   UNL     1      -0.847  10.439  22.198  0.00  0.00    +0.000 C 
BRANCH  18  19
ATOM     19  C   UNL     1      -1.569  11.624  22.901  0.00  0.00    +0.000 C 
ATOM     20  C   UNL     1      -2.564  12.330  21.981  0.00  0.00    +0.000 C 
ATOM     21  C   UNL     1      -2.393  13.791  22.309  0.00  0.00    +0.000 C 
ATOM     22  C   UNL     1      -0.958  13.881  22.766  0.00  0.00    +0.000 C 
ATOM     23  O   UNL     1      -0.623  12.617  23.335  0.00  0.00    +0.000 OA
ENDBRANCH  18  19
ENDBRANCH   4  18
TORSDOF 4
ENDMDL
MODEL 9
REMARK VINA RESULT:      -6.0      5.097      8.187
REMARK  Name = 
REMARK  5 active torsions:
REMARK  status: ('A' for Active; 'I' for Inactive)
REMARK    1  A    between atoms: C_1  and  N_2
REMARK    2  A    between atoms: C_3  and  C_4
REMARK    3  A    between atoms: C_4  and  N_5
REMARK    4  A    between atoms: N_8  and  C_9
REMARK    5  A    between atoms: C_9  and  C_10
REMARK                            x       y       z     vdW  Elec       q    Type
REMARK                         _______ _______ _______ _____ _____    ______ ____
ROOT
ATOM      1  N   UNL     1       1.696   8.476  18.819  0.00  0.00    +0.000 NA
ATOM      2  C   UNL     1       1.366   8.565  20.238  0.00  0.00    +0.000 C 
ATOM      3  C   UNL     1       1.195   9.995  20.800  0.00  0.00    +0.000 C 
ATOM      4  N   UNL     1       0.417  10.913  19.959  0.00  0.00    +0.000 NA
ATOM      5  C   UNL     1       1.014  10.930  18.613  0.00  0.00    +0.000 C 
ATOM      6  C   UNL     1       1.204   9.546  17.958  0.00  0.00    +0.000 C 
ENDROOT
BRANCH   1   7
ATOM      7  C   UNL     1       2.961   7.838  18.462  0.00  0.00    +0.000 C 
BRANCH   7  10
ATOM      8  C   UNL     1       4.852   5.897  16.913  0.00  0.00    +0.000 C 
ATOM      9  N   UNL     1       3.737   5.502  17.737  0.00  0.00    +0.000 N 
ATOM     10  C   UNL     1       2.912   6.320  18.485  0.00  0.00    +0.000 A 
ATOM     11  N   UNL     1       2.151   5.582  19.281  0.00  0.00    +0.000 NA
ATOM     12  C   UNL     1       2.459   4.279  18.995  0.00  0.00    +0.000 A 
ATOM     13  C   UNL     1       1.974   3.084  19.564  0.00  0.00    +0.000 A 
ATOM     14  C   UNL     1       2.437   1.856  19.069  0.00  0.00    +0.000 A 
ATOM     15  C   UNL     1       3.339   1.806  18.006  0.00  0.00    +0.000 A 
ATOM     16  C   UNL     1       3.843   2.980  17.438  0.00  0.00    +0.000 A 
ATOM     17  C   UNL     1       3.393   4.192  17.977  0.00  0.00    +0.000 A 
ENDBRANCH   7  10
ENDBRANCH   1   7
BRANCH   4  18
ATOM     18  C   UNL     1      -1.035  10.635  19.927  0.00  0.00    +0.000 C 
BRANCH  18  19
ATOM     19  C   UNL     1      -1.791  11.183  18.683  0.00  0.00    +0.000 C 
ATOM     20  C   UNL     1      -3.039  11.979  19.062  0.00  0.00    +0.000 C 
ATOM     21  C   UNL     1      -4.058  11.577  18.028  0.00  0.00    +0.000 C 
ATOM     22  C   UNL     1      -3.635  10.180  17.645  0.00  0.00    +0.000 C 
ATOM     23  O   UNL     1      -2.223  10.107  17.831  0.00  0.00    +0.000 OA
ENDBRANCH  18  19
ENDBRANCH   4  18
TORSDOF 4
ENDMDL
