MODEL 1
REMARK VINA RESULT:      -7.7      0.000      0.000
REMARK  Name = 
REMARK  9 active torsions:
REMARK  status: ('A' for Active; 'I' for Inactive)
REMARK    1  A    between atoms: C_1  and  C_2
REMARK    2  A    between atoms: C_2  and  O_3
REMARK    3  A    between atoms: O_3  and  C_4
REMARK    4  A    between atoms: C_10  and  C_12
REMARK    5  A    between atoms: C_12  and  S_13
REMARK    6  A    between atoms: S_13  and  C_14
REMARK    7  A    between atoms: C_14  and  C_15
REMARK    8  A    between atoms: C_15  and  N_17
REMARK    9  A    between atoms: N_26  and  C_27
REMARK                            x       y       z     vdW  Elec       q    Type
REMARK                         _______ _______ _______ _____ _____    ______ ____
ROOT
ATOM      1  S   UNL     1       8.135   8.943  17.865  0.00  0.00    +0.000 S 
ENDROOT
BRANCH   1   2
ATOM      2  C   UNL     1       7.909   7.170  18.254  0.00  0.00    +0.000 C 
BRANCH   2   9
ATOM      3  C   UNL     1       2.776   3.322  18.081  0.00  0.00    +0.000 C 
ATOM      4  O   UNL     1       2.222   2.756  17.148  0.00  0.00    +0.000 OA
ATOM      5  N   UNL     1       4.052   3.830  18.026  0.00  0.00    +0.000 N 
ATOM      6  C   UNL     1       4.796   3.783  16.767  0.00  0.00    +0.000 C 
ATOM      7  C   UNL     1       5.215   5.192  16.327  0.00  0.00    +0.000 C 
ATOM      8  N   UNL     1       5.924   5.894  17.407  0.00  0.00    +0.000 N 
ATOM      9  C   UNL     1       7.143   6.489  17.131  0.00  0.00    +0.000 C 
ATOM     10  O   UNL     1       7.653   6.428  16.008  0.00  0.00    +0.000 OA
ATOM     11  C   UNL     1       5.188   5.945  18.682  0.00  0.00    +0.000 C 
ATOM     12  C   UNL     1       4.710   4.548  19.122  0.00  0.00    +0.000 C 
BRANCH   3  13
ATOM     13  O   UNL     1       2.166   3.599  19.265  0.00  0.00    +0.000 OA
BRANCH  13  15
ATOM     14  C   UNL     1       1.482   2.849  21.426  0.00  0.00    +0.000 C 
ATOM     15  C   UNL     1       1.659   2.457  19.968  0.00  0.00    +0.000 C 
ENDBRANCH  13  15
ENDBRANCH   3  13
ENDBRANCH   2   9
ENDBRANCH   1   2
BRANCH   1  16
ATOM     16  C   UNL     1       9.219   9.453  19.261  0.00  0.00    +0.000 C 
BRANCH  16  17
ATOM     17  C   UNL     1       9.287  10.965  19.471  0.00  0.00    +0.000 C 
ATOM     18  O   UNL     1       8.996  11.504  20.530  0.00  0.00    +0.000 OA
BRANCH  17  19
ATOM     19  N   UNL     1       9.866  11.648  18.421  0.00  0.00    +0.000 NA
ATOM     20  C   UNL     1       9.837  12.949  18.402  0.00  0.00    +0.000 A 
ATOM     21  S   UNL     1       8.897  13.995  19.506  0.00  0.00    +0.000 S 
ATOM     22  C   UNL     1       9.503  15.453  18.690  0.00  0.00    +0.000 A 
ATOM     23  C   UNL     1       9.173  16.769  18.989  0.00  0.00    +0.000 A 
ATOM     24  C   UNL     1       9.734  17.784  18.215  0.00  0.00    +0.000 A 
ATOM     25  C   UNL     1      10.621  17.469  17.180  0.00  0.00    +0.000 A 
ATOM     26  C   UNL     1      10.949  16.135  16.897  0.00  0.00    +0.000 A 
ATOM     27  C   UNL     1      10.380  15.108  17.648  0.00  0.00    +0.000 A 
ATOM     28  N   UNL     1      10.535  13.725  17.482  0.00  0.00    +0.000 N 
ATOM     29  C   UNL     1      11.541  13.148  16.614  0.00  0.00    +0.000 C 
ENDBRANCH  17  19
ENDBRANCH  16  17
ENDBRANCH   1  16
TORSDOF 7
ENDMDL
MODEL 2
REMARK VINA RESULT:      -7.6      1.356      1.645
REMARK  Name = 
REMARK  9 active torsions:
REMARK  status: ('A' for Active; 'I' for Inactive)
REMARK    1  A    between atoms: C_1  and  C_2
REMARK    2  A    between atoms: C_2  and  O_3
REMARK    3  A    between atoms: O_3  and  C_4
REMARK    4  A    between atoms: C_10  and  C_12
REMARK    5  A    between atoms: C_12  and  S_13
REMARK    6  A    between atoms: S_13  and  C_14
REMARK    7  A    between atoms: C_14  and  C_15
REMARK    8  A    between atoms: C_15  and  N_17
REMARK    9  A    between atoms: N_26  and  C_27
REMARK                            x       y       z     vdW  Elec       q    Type
REMARK                         _______ _______ _______ _____ _____    ______ ____
ROOT
ATOM      1  S   UNL     1       7.614   8.933  17.647  0.00  0.00    +0.000 S 
ENDROOT
BRANCH   1   2
ATOM      2  C   UNL     1       7.815   7.160  18.051  0.00  0.00    +0.000 C 
BRANCH   2   9
ATOM      3  C   UNL     1       2.341   3.820  18.280  0.00  0.00    +0.000 C 
ATOM      4  O   UNL     1       1.793   3.108  17.448  0.00  0.00    +0.000 OA
ATOM      5  N   UNL     1       3.663   4.193  18.225  0.00  0.00    +0.000 N 
ATOM      6  C   UNL     1       4.477   3.803  17.074  0.00  0.00    +0.000 C 
ATOM      7  C   UNL     1       5.064   5.036  16.377  0.00  0.00    +0.000 C 
ATOM      8  N   UNL     1       5.770   5.899  17.335  0.00  0.00    +0.000 N 
ATOM      9  C   UNL     1       7.058   6.312  17.041  0.00  0.00    +0.000 C 
ATOM     10  O   UNL     1       7.630   5.959  16.006  0.00  0.00    +0.000 OA
ATOM     11  C   UNL     1       4.963   6.296  18.501  0.00  0.00    +0.000 C 
ATOM     12  C   UNL     1       4.318   5.079  19.191  0.00  0.00    +0.000 C 
BRANCH   3  13
ATOM     13  O   UNL     1       1.687   4.405  19.320  0.00  0.00    +0.000 OA
BRANCH  13  15
ATOM     14  C   UNL     1       1.889   3.038  21.266  0.00  0.00    +0.000 C 
ATOM     15  C   UNL     1       0.955   3.504  20.161  0.00  0.00    +0.000 C 
ENDBRANCH  13  15
ENDBRANCH   3  13
ENDBRANCH   2   9
ENDBRANCH   1   2
BRANCH   1  16
ATOM     16  C   UNL     1       8.937   9.664  18.697  0.00  0.00    +0.000 C 
BRANCH  16  17
ATOM     17  C   UNL     1       9.495  10.981  18.161  0.00  0.00    +0.000 C 
ATOM     18  O   UNL     1      10.596  11.072  17.635  0.00  0.00    +0.000 OA
BRANCH  17  19
ATOM     19  N   UNL     1       8.583  12.017  18.166  0.00  0.00    +0.000 NA
ATOM     20  C   UNL     1       8.993  13.238  18.348  0.00  0.00    +0.000 A 
ATOM     21  S   UNL     1      10.640  13.731  18.840  0.00  0.00    +0.000 S 
ATOM     22  C   UNL     1      10.169  15.445  18.810  0.00  0.00    +0.000 A 
ATOM     23  C   UNL     1      10.974  16.532  19.127  0.00  0.00    +0.000 A 
ATOM     24  C   UNL     1      10.415  17.807  19.070  0.00  0.00    +0.000 A 
ATOM     25  C   UNL     1       9.082  17.973  18.680  0.00  0.00    +0.000 A 
ATOM     26  C   UNL     1       8.287  16.864  18.354  0.00  0.00    +0.000 A 
ATOM     27  C   UNL     1       8.824  15.581  18.428  0.00  0.00    +0.000 A 
ATOM     28  N   UNL     1       8.180  14.357  18.203  0.00  0.00    +0.000 N 
ATOM     29  C   UNL     1       6.864  14.263  17.604  0.00  0.00    +0.000 C 
ENDBRANCH  17  19
ENDBRANCH  16  17
ENDBRANCH   1  16
TORSDOF 7
ENDMDL
MODEL 3
REMARK VINA RESULT:      -7.4      6.204      9.297
REMARK  Name = 
REMARK  9 active torsions:
REMARK  status: ('A' for Active; 'I' for Inactive)
REMARK    1  A    between atoms: C_1  and  C_2
REMARK    2  A    between atoms: C_2  and  O_3
REMARK    3  A    between atoms: O_3  and  C_4
REMARK    4  A    between atoms: C_10  and  C_12
REMARK    5  A    between atoms: C_12  and  S_13
REMARK    6  A    between atoms: S_13  and  C_14
REMARK    7  A    between atoms: C_14  and  C_15
REMARK    8  A    between atoms: C_15  and  N_17
REMARK    9  A    between atoms: N_26  and  C_27
REMARK                            x       y       z     vdW  Elec       q    Type
REMARK                         _______ _______ _______ _____ _____    ______ ____
ROOT
ATOM      1  S   UNL     1       1.391   3.892  19.325  0.00  0.00    +0.000 S 
ENDROOT
BRANCH   1   2
ATOM      2  C   UNL     1       2.013   5.272  20.353  0.00  0.00    +0.000 C 
BRANCH   2   9
ATOM      3  C   UNL     1      -0.144  11.297  20.826  0.00  0.00    +0.000 C 
ATOM      4  O   UNL     1      -0.020  12.260  20.081  0.00  0.00    +0.000 OA
ATOM      5  N   UNL     1       0.072   9.994  20.444  0.00  0.00    +0.000 N 
ATOM      6  C   UNL     1       0.558   9.706  19.095  0.00  0.00    +0.000 C 
ATOM      7  C   UNL     1       1.882   8.932  19.144  0.00  0.00    +0.000 C 
ATOM      8  N   UNL     1       1.765   7.741  19.997  0.00  0.00    +0.000 N 
ATOM      9  C   UNL     1       2.180   6.517  19.498  0.00  0.00    +0.000 C 
ATOM     10  O   UNL     1       2.626   6.404  18.352  0.00  0.00    +0.000 OA
ATOM     11  C   UNL     1       1.272   8.015  21.357  0.00  0.00    +0.000 C 
ATOM     12  C   UNL     1      -0.031   8.837  21.338  0.00  0.00    +0.000 C 
BRANCH   3  13
ATOM     13  O   UNL     1      -0.424  11.401  22.153  0.00  0.00    +0.000 OA
BRANCH  13  15
ATOM     14  C   UNL     1      -1.303  13.331  23.249  0.00  0.00    +0.000 C 
ATOM     15  C   UNL     1      -1.650  12.078  22.462  0.00  0.00    +0.000 C 
ENDBRANCH  13  15
ENDBRANCH   3  13
ENDBRANCH   2   9
ENDBRANCH   1   2
BRANCH   1  16
ATOM     16  C   UNL     1       2.562   2.560  19.814  0.00  0.00    +0.000 C 
BRANCH  16  17
ATOM     17  C   UNL     1       3.418   2.035  18.661  0.00  0.00    +0.000 C 
ATOM     18  O   UNL     1       3.696   0.851  18.525  0.00  0.00    +0.000 OA
BRANCH  17  19
ATOM     19  N   UNL     1       3.701   2.984  17.700  0.00  0.00    +0.000 NA
ATOM     20  C   UNL     1       4.655   3.845  17.904  0.00  0.00    +0.000 A 
ATOM     21  S   UNL     1       5.529   4.099  19.443  0.00  0.00    +0.000 S 
ATOM     22  C   UNL     1       6.518   5.380  18.706  0.00  0.00    +0.000 A 
ATOM     23  C   UNL     1       7.496   6.140  19.335  0.00  0.00    +0.000 A 
ATOM     24  C   UNL     1       8.150   7.121  18.593  0.00  0.00    +0.000 A 
ATOM     25  C   UNL     1       7.833   7.310  17.244  0.00  0.00    +0.000 A 
ATOM     26  C   UNL     1       6.849   6.527  16.622  0.00  0.00    +0.000 A 
ATOM     27  C   UNL     1       6.171   5.556  17.356  0.00  0.00    +0.000 A 
ATOM     28  N   UNL     1       5.125   4.724  16.934  0.00  0.00    +0.000 N 
ATOM     29  C   UNL     1       4.745   4.587  15.542  0.00  0.00    +0.000 C 
ENDBRANCH  17  19
ENDBRANCH  16  17
ENDBRANCH   1  16
TORSDOF 7
ENDMDL
MODEL 4
REMARK VINA RESULT:      -7.3      2.713     11.219
REMARK  Name = 
REMARK  9 active torsions:
REMARK  status: ('A' for Active; 'I' for Inactive)
REMARK    1  A    between atoms: C_1  and  C_2
REMARK    2  A    between atoms: C_2  and  O_3
REMARK    3  A    between atoms: O_3  and  C_4
REMARK    4  A    between atoms: C_10  and  C_12
REMARK    5  A    between atoms: C_12  and  S_13
REMARK    6  A    between atoms: S_13  and  C_14
REMARK    7  A    between atoms: C_14  and  C_15
REMARK    8  A    between atoms: C_15  and  N_17
REMARK    9  A    between atoms: N_26  and  C_27
REMARK                            x       y       z     vdW  Elec       q    Type
REMARK                         _______ _______ _______ _____ _____    ______ ____
ROOT
ATOM      1  S   UNL     1       8.153   9.459  17.753  0.00  0.00    +0.000 S 
ENDROOT
BRANCH   1   2
ATOM      2  C   UNL     1       9.200   9.962  19.166  0.00  0.00    +0.000 C 
BRANCH   2   9
ATOM      3  C   UNL     1       8.939  16.044  21.194  0.00  0.00    +0.000 C 
ATOM      4  O   UNL     1       9.557  17.041  20.842  0.00  0.00    +0.000 OA
ATOM      5  N   UNL     1       8.847  14.891  20.451  0.00  0.00    +0.000 N 
ATOM      6  C   UNL     1       9.585  14.780  19.193  0.00  0.00    +0.000 C 
ATOM      7  C   UNL     1      10.538  13.579  19.223  0.00  0.00    +0.000 C 
ATOM      8  N   UNL     1       9.828  12.349  19.602  0.00  0.00    +0.000 N 
ATOM      9  C   UNL     1       9.973  11.221  18.813  0.00  0.00    +0.000 C 
ATOM     10  O   UNL     1      10.670  11.231  17.793  0.00  0.00    +0.000 OA
ATOM     11  C   UNL     1       9.076  12.448  20.865  0.00  0.00    +0.000 C 
ATOM     12  C   UNL     1       8.148  13.677  20.882  0.00  0.00    +0.000 C 
BRANCH   3  13
ATOM     13  O   UNL     1       8.339  15.919  22.409  0.00  0.00    +0.000 OA
BRANCH  13  15
ATOM     14  C   UNL     1       8.878  14.816  24.456  0.00  0.00    +0.000 C 
ATOM     15  C   UNL     1       9.228  15.972  23.533  0.00  0.00    +0.000 C 
ENDBRANCH  13  15
ENDBRANCH   3  13
ENDBRANCH   2   9
ENDBRANCH   1   2
BRANCH   1  16
ATOM     16  C   UNL     1       7.890   7.681  18.150  0.00  0.00    +0.000 C 
BRANCH  16  17
ATOM     17  C   UNL     1       7.103   6.919  17.085  0.00  0.00    +0.000 C 
ATOM     18  O   UNL     1       7.633   6.171  16.275  0.00  0.00    +0.000 OA
BRANCH  17  19
ATOM     19  N   UNL     1       5.734   7.016  17.228  0.00  0.00    +0.000 NA
ATOM     20  C   UNL     1       5.090   6.113  17.906  0.00  0.00    +0.000 A 
ATOM     21  S   UNL     1       5.767   4.572  18.512  0.00  0.00    +0.000 S 
ATOM     22  C   UNL     1       4.200   4.128  19.224  0.00  0.00    +0.000 A 
ATOM     23  C   UNL     1       3.899   2.954  19.904  0.00  0.00    +0.000 A 
ATOM     24  C   UNL     1       2.599   2.774  20.370  0.00  0.00    +0.000 A 
ATOM     25  C   UNL     1       1.636   3.768  20.169  0.00  0.00    +0.000 A 
ATOM     26  C   UNL     1       1.959   4.952  19.488  0.00  0.00    +0.000 A 
ATOM     27  C   UNL     1       3.249   5.138  18.997  0.00  0.00    +0.000 A 
ATOM     28  N   UNL     1       3.745   6.213  18.247  0.00  0.00    +0.000 N 
ATOM     29  C   UNL     1       3.010   7.450  18.071  0.00  0.00    +0.000 C 
ENDBRANCH  17  19
ENDBRANCH  16  17
ENDBRANCH   1  16
TORSDOF 7
ENDMDL
MODEL 5
REMARK VINA RESULT:      -7.2      3.143     10.744
REMARK  Name = 
REMARK  9 active torsions:
REMARK  status: ('A' for Active; 'I' for Inactive)
REMARK    1  A    between atoms: C_1  and  C_2
REMARK    2  A    between atoms: C_2  and  O_3
REMARK    3  A    between atoms: O_3  and  C_4
REMARK    4  A    between atoms: C_10  and  C_12
REMARK    5  A    between atoms: C_12  and  S_13
REMARK    6  A    between atoms: S_13  and  C_14
REMARK    7  A    between atoms: C_14  and  C_15
REMARK    8  A    between atoms: C_15  and  N_17
REMARK    9  A    between atoms: N_26  and  C_27
REMARK                            x       y       z     vdW  Elec       q    Type
REMARK                         _______ _______ _______ _____ _____    ______ ____
ROOT
ATOM      1  S   UNL     1       7.684   9.388  17.768  0.00  0.00    +0.000 S 
ENDROOT
BRANCH   1   2
ATOM      2  C   UNL     1       9.216   9.967  18.582  0.00  0.00    +0.000 C 
BRANCH   2   9
ATOM      3  C   UNL     1       8.334  13.907  23.569  0.00  0.00    +0.000 C 
ATOM      4  O   UNL     1       8.266  15.128  23.633  0.00  0.00    +0.000 OA
ATOM      5  N   UNL     1       8.182  13.185  22.409  0.00  0.00    +0.000 N 
ATOM      6  C   UNL     1       8.008  13.888  21.138  0.00  0.00    +0.000 C 
ATOM      7  C   UNL     1       9.105  13.494  20.141  0.00  0.00    +0.000 C 
ATOM      8  N   UNL     1       9.192  12.033  20.002  0.00  0.00    +0.000 N 
ATOM      9  C   UNL     1       9.181  11.479  18.733  0.00  0.00    +0.000 C 
ATOM     10  O   UNL     1       9.081  12.182  17.722  0.00  0.00    +0.000 OA
ATOM     11  C   UNL     1       9.364  11.313  21.275  0.00  0.00    +0.000 C 
ATOM     12  C   UNL     1       8.305  11.728  22.313  0.00  0.00    +0.000 C 
BRANCH   3  13
ATOM     13  O   UNL     1       8.658  13.114  24.627  0.00  0.00    +0.000 OA
BRANCH  13  15
ATOM     14  C   UNL     1       6.647  12.471  25.740  0.00  0.00    +0.000 C 
ATOM     15  C   UNL     1       7.889  13.343  25.815  0.00  0.00    +0.000 C 
ENDBRANCH  13  15
ENDBRANCH   3  13
ENDBRANCH   2   9
ENDBRANCH   1   2
BRANCH   1  16
ATOM     16  C   UNL     1       7.860   7.569  17.984  0.00  0.00    +0.000 C 
BRANCH  16  17
ATOM     17  C   UNL     1       6.991   6.747  17.035  0.00  0.00    +0.000 C 
ATOM     18  O   UNL     1       7.451   5.919  16.259  0.00  0.00    +0.000 OA
BRANCH  17  19
ATOM     19  N   UNL     1       5.636   6.894  17.250  0.00  0.00    +0.000 NA
ATOM     20  C   UNL     1       4.992   6.006  17.948  0.00  0.00    +0.000 A 
ATOM     21  S   UNL     1       5.637   4.430  18.494  0.00  0.00    +0.000 S 
ATOM     22  C   UNL     1       4.092   4.035  19.281  0.00  0.00    +0.000 A 
ATOM     23  C   UNL     1       3.781   2.863  19.958  0.00  0.00    +0.000 A 
ATOM     24  C   UNL     1       2.500   2.726  20.489  0.00  0.00    +0.000 A 
ATOM     25  C   UNL     1       1.569   3.761  20.353  0.00  0.00    +0.000 A 
ATOM     26  C   UNL     1       1.903   4.942  19.674  0.00  0.00    +0.000 A 
ATOM     27  C   UNL     1       3.172   5.085  19.119  0.00  0.00    +0.000 A 
ATOM     28  N   UNL     1       3.671   6.153  18.360  0.00  0.00    +0.000 N 
ATOM     29  C   UNL     1       2.979   7.420  18.241  0.00  0.00    +0.000 C 
ENDBRANCH  17  19
ENDBRANCH  16  17
ENDBRANCH   1  16
TORSDOF 7
ENDMDL
MODEL 6
REMARK VINA RESULT:      -7.2      7.114      9.906
REMARK  Name = 
REMARK  9 active torsions:
REMARK  status: ('A' for Active; 'I' for Inactive)
REMARK    1  A    between atoms: C_1  and  C_2
REMARK    2  A    between atoms: C_2  and  O_3
REMARK    3  A    between atoms: O_3  and  C_4
REMARK    4  A    between atoms: C_10  and  C_12
REMARK    5  A    between atoms: C_12  and  S_13
REMARK    6  A    between atoms: S_13  and  C_14
REMARK    7  A    between atoms: C_14  and  C_15
REMARK    8  A    between atoms: C_15  and  N_17
REMARK    9  A    between atoms: N_26  and  C_27
REMARK                            x       y       z     vdW  Elec       q    Type
REMARK                         _______ _______ _______ _____ _____    ______ ____
ROOT
ATOM      1  S   UNL     1       1.449   5.918  20.596  0.00  0.00    +0.000 S 
ENDROOT
BRANCH   1   2
ATOM      2  C   UNL     1       2.733   7.020  19.900  0.00  0.00    +0.000 C 
BRANCH   2   9
ATOM      3  C   UNL     1      -1.488  11.852  19.999  0.00  0.00    +0.000 C 
ATOM      4  O   UNL     1      -1.987  12.508  19.094  0.00  0.00    +0.000 OA
ATOM      5  N   UNL     1      -0.871  10.636  19.821  0.00  0.00    +0.000 N 
ATOM      6  C   UNL     1      -0.709  10.099  18.470  0.00  0.00    +0.000 C 
ATOM      7  C   UNL     1       0.772   9.847  18.157  0.00  0.00    +0.000 C 
ATOM      8  N   UNL     1       1.401   9.025  19.200  0.00  0.00    +0.000 N 
ATOM      9  C   UNL     1       2.125   7.906  18.825  0.00  0.00    +0.000 C 
ATOM     10  O   UNL     1       2.238   7.576  17.641  0.00  0.00    +0.000 OA
ATOM     11  C   UNL     1       1.240   9.552  20.566  0.00  0.00    +0.000 C 
ATOM     12  C   UNL     1      -0.233   9.863  20.890  0.00  0.00    +0.000 C 
BRANCH   3  13
ATOM     13  O   UNL     1      -1.404  12.285  21.286  0.00  0.00    +0.000 OA
BRANCH  13  15
ATOM     14  C   UNL     1      -2.591  11.991  23.336  0.00  0.00    +0.000 C 
ATOM     15  C   UNL     1      -2.662  12.545  21.922  0.00  0.00    +0.000 C 
ENDBRANCH  13  15
ENDBRANCH   3  13
ENDBRANCH   2   9
ENDBRANCH   1   2
BRANCH   1  16
ATOM     16  C   UNL     1       1.582   4.487  19.446  0.00  0.00    +0.000 C 
BRANCH  16  17
ATOM     17  C   UNL     1       2.643   3.465  19.851  0.00  0.00    +0.000 C 
ATOM     18  O   UNL     1       2.378   2.301  20.119  0.00  0.00    +0.000 OA
BRANCH  17  19
ATOM     19  N   UNL     1       3.938   3.924  19.720  0.00  0.00    +0.000 NA
ATOM     20  C   UNL     1       4.465   4.041  18.537  0.00  0.00    +0.000 A 
ATOM     21  S   UNL     1       3.761   3.437  17.008  0.00  0.00    +0.000 S 
ATOM     22  C   UNL     1       5.152   4.052  16.088  0.00  0.00    +0.000 A 
ATOM     23  C   UNL     1       5.360   3.934  14.719  0.00  0.00    +0.000 A 
ATOM     24  C   UNL     1       6.531   4.462  14.180  0.00  0.00    +0.000 A 
ATOM     25  C   UNL     1       7.456   5.110  15.007  0.00  0.00    +0.000 A 
ATOM     26  C   UNL     1       7.225   5.228  16.386  0.00  0.00    +0.000 A 
ATOM     27  C   UNL     1       6.069   4.687  16.943  0.00  0.00    +0.000 A 
ATOM     28  N   UNL     1       5.692   4.650  18.292  0.00  0.00    +0.000 N 
ATOM     29  C   UNL     1       6.374   5.414  19.317  0.00  0.00    +0.000 C 
ENDBRANCH  17  19
ENDBRANCH  16  17
ENDBRANCH   1  16
TORSDOF 7
ENDMDL
MODEL 7
REMARK VINA RESULT:      -7.2      7.018     10.054
REMARK  Name = 
REMARK  9 active torsions:
REMARK  status: ('A' for Active; 'I' for Inactive)
REMARK    1  A    between atoms: C_1  and  C_2
REMARK    2  A    between atoms: C_2  and  O_3
REMARK    3  A    between atoms: O_3  and  C_4
REMARK    4  A    between atoms: C_10  and  C_12
REMARK    5  A    between atoms: C_12  and  S_13
REMARK    6  A    between atoms: S_13  and  C_14
REMARK    7  A    between atoms: C_14  and  C_15
REMARK    8  A    between atoms: C_15  and  N_17
REMARK    9  A    between atoms: N_26  and  C_27
REMARK                            x       y       z     vdW  Elec       q    Type
REMARK                         _______ _______ _______ _____ _____    ______ ____
ROOT
ATOM      1  S   UNL     1       1.181   4.925  20.468  0.00  0.00    +0.000 S 
ENDROOT
BRANCH   1   2
ATOM      2  C   UNL     1       2.201   6.430  20.672  0.00  0.00    +0.000 C 
BRANCH   2   9
ATOM      3  C   UNL     1      -0.685  11.953  19.143  0.00  0.00    +0.000 C 
ATOM      4  O   UNL     1      -0.743  12.570  18.087  0.00  0.00    +0.000 OA
ATOM      5  N   UNL     1      -0.329  10.629  19.245  0.00  0.00    +0.000 N 
ATOM      6  C   UNL     1       0.093   9.900  18.049  0.00  0.00    +0.000 C 
ATOM      7  C   UNL     1       1.506   9.330  18.226  0.00  0.00    +0.000 C 
ATOM      8  N   UNL     1       1.608   8.545  19.464  0.00  0.00    +0.000 N 
ATOM      9  C   UNL     1       2.142   7.269  19.406  0.00  0.00    +0.000 C 
ATOM     10  O   UNL     1       2.516   6.773  18.339  0.00  0.00    +0.000 OA
ATOM     11  C   UNL     1       1.182   9.266  20.676  0.00  0.00    +0.000 C 
ATOM     12  C   UNL     1      -0.215   9.893  20.507  0.00  0.00    +0.000 C 
BRANCH   3  13
ATOM     13  O   UNL     1      -0.881  12.525  20.362  0.00  0.00    +0.000 OA
BRANCH  13  15
ATOM     14  C   UNL     1      -3.263  12.647  20.459  0.00  0.00    +0.000 C 
ATOM     15  C   UNL     1      -1.974  13.452  20.429  0.00  0.00    +0.000 C 
ENDBRANCH  13  15
ENDBRANCH   3  13
ENDBRANCH   2   9
ENDBRANCH   1   2
BRANCH   1  16
ATOM     16  C   UNL     1       2.084   3.759  21.568  0.00  0.00    +0.000 C 
BRANCH  16  17
ATOM     17  C   UNL     1       3.092   2.874  20.837  0.00  0.00    +0.000 C 
ATOM     18  O   UNL     1       3.850   2.109  21.418  0.00  0.00    +0.000 OA
BRANCH  17  19
ATOM     19  N   UNL     1       2.953   2.888  19.464  0.00  0.00    +0.000 NA
ATOM     20  C   UNL     1       3.865   3.453  18.728  0.00  0.00    +0.000 A 
ATOM     21  S   UNL     1       5.221   4.457  19.321  0.00  0.00    +0.000 S 
ATOM     22  C   UNL     1       5.799   4.711  17.659  0.00  0.00    +0.000 A 
ATOM     23  C   UNL     1       6.893   5.474  17.269  0.00  0.00    +0.000 A 
ATOM     24  C   UNL     1       7.176   5.576  15.908  0.00  0.00    +0.000 A 
ATOM     25  C   UNL     1       6.382   4.904  14.973  0.00  0.00    +0.000 A 
ATOM     26  C   UNL     1       5.286   4.132  15.385  0.00  0.00    +0.000 A 
ATOM     27  C   UNL     1       4.977   4.037  16.741  0.00  0.00    +0.000 A 
ATOM     28  N   UNL     1       3.900   3.370  17.340  0.00  0.00    +0.000 N 
ATOM     29  C   UNL     1       3.050   2.446  16.615  0.00  0.00    +0.000 C 
ENDBRANCH  17  19
ENDBRANCH  16  17
ENDBRANCH   1  16
TORSDOF 7
ENDMDL
MODEL 8
REMARK VINA RESULT:      -7.1      2.613     11.466
REMARK  Name = 
REMARK  9 active torsions:
REMARK  status: ('A' for Active; 'I' for Inactive)
REMARK    1  A    between atoms: C_1  and  C_2
REMARK    2  A    between atoms: C_2  and  O_3
REMARK    3  A    between atoms: O_3  and  C_4
REMARK    4  A    between atoms: C_10  and  C_12
REMARK    5  A    between atoms: C_12  and  S_13
REMARK    6  A    between atoms: S_13  and  C_14
REMARK    7  A    between atoms: C_14  and  C_15
REMARK    8  A    between atoms: C_15  and  N_17
REMARK    9  A    between atoms: N_26  and  C_27
REMARK                            x       y       z     vdW  Elec       q    Type
REMARK                         _______ _______ _______ _____ _____    ______ ____
ROOT
ATOM      1  S   UNL     1       8.426   9.726  17.840  0.00  0.00    +0.000 S 
ENDROOT
BRANCH   1   2
ATOM      2  C   UNL     1       9.310  10.235  19.359  0.00  0.00    +0.000 C 
BRANCH   2   9
ATOM      3  C   UNL     1       8.817  16.627  19.622  0.00  0.00    +0.000 C 
ATOM      4  O   UNL     1       9.603  17.512  19.309  0.00  0.00    +0.000 OA
ATOM      5  N   UNL     1       8.915  15.323  19.198  0.00  0.00    +0.000 N 
ATOM      6  C   UNL     1      10.060  14.910  18.387  0.00  0.00    +0.000 C 
ATOM      7  C   UNL     1      10.827  13.769  19.067  0.00  0.00    +0.000 C 
ATOM      8  N   UNL     1       9.926  12.664  19.422  0.00  0.00    +0.000 N 
ATOM      9  C   UNL     1      10.263  11.376  19.043  0.00  0.00    +0.000 C 
ATOM     10  O   UNL     1      11.291  11.140  18.400  0.00  0.00    +0.000 OA
ATOM     11  C   UNL     1       8.765  13.067  20.235  0.00  0.00    +0.000 C 
ATOM     12  C   UNL     1       8.005  14.247  19.600  0.00  0.00    +0.000 C 
BRANCH   3  13
ATOM     13  O   UNL     1       7.795  16.804  20.503  0.00  0.00    +0.000 OA
BRANCH  13  15
ATOM     14  C   UNL     1       6.747  18.629  21.629  0.00  0.00    +0.000 C 
ATOM     15  C   UNL     1       6.998  17.975  20.280  0.00  0.00    +0.000 C 
ENDBRANCH  13  15
ENDBRANCH   3  13
ENDBRANCH   2   9
ENDBRANCH   1   2
BRANCH   1  16
ATOM     16  C   UNL     1       8.013   7.984  18.265  0.00  0.00    +0.000 C 
BRANCH  16  17
ATOM     17  C   UNL     1       7.281   7.233  17.153  0.00  0.00    +0.000 C 
ATOM     18  O   UNL     1       7.848   6.480  16.373  0.00  0.00    +0.000 OA
BRANCH  17  19
ATOM     19  N   UNL     1       5.907   7.345  17.216  0.00  0.00    +0.000 NA
ATOM     20  C   UNL     1       5.179   6.280  17.386  0.00  0.00    +0.000 A 
ATOM     21  S   UNL     1       5.758   4.590  17.318  0.00  0.00    +0.000 S 
ATOM     22  C   UNL     1       4.120   3.983  17.644  0.00  0.00    +0.000 A 
ATOM     23  C   UNL     1       3.728   2.653  17.726  0.00  0.00    +0.000 A 
ATOM     24  C   UNL     1       2.385   2.372  17.965  0.00  0.00    +0.000 A 
ATOM     25  C   UNL     1       1.469   3.415  18.138  0.00  0.00    +0.000 A 
ATOM     26  C   UNL     1       1.883   4.753  18.061  0.00  0.00    +0.000 A 
ATOM     27  C   UNL     1       3.219   5.050  17.801  0.00  0.00    +0.000 A 
ATOM     28  N   UNL     1       3.810   6.309  17.630  0.00  0.00    +0.000 N 
ATOM     29  C   UNL     1       3.124   7.546  17.948  0.00  0.00    +0.000 C 
ENDBRANCH  17  19
ENDBRANCH  16  17
ENDBRANCH   1  16
TORSDOF 7
ENDMDL
MODEL 9
REMARK VINA RESULT:      -7.1      1.687      2.142
REMARK  Name = 
REMARK  9 active torsions:
REMARK  status: ('A' for Active; 'I' for Inactive)
REMARK    1  A    between atoms: C_1  and  C_2
REMARK    2  A    between atoms: C_2  and  O_3
REMARK    3  A    between atoms: O_3  and  C_4
REMARK    4  A    between atoms: C_10  and  C_12
REMARK    5  A    between atoms: C_12  and  S_13
REMARK    6  A    between atoms: S_13  and  C_14
REMARK    7  A    between atoms: C_14  and  C_15
REMARK    8  A    between atoms: C_15  and  N_17
REMARK    9  A    between atoms: N_26  and  C_27
REMARK                            x       y       z     vdW  Elec       q    Type
REMARK                         _______ _______ _______ _____ _____    ______ ____
ROOT
ATOM      1  S   UNL     1       7.898   8.881  17.702  0.00  0.00    +0.000 S 
ENDROOT
BRANCH   1   2
ATOM      2  C   UNL     1       7.826   7.099  18.107  0.00  0.00    +0.000 C 
BRANCH   2   9
ATOM      3  C   UNL     1       2.695   3.246  18.148  0.00  0.00    +0.000 C 
ATOM      4  O   UNL     1       2.142   2.627  17.248  0.00  0.00    +0.000 OA
ATOM      5  N   UNL     1       3.971   3.751  18.066  0.00  0.00    +0.000 N 
ATOM      6  C   UNL     1       4.717   3.631  16.813  0.00  0.00    +0.000 C 
ATOM      7  C   UNL     1       5.137   5.012  16.293  0.00  0.00    +0.000 C 
ATOM      8  N   UNL     1       5.844   5.775  17.332  0.00  0.00    +0.000 N 
ATOM      9  C   UNL     1       7.064   6.353  17.025  0.00  0.00    +0.000 C 
ATOM     10  O   UNL     1       7.576   6.227  15.908  0.00  0.00    +0.000 OA
ATOM     11  C   UNL     1       5.105   5.900  18.600  0.00  0.00    +0.000 C 
ATOM     12  C   UNL     1       4.626   4.531  19.119  0.00  0.00    +0.000 C 
BRANCH   3  13
ATOM     13  O   UNL     1       2.082   3.592  19.313  0.00  0.00    +0.000 OA
BRANCH  13  15
ATOM     14  C   UNL     1       1.925   2.877  21.585  0.00  0.00    +0.000 C 
ATOM     15  C   UNL     1       1.680   2.489  20.136  0.00  0.00    +0.000 C 
ENDBRANCH  13  15
ENDBRANCH   3  13
ENDBRANCH   2   9
ENDBRANCH   1   2
BRANCH   1  16
ATOM     16  C   UNL     1       8.915   9.500  19.105  0.00  0.00    +0.000 C 
BRANCH  16  17
ATOM     17  C   UNL     1       9.480  10.903  18.888  0.00  0.00    +0.000 C 
ATOM     18  O   UNL     1       9.636  11.393  17.778  0.00  0.00    +0.000 OA
BRANCH  17  19
ATOM     19  N   UNL     1       9.635  11.628  20.052  0.00  0.00    +0.000 NA
ATOM     20  C   UNL     1      10.038  12.863  19.994  0.00  0.00    +0.000 A 
ATOM     21  S   UNL     1      10.659  13.699  18.541  0.00  0.00    +0.000 S 
ATOM     22  C   UNL     1      10.911  15.194  19.470  0.00  0.00    +0.000 A 
ATOM     23  C   UNL     1      11.436  16.388  18.994  0.00  0.00    +0.000 A 
ATOM     24  C   UNL     1      11.582  17.449  19.886  0.00  0.00    +0.000 A 
ATOM     25  C   UNL     1      11.185  17.305  21.220  0.00  0.00    +0.000 A 
ATOM     26  C   UNL     1      10.648  16.094  21.681  0.00  0.00    +0.000 A 
ATOM     27  C   UNL     1      10.516  15.017  20.807  0.00  0.00    +0.000 A 
ATOM     28  N   UNL     1      10.062  13.722  21.089  0.00  0.00    +0.000 N 
ATOM     29  C   UNL     1       9.415  13.373  22.338  0.00  0.00    +0.000 C 
ENDBRANCH  17  19
ENDBRANCH  16  17
ENDBRANCH   1  16
TORSDOF 7
ENDMDL
