MODEL 1
REMARK VINA RESULT:      -7.0      0.000      0.000
REMARK  Name = 
REMARK  5 active torsions:
REMARK  status: ('A' for Active; 'I' for Inactive)
REMARK    1  A    between atoms: C_1  and  C_2
REMARK    2  A    between atoms: C_6  and  C_7
REMARK    3  A    between atoms: C_7  and  O_8
REMARK    4  A    between atoms: C_7  and  C_9
REMARK    5  A    between atoms: C_15  and  O_16
REMARK                            x       y       z     vdW  Elec       q    Type
REMARK                         _______ _______ _______ _____ _____    ______ ____
ROOT
ATOM      1  C   UNL     1       0.631   2.218  18.867  0.00  0.00    +0.000 C 
ATOM      2  C   UNL     1       1.344   3.509  19.158  0.00  0.00    +0.000 A 
ATOM      3  C   UNL     1       1.216   4.122  20.407  0.00  0.00    +0.000 A 
ATOM      4  C   UNL     1       1.869   5.326  20.674  0.00  0.00    +0.000 A 
ATOM      5  C   UNL     1       2.657   5.927  19.692  0.00  0.00    +0.000 A 
ATOM      6  C   UNL     1       2.804   5.335  18.425  0.00  0.00    +0.000 A 
ATOM      7  C   UNL     1       2.131   4.126  18.178  0.00  0.00    +0.000 A 
ENDROOT
BRANCH   7   8
ATOM      8  O   UNL     1       2.245   3.477  16.976  0.00  0.00    +0.000 OA
ATOM      9  H   UNL     1       1.476   2.895  16.845  0.00  0.00    +0.000 HD
ENDBRANCH   7   8
BRANCH   6  10
ATOM     10  C   UNL     1       3.693   6.012  17.394  0.00  0.00    +0.000 C 
BRANCH  10  11
ATOM     11  C   UNL     1       5.097   5.436  17.281  0.00  0.00    +0.000 A 
ATOM     12  C   UNL     1       6.039   5.573  18.311  0.00  0.00    +0.000 A 
ATOM     13  C   UNL     1       7.323   5.088  18.114  0.00  0.00    +0.000 A 
ATOM     14  N   UNL     1       7.724   4.458  16.990  0.00  0.00    +0.000 NA
ATOM     15  C   UNL     1       6.797   4.287  16.027  0.00  0.00    +0.000 A 
ATOM     16  C   UNL     1       5.490   4.744  16.128  0.00  0.00    +0.000 A 
ENDBRANCH  10  11
BRANCH  10  17
ATOM     17  O   UNL     1       3.794   7.408  17.699  0.00  0.00    +0.000 OA
ATOM     18  H   UNL     1       4.701   7.697  17.493  0.00  0.00    +0.000 HD
ENDBRANCH  10  17
ENDBRANCH   6  10
TORSDOF 4
ENDMDL
MODEL 2
REMARK VINA RESULT:      -6.9      1.290      2.032
REMARK  Name = 
REMARK  5 active torsions:
REMARK  status: ('A' for Active; 'I' for Inactive)
REMARK    1  A    between atoms: C_1  and  C_2
REMARK    2  A    between atoms: C_6  and  C_7
REMARK    3  A    between atoms: C_7  and  O_8
REMARK    4  A    between atoms: C_7  and  C_9
REMARK    5  A    between atoms: C_15  and  O_16
REMARK                            x       y       z     vdW  Elec       q    Type
REMARK                         _______ _______ _______ _____ _____    ______ ____
ROOT
ATOM      1  C   UNL     1       2.054   3.434  21.819  0.00  0.00    +0.000 C 
ATOM      2  C   UNL     1       2.102   3.420  20.317  0.00  0.00    +0.000 A 
ATOM      3  C   UNL     1       1.415   2.441  19.595  0.00  0.00    +0.000 A 
ATOM      4  C   UNL     1       1.467   2.422  18.201  0.00  0.00    +0.000 A 
ATOM      5  C   UNL     1       2.209   3.385  17.516  0.00  0.00    +0.000 A 
ATOM      6  C   UNL     1       2.912   4.382  18.214  0.00  0.00    +0.000 A 
ATOM      7  C   UNL     1       2.849   4.377  19.618  0.00  0.00    +0.000 A 
ENDROOT
BRANCH   7   8
ATOM      8  O   UNL     1       3.488   5.331  20.367  0.00  0.00    +0.000 OA
ATOM      9  H   UNL     1       2.978   5.505  21.178  0.00  0.00    +0.000 HD
ENDBRANCH   7   8
BRANCH   6  10
ATOM     10  C   UNL     1       3.685   5.427  17.426  0.00  0.00    +0.000 C 
BRANCH  10  11
ATOM     11  C   UNL     1       5.134   5.069  17.133  0.00  0.00    +0.000 A 
ATOM     12  C   UNL     1       6.126   5.121  18.123  0.00  0.00    +0.000 A 
ATOM     13  C   UNL     1       7.439   4.851  17.772  0.00  0.00    +0.000 A 
ATOM     14  N   UNL     1       7.829   4.509  16.527  0.00  0.00    +0.000 NA
ATOM     15  C   UNL     1       6.862   4.414  15.594  0.00  0.00    +0.000 A 
ATOM     16  C   UNL     1       5.522   4.672  15.846  0.00  0.00    +0.000 A 
ENDBRANCH  10  11
BRANCH  10  17
ATOM     17  O   UNL     1       3.656   6.672  18.135  0.00  0.00    +0.000 OA
ATOM     18  H   UNL     1       2.831   7.133  17.900  0.00  0.00    +0.000 HD
ENDBRANCH  10  17
ENDBRANCH   6  10
TORSDOF 4
ENDMDL
MODEL 3
REMARK VINA RESULT:      -6.9      0.197      1.179
REMARK  Name = 
REMARK  5 active torsions:
REMARK  status: ('A' for Active; 'I' for Inactive)
REMARK    1  A    between atoms: C_1  and  C_2
REMARK    2  A    between atoms: C_6  and  C_7
REMARK    3  A    between atoms: C_7  and  O_8
REMARK    4  A    between atoms: C_7  and  C_9
REMARK    5  A    between atoms: C_15  and  O_16
REMARK                            x       y       z     vdW  Elec       q    Type
REMARK                         _______ _______ _______ _____ _____    ______ ____
ROOT
ATOM      1  C   UNL     1       0.724   2.256  18.842  0.00  0.00    +0.000 C 
ATOM      2  C   UNL     1       1.386   3.574  19.130  0.00  0.00    +0.000 A 
ATOM      3  C   UNL     1       1.243   4.179  20.381  0.00  0.00    +0.000 A 
ATOM      4  C   UNL     1       1.850   5.407  20.647  0.00  0.00    +0.000 A 
ATOM      5  C   UNL     1       2.607   6.040  19.661  0.00  0.00    +0.000 A 
ATOM      6  C   UNL     1       2.769   5.457  18.392  0.00  0.00    +0.000 A 
ATOM      7  C   UNL     1       2.143   4.223  18.146  0.00  0.00    +0.000 A 
ENDROOT
BRANCH   7   8
ATOM      8  O   UNL     1       2.274   3.581  16.943  0.00  0.00    +0.000 OA
ATOM      9  H   UNL     1       1.690   3.997  16.285  0.00  0.00    +0.000 HD
ENDBRANCH   7   8
BRANCH   6  10
ATOM     10  C   UNL     1       3.624   6.170  17.356  0.00  0.00    +0.000 C 
BRANCH  10  11
ATOM     11  C   UNL     1       5.045   5.643  17.225  0.00  0.00    +0.000 A 
ATOM     12  C   UNL     1       5.553   5.176  16.004  0.00  0.00    +0.000 A 
ATOM     13  C   UNL     1       6.832   4.642  15.970  0.00  0.00    +0.000 A 
ATOM     14  N   UNL     1       7.644   4.566  17.045  0.00  0.00    +0.000 NA
ATOM     15  C   UNL     1       7.165   5.063  18.202  0.00  0.00    +0.000 A 
ATOM     16  C   UNL     1       5.896   5.609  18.338  0.00  0.00    +0.000 A 
ENDBRANCH  10  11
BRANCH  10  17
ATOM     17  O   UNL     1       3.681   7.567  17.670  0.00  0.00    +0.000 OA
ATOM     18  H   UNL     1       2.780   7.929  17.598  0.00  0.00    +0.000 HD
ENDBRANCH  10  17
ENDBRANCH   6  10
TORSDOF 4
ENDMDL
MODEL 4
REMARK VINA RESULT:      -6.9      1.381      2.365
REMARK  Name = 
REMARK  5 active torsions:
REMARK  status: ('A' for Active; 'I' for Inactive)
REMARK    1  A    between atoms: C_1  and  C_2
REMARK    2  A    between atoms: C_6  and  C_7
REMARK    3  A    between atoms: C_7  and  O_8
REMARK    4  A    between atoms: C_7  and  C_9
REMARK    5  A    between atoms: C_15  and  O_16
REMARK                            x       y       z     vdW  Elec       q    Type
REMARK                         _______ _______ _______ _____ _____    ______ ____
ROOT
ATOM      1  C   UNL     1       1.731   3.171  21.552  0.00  0.00    +0.000 C 
ATOM      2  C   UNL     1       2.032   3.207  20.080  0.00  0.00    +0.000 A 
ATOM      3  C   UNL     1       1.640   2.153  19.251  0.00  0.00    +0.000 A 
ATOM      4  C   UNL     1       1.928   2.181  17.887  0.00  0.00    +0.000 A 
ATOM      5  C   UNL     1       2.609   3.268  17.338  0.00  0.00    +0.000 A 
ATOM      6  C   UNL     1       3.017   4.344  18.146  0.00  0.00    +0.000 A 
ATOM      7  C   UNL     1       2.722   4.289  19.519  0.00  0.00    +0.000 A 
ENDROOT
BRANCH   7   8
ATOM      8  O   UNL     1       3.065   5.311  20.366  0.00  0.00    +0.000 OA
ATOM      9  H   UNL     1       2.625   5.185  21.225  0.00  0.00    +0.000 HD
ENDBRANCH   7   8
BRANCH   6  10
ATOM     10  C   UNL     1       3.733   5.520  17.501  0.00  0.00    +0.000 C 
BRANCH  10  11
ATOM     11  C   UNL     1       5.154   5.232  17.041  0.00  0.00    +0.000 A 
ATOM     12  C   UNL     1       5.499   5.186  15.683  0.00  0.00    +0.000 A 
ATOM     13  C   UNL     1       6.796   4.848  15.330  0.00  0.00    +0.000 A 
ATOM     14  N   UNL     1       7.772   4.583  16.224  0.00  0.00    +0.000 NA
ATOM     15  C   UNL     1       7.444   4.678  17.527  0.00  0.00    +0.000 A 
ATOM     16  C   UNL     1       6.171   5.002  17.977  0.00  0.00    +0.000 A 
ENDBRANCH  10  11
BRANCH  10  17
ATOM     17  O   UNL     1       3.763   6.618  18.421  0.00  0.00    +0.000 OA
ATOM     18  H   UNL     1       2.883   7.035  18.421  0.00  0.00    +0.000 HD
ENDBRANCH  10  17
ENDBRANCH   6  10
TORSDOF 4
ENDMDL
MODEL 5
REMARK VINA RESULT:      -6.8      1.776      2.050
REMARK  Name = 
REMARK  5 active torsions:
REMARK  status: ('A' for Active; 'I' for Inactive)
REMARK    1  A    between atoms: C_1  and  C_2
REMARK    2  A    between atoms: C_6  and  C_7
REMARK    3  A    between atoms: C_7  and  O_8
REMARK    4  A    between atoms: C_7  and  C_9
REMARK    5  A    between atoms: C_15  and  O_16
REMARK                            x       y       z     vdW  Elec       q    Type
REMARK                         _______ _______ _______ _____ _____    ______ ____
ROOT
ATOM      1  C   UNL     1       0.556   2.097  18.776  0.00  0.00    +0.000 C 
ATOM      2  C   UNL     1       1.407   3.219  19.301  0.00  0.00    +0.000 A 
ATOM      3  C   UNL     1       0.865   4.176  20.163  0.00  0.00    +0.000 A 
ATOM      4  C   UNL     1       1.651   5.223  20.643  0.00  0.00    +0.000 A 
ATOM      5  C   UNL     1       2.991   5.321  20.264  0.00  0.00    +0.000 A 
ATOM      6  C   UNL     1       3.565   4.375  19.398  0.00  0.00    +0.000 A 
ATOM      7  C   UNL     1       2.751   3.333  18.923  0.00  0.00    +0.000 A 
ENDROOT
BRANCH   7   8
ATOM      8  O   UNL     1       3.245   2.359  18.095  0.00  0.00    +0.000 OA
ATOM      9  H   UNL     1       2.880   1.494  18.353  0.00  0.00    +0.000 HD
ENDBRANCH   7   8
BRANCH   6  10
ATOM     10  C   UNL     1       5.036   4.506  19.034  0.00  0.00    +0.000 C 
BRANCH  10  11
ATOM     11  C   UNL     1       5.306   5.077  17.650  0.00  0.00    +0.000 A 
ATOM     12  C   UNL     1       4.755   6.296  17.231  0.00  0.00    +0.000 A 
ATOM     13  C   UNL     1       4.983   6.724  15.932  0.00  0.00    +0.000 A 
ATOM     14  N   UNL     1       5.735   6.047  15.039  0.00  0.00    +0.000 NA
ATOM     15  C   UNL     1       6.300   4.901  15.467  0.00  0.00    +0.000 A 
ATOM     16  C   UNL     1       6.125   4.388  16.745  0.00  0.00    +0.000 A 
ENDBRANCH  10  11
BRANCH  10  17
ATOM     17  O   UNL     1       5.663   3.221  19.130  0.00  0.00    +0.000 OA
ATOM     18  H   UNL     1       5.634   2.804  18.251  0.00  0.00    +0.000 HD
ENDBRANCH  10  17
ENDBRANCH   6  10
TORSDOF 4
ENDMDL
MODEL 6
REMARK VINA RESULT:      -6.8      1.767      2.142
REMARK  Name = 
REMARK  5 active torsions:
REMARK  status: ('A' for Active; 'I' for Inactive)
REMARK    1  A    between atoms: C_1  and  C_2
REMARK    2  A    between atoms: C_6  and  C_7
REMARK    3  A    between atoms: C_7  and  O_8
REMARK    4  A    between atoms: C_7  and  C_9
REMARK    5  A    between atoms: C_15  and  O_16
REMARK                            x       y       z     vdW  Elec       q    Type
REMARK                         _______ _______ _______ _____ _____    ______ ____
ROOT
ATOM      1  C   UNL     1       0.562   2.137  18.739  0.00  0.00    +0.000 C 
ATOM      2  C   UNL     1       1.427   3.252  19.256  0.00  0.00    +0.000 A 
ATOM      3  C   UNL     1       0.900   4.214  20.122  0.00  0.00    +0.000 A 
ATOM      4  C   UNL     1       1.699   5.255  20.594  0.00  0.00    +0.000 A 
ATOM      5  C   UNL     1       3.036   5.342  20.204  0.00  0.00    +0.000 A 
ATOM      6  C   UNL     1       3.595   4.391  19.333  0.00  0.00    +0.000 A 
ATOM      7  C   UNL     1       2.768   3.355  18.866  0.00  0.00    +0.000 A 
ENDROOT
BRANCH   7   8
ATOM      8  O   UNL     1       3.247   2.377  18.034  0.00  0.00    +0.000 OA
ATOM      9  H   UNL     1       2.976   1.503  18.366  0.00  0.00    +0.000 HD
ENDBRANCH   7   8
BRANCH   6  10
ATOM     10  C   UNL     1       5.063   4.510  18.956  0.00  0.00    +0.000 C 
BRANCH  10  11
ATOM     11  C   UNL     1       5.325   5.035  17.553  0.00  0.00    +0.000 A 
ATOM     12  C   UNL     1       6.141   4.346  16.644  0.00  0.00    +0.000 A 
ATOM     13  C   UNL     1       6.397   4.916  15.406  0.00  0.00    +0.000 A 
ATOM     14  N   UNL     1       5.882   6.096  15.002  0.00  0.00    +0.000 NA
ATOM     15  C   UNL     1       5.060   6.726  15.864  0.00  0.00    +0.000 A 
ATOM     16  C   UNL     1       4.750   6.240  17.126  0.00  0.00    +0.000 A 
ENDBRANCH  10  11
BRANCH  10  17
ATOM     17  O   UNL     1       5.692   3.229  19.090  0.00  0.00    +0.000 OA
ATOM     18  H   UNL     1       5.837   3.062  20.038  0.00  0.00    +0.000 HD
ENDBRANCH  10  17
ENDBRANCH   6  10
TORSDOF 4
ENDMDL
MODEL 7
REMARK VINA RESULT:      -6.7      2.737      5.692
REMARK  Name = 
REMARK  5 active torsions:
REMARK  status: ('A' for Active; 'I' for Inactive)
REMARK    1  A    between atoms: C_1  and  C_2
REMARK    2  A    between atoms: C_6  and  C_7
REMARK    3  A    between atoms: C_7  and  O_8
REMARK    4  A    between atoms: C_7  and  C_9
REMARK    5  A    between atoms: C_15  and  O_16
REMARK                            x       y       z     vdW  Elec       q    Type
REMARK                         _______ _______ _______ _____ _____    ______ ____
ROOT
ATOM      1  C   UNL     1       7.759   6.902  18.239  0.00  0.00    +0.000 C 
ATOM      2  C   UNL     1       6.713   6.011  17.630  0.00  0.00    +0.000 A 
ATOM      3  C   UNL     1       6.359   6.153  16.286  0.00  0.00    +0.000 A 
ATOM      4  C   UNL     1       5.381   5.334  15.721  0.00  0.00    +0.000 A 
ATOM      5  C   UNL     1       4.749   4.363  16.499  0.00  0.00    +0.000 A 
ATOM      6  C   UNL     1       5.083   4.196  17.854  0.00  0.00    +0.000 A 
ATOM      7  C   UNL     1       6.067   5.037  18.401  0.00  0.00    +0.000 A 
ENDROOT
BRANCH   7   8
ATOM      8  O   UNL     1       6.464   4.919  19.708  0.00  0.00    +0.000 OA
ATOM      9  H   UNL     1       6.691   3.992  19.898  0.00  0.00    +0.000 HD
ENDBRANCH   7   8
BRANCH   6  10
ATOM     10  C   UNL     1       4.388   3.107  18.656  0.00  0.00    +0.000 C 
BRANCH  10  11
ATOM     11  C   UNL     1       3.099   3.536  19.340  0.00  0.00    +0.000 A 
ATOM     12  C   UNL     1       1.949   2.734  19.324  0.00  0.00    +0.000 A 
ATOM     13  C   UNL     1       0.787   3.217  19.904  0.00  0.00    +0.000 A 
ATOM     14  N   UNL     1       0.694   4.415  20.518  0.00  0.00    +0.000 NA
ATOM     15  C   UNL     1       1.818   5.157  20.571  0.00  0.00    +0.000 A 
ATOM     16  C   UNL     1       3.026   4.763  20.013  0.00  0.00    +0.000 A 
ENDBRANCH  10  11
BRANCH  10  17
ATOM     17  O   UNL     1       5.289   2.604  19.650  0.00  0.00    +0.000 OA
ATOM     18  H   UNL     1       5.881   3.330  19.916  0.00  0.00    +0.000 HD
ENDBRANCH  10  17
ENDBRANCH   6  10
TORSDOF 4
ENDMDL
MODEL 8
REMARK VINA RESULT:      -6.7      2.606      5.388
REMARK  Name = 
REMARK  5 active torsions:
REMARK  status: ('A' for Active; 'I' for Inactive)
REMARK    1  A    between atoms: C_1  and  C_2
REMARK    2  A    between atoms: C_6  and  C_7
REMARK    3  A    between atoms: C_7  and  O_8
REMARK    4  A    between atoms: C_7  and  C_9
REMARK    5  A    between atoms: C_15  and  O_16
REMARK                            x       y       z     vdW  Elec       q    Type
REMARK                         _______ _______ _______ _____ _____    ______ ____
ROOT
ATOM      1  C   UNL     1       7.886   5.733  19.310  0.00  0.00    +0.000 C 
ATOM      2  C   UNL     1       6.751   5.739  18.326  0.00  0.00    +0.000 A 
ATOM      3  C   UNL     1       6.640   6.760  17.379  0.00  0.00    +0.000 A 
ATOM      4  C   UNL     1       5.581   6.772  16.472  0.00  0.00    +0.000 A 
ATOM      5  C   UNL     1       4.622   5.759  16.504  0.00  0.00    +0.000 A 
ATOM      6  C   UNL     1       4.705   4.718  17.445  0.00  0.00    +0.000 A 
ATOM      7  C   UNL     1       5.778   4.732  18.353  0.00  0.00    +0.000 A 
ENDROOT
BRANCH   7   8
ATOM      8  O   UNL     1       5.940   3.739  19.283  0.00  0.00    +0.000 OA
ATOM      9  H   UNL     1       6.196   4.130  20.137  0.00  0.00    +0.000 HD
ENDBRANCH   7   8
BRANCH   6  10
ATOM     10  C   UNL     1       3.653   3.621  17.426  0.00  0.00    +0.000 C 
BRANCH  10  11
ATOM     11  C   UNL     1       2.712   3.612  18.621  0.00  0.00    +0.000 A 
ATOM     12  C   UNL     1       2.249   4.798  19.208  0.00  0.00    +0.000 A 
ATOM     13  C   UNL     1       1.452   4.720  20.340  0.00  0.00    +0.000 A 
ATOM     14  N   UNL     1       1.063   3.559  20.906  0.00  0.00    +0.000 NA
ATOM     15  C   UNL     1       1.472   2.424  20.305  0.00  0.00    +0.000 A 
ATOM     16  C   UNL     1       2.278   2.401  19.175  0.00  0.00    +0.000 A 
ENDBRANCH  10  11
BRANCH  10  17
ATOM     17  O   UNL     1       4.301   2.346  17.343  0.00  0.00    +0.000 OA
ATOM     18  H   UNL     1       4.554   2.196  16.415  0.00  0.00    +0.000 HD
ENDBRANCH  10  17
ENDBRANCH   6  10
TORSDOF 4
ENDMDL
MODEL 9
REMARK VINA RESULT:      -6.6      2.611      5.438
REMARK  Name = 
REMARK  5 active torsions:
REMARK  status: ('A' for Active; 'I' for Inactive)
REMARK    1  A    between atoms: C_1  and  C_2
REMARK    2  A    between atoms: C_6  and  C_7
REMARK    3  A    between atoms: C_7  and  O_8
REMARK    4  A    between atoms: C_7  and  C_9
REMARK    5  A    between atoms: C_15  and  O_16
REMARK                            x       y       z     vdW  Elec       q    Type
REMARK                         _______ _______ _______ _____ _____    ______ ____
ROOT
ATOM      1  C   UNL     1       7.936   5.807  19.193  0.00  0.00    +0.000 C 
ATOM      2  C   UNL     1       6.764   5.807  18.252  0.00  0.00    +0.000 A 
ATOM      3  C   UNL     1       6.599   6.841  17.327  0.00  0.00    +0.000 A 
ATOM      4  C   UNL     1       5.506   6.848  16.460  0.00  0.00    +0.000 A 
ATOM      5  C   UNL     1       4.567   5.818  16.512  0.00  0.00    +0.000 A 
ATOM      6  C   UNL     1       4.704   4.764  17.433  0.00  0.00    +0.000 A 
ATOM      7  C   UNL     1       5.810   4.783  18.299  0.00  0.00    +0.000 A 
ENDROOT
BRANCH   7   8
ATOM      8  O   UNL     1       6.025   3.779  19.207  0.00  0.00    +0.000 OA
ATOM      9  H   UNL     1       6.664   4.076  19.879  0.00  0.00    +0.000 HD
ENDBRANCH   7   8
BRANCH   6  10
ATOM     10  C   UNL     1       3.670   3.649  17.436  0.00  0.00    +0.000 C 
BRANCH  10  11
ATOM     11  C   UNL     1       2.774   3.608  18.664  0.00  0.00    +0.000 A 
ATOM     12  C   UNL     1       2.378   2.398  19.252  0.00  0.00    +0.000 A 
ATOM     13  C   UNL     1       1.501   2.429  20.325  0.00  0.00    +0.000 A 
ATOM     14  N   UNL     1       1.018   3.566  20.868  0.00  0.00    +0.000 NA
ATOM     15  C   UNL     1       1.444   4.724  20.327  0.00  0.00    +0.000 A 
ATOM     16  C   UNL     1       2.313   4.795  19.248  0.00  0.00    +0.000 A 
ENDBRANCH  10  11
BRANCH  10  17
ATOM     17  O   UNL     1       4.337   2.387  17.313  0.00  0.00    +0.000 OA
ATOM     18  H   UNL     1       5.049   2.484  16.656  0.00  0.00    +0.000 HD
ENDBRANCH  10  17
ENDBRANCH   6  10
TORSDOF 4
ENDMDL
