MODEL 1
REMARK VINA RESULT:      -8.6      0.000      0.000
REMARK  Name = 
REMARK  2 active torsions:
REMARK  status: ('A' for Active; 'I' for Inactive)
REMARK    1  A    between atoms: N_5  and  C_6
REMARK    2  A    between atoms: C_15  and  C_16
REMARK                            x       y       z     vdW  Elec       q    Type
REMARK                         _______ _______ _______ _____ _____    ______ ____
ROOT
ATOM      1  O   UNL     1       1.807   3.095  21.910  0.00  0.00    +0.000 OA
ATOM      2  C   UNL     1       2.545   3.565  21.064  0.00  0.00    +0.000 C 
ATOM      3  C   UNL     1       3.491   2.842  20.185  0.00  0.00    +0.000 C 
ATOM      4  C   UNL     1       4.253   3.973  19.546  0.00  0.00    +0.000 C 
ATOM      5  N   UNL     1       5.320   3.789  18.849  0.00  0.00    +0.000 NA
ATOM      6  O   UNL     1       3.694   5.202  19.784  0.00  0.00    +0.000 OA
ATOM      7  C   UNL     1       2.627   4.974  20.649  0.00  0.00    +0.000 C 
ATOM      8  C   UNL     1       1.694   5.883  20.973  0.00  0.00    +0.000 C 
ENDROOT
BRANCH   8   9
ATOM      9  C   UNL     1       1.587   7.194  20.416  0.00  0.00    +0.000 A 
ATOM     10  C   UNL     1       1.998   7.539  19.142  0.00  0.00    +0.000 A 
ATOM     11  N   UNL     1       1.689   8.860  18.941  0.00  0.00    +0.000 N 
ATOM     12  C   UNL     1       1.069   9.362  20.044  0.00  0.00    +0.000 A 
ATOM     13  N   UNL     1       0.627  10.629  20.145  0.00  0.00    +0.000 NA
ATOM     14  C   UNL     1       0.041  10.886  21.334  0.00  0.00    +0.000 A 
ATOM     15  C   UNL     1      -0.118   9.978  22.372  0.00  0.00    +0.000 A 
ATOM     16  C   UNL     1       0.356   8.674  22.213  0.00  0.00    +0.000 A 
ATOM     17  C   UNL     1       0.980   8.348  20.996  0.00  0.00    +0.000 A 
ATOM     18  H   UNL     1       1.862   9.393  18.101  0.00  0.00    +0.000 HD
ENDBRANCH   8   9
BRANCH   5  19
ATOM     19  C   UNL     1       6.039   4.990  18.372  0.00  0.00    +0.000 C 
ATOM     20  C   UNL     1       7.158   4.523  17.425  0.00  0.00    +0.000 C 
ATOM     21  C   UNL     1       6.727   4.040  16.041  0.00  0.00    +0.000 C 
ATOM     22  C   UNL     1       6.541   5.156  15.016  0.00  0.00    +0.000 C 
ATOM     23  C   UNL     1       5.410   6.133  15.304  0.00  0.00    +0.000 C 
ATOM     24  C   UNL     1       5.526   6.862  16.639  0.00  0.00    +0.000 C 
ATOM     25  C   UNL     1       5.043   6.015  17.813  0.00  0.00    +0.000 C 
ENDBRANCH   5  19
TORSDOF 2
ENDMDL
MODEL 2
REMARK VINA RESULT:      -8.5      1.952      4.428
REMARK  Name = 
REMARK  2 active torsions:
REMARK  status: ('A' for Active; 'I' for Inactive)
REMARK    1  A    between atoms: N_5  and  C_6
REMARK    2  A    between atoms: C_15  and  C_16
REMARK                            x       y       z     vdW  Elec       q    Type
REMARK                         _______ _______ _______ _____ _____    ______ ____
ROOT
ATOM      1  O   UNL     1       5.418   6.980  15.761  0.00  0.00    +0.000 OA
ATOM      2  C   UNL     1       4.846   6.132  16.419  0.00  0.00    +0.000 C 
ATOM      3  C   UNL     1       5.167   4.690  16.513  0.00  0.00    +0.000 C 
ATOM      4  C   UNL     1       3.986   4.154  17.278  0.00  0.00    +0.000 C 
ATOM      5  N   UNL     1       3.756   2.895  17.415  0.00  0.00    +0.000 NA
ATOM      6  O   UNL     1       3.194   5.141  17.807  0.00  0.00    +0.000 OA
ATOM      7  C   UNL     1       3.728   6.343  17.351  0.00  0.00    +0.000 C 
ATOM      8  C   UNL     1       3.372   7.558  17.796  0.00  0.00    +0.000 C 
ENDROOT
BRANCH   8   9
ATOM      9  C   UNL     1       2.463   7.814  18.868  0.00  0.00    +0.000 A 
ATOM     10  C   UNL     1       2.465   7.139  20.074  0.00  0.00    +0.000 A 
ATOM     11  N   UNL     1       1.494   7.689  20.870  0.00  0.00    +0.000 N 
ATOM     12  C   UNL     1       0.886   8.716  20.213  0.00  0.00    +0.000 A 
ATOM     13  N   UNL     1      -0.097   9.467  20.741  0.00  0.00    +0.000 NA
ATOM     14  C   UNL     1      -0.533  10.426  19.898  0.00  0.00    +0.000 A 
ATOM     15  C   UNL     1      -0.052  10.660  18.617  0.00  0.00    +0.000 A 
ATOM     16  C   UNL     1       0.975   9.853  18.120  0.00  0.00    +0.000 A 
ATOM     17  C   UNL     1       1.467   8.833  18.951  0.00  0.00    +0.000 A 
ATOM     18  H   UNL     1       1.264   7.410  21.813  0.00  0.00    +0.000 HD
ENDBRANCH   8   9
BRANCH   5  19
ATOM     19  C   UNL     1       2.501   2.499  18.091  0.00  0.00    +0.000 C 
ATOM     20  C   UNL     1       2.874   1.611  19.290  0.00  0.00    +0.000 C 
ATOM     21  C   UNL     1       3.486   2.315  20.500  0.00  0.00    +0.000 C 
ATOM     22  C   UNL     1       2.464   2.914  21.463  0.00  0.00    +0.000 C 
ATOM     23  C   UNL     1       1.626   4.057  20.905  0.00  0.00    +0.000 C 
ATOM     24  C   UNL     1       0.813   3.700  19.665  0.00  0.00    +0.000 C 
ATOM     25  C   UNL     1       1.647   3.739  18.387  0.00  0.00    +0.000 C 
ENDBRANCH   5  19
TORSDOF 2
ENDMDL
MODEL 3
REMARK VINA RESULT:      -8.4      2.380      7.283
REMARK  Name = 
REMARK  2 active torsions:
REMARK  status: ('A' for Active; 'I' for Inactive)
REMARK    1  A    between atoms: N_5  and  C_6
REMARK    2  A    between atoms: C_15  and  C_16
REMARK                            x       y       z     vdW  Elec       q    Type
REMARK                         _______ _______ _______ _____ _____    ______ ____
ROOT
ATOM      1  O   UNL     1       1.761   4.791  20.998  0.00  0.00    +0.000 OA
ATOM      2  C   UNL     1       1.830   5.922  20.553  0.00  0.00    +0.000 C 
ATOM      3  C   UNL     1       1.357   7.174  21.186  0.00  0.00    +0.000 C 
ATOM      4  C   UNL     1       1.515   8.171  20.067  0.00  0.00    +0.000 C 
ATOM      5  N   UNL     1       1.031   9.362  20.121  0.00  0.00    +0.000 NA
ATOM      6  O   UNL     1       2.221   7.676  19.001  0.00  0.00    +0.000 OA
ATOM      7  C   UNL     1       2.473   6.339  19.298  0.00  0.00    +0.000 C 
ATOM      8  C   UNL     1       3.307   5.544  18.609  0.00  0.00    +0.000 C 
ENDROOT
BRANCH   8   9
ATOM      9  C   UNL     1       4.139   5.959  17.525  0.00  0.00    +0.000 A 
ATOM     10  C   UNL     1       4.441   7.275  17.229  0.00  0.00    +0.000 A 
ATOM     11  N   UNL     1       5.303   7.283  16.163  0.00  0.00    +0.000 N 
ATOM     12  C   UNL     1       5.582   6.004  15.785  0.00  0.00    +0.000 A 
ATOM     13  N   UNL     1       6.414   5.684  14.778  0.00  0.00    +0.000 NA
ATOM     14  C   UNL     1       6.531   4.351  14.600  0.00  0.00    +0.000 A 
ATOM     15  C   UNL     1       5.890   3.373  15.349  0.00  0.00    +0.000 A 
ATOM     16  C   UNL     1       5.040   3.762  16.387  0.00  0.00    +0.000 A 
ATOM     17  C   UNL     1       4.873   5.138  16.617  0.00  0.00    +0.000 A 
ATOM     18  H   UNL     1       5.706   8.099  15.725  0.00  0.00    +0.000 HD
ENDBRANCH   8   9
BRANCH   5  19
ATOM     19  C   UNL     1       1.155  10.205  18.912  0.00  0.00    +0.000 C 
ATOM     20  C   UNL     1      -0.059   9.917  18.013  0.00  0.00    +0.000 C 
ATOM     21  C   UNL     1      -1.400  10.492  18.467  0.00  0.00    +0.000 C 
ATOM     22  C   UNL     1      -1.635  11.942  18.051  0.00  0.00    +0.000 C 
ATOM     23  C   UNL     1      -0.698  12.966  18.677  0.00  0.00    +0.000 C 
ATOM     24  C   UNL     1       0.782  12.728  18.395  0.00  0.00    +0.000 C 
ATOM     25  C   UNL     1       1.389  11.668  19.310  0.00  0.00    +0.000 C 
ENDBRANCH   5  19
TORSDOF 2
ENDMDL
MODEL 4
REMARK VINA RESULT:      -8.3      3.636      7.756
REMARK  Name = 
REMARK  2 active torsions:
REMARK  status: ('A' for Active; 'I' for Inactive)
REMARK    1  A    between atoms: N_5  and  C_6
REMARK    2  A    between atoms: C_15  and  C_16
REMARK                            x       y       z     vdW  Elec       q    Type
REMARK                         _______ _______ _______ _____ _____    ______ ____
ROOT
ATOM      1  O   UNL     1       1.353   9.738  22.975  0.00  0.00    +0.000 OA
ATOM      2  C   UNL     1       0.807   9.745  21.888  0.00  0.00    +0.000 C 
ATOM      3  C   UNL     1       0.010  10.835  21.281  0.00  0.00    +0.000 C 
ATOM      4  C   UNL     1      -0.569  10.161  20.065  0.00  0.00    +0.000 C 
ATOM      5  N   UNL     1      -1.494  10.694  19.346  0.00  0.00    +0.000 NA
ATOM      6  O   UNL     1      -0.009   8.936  19.810  0.00  0.00    +0.000 OA
ATOM      7  C   UNL     1       0.867   8.690  20.864  0.00  0.00    +0.000 C 
ATOM      8  C   UNL     1       1.763   7.691  20.900  0.00  0.00    +0.000 C 
ENDROOT
BRANCH   8   9
ATOM      9  C   UNL     1       2.031   6.779  19.833  0.00  0.00    +0.000 A 
ATOM     10  C   UNL     1       2.690   7.113  18.665  0.00  0.00    +0.000 A 
ATOM     11  N   UNL     1       2.809   5.977  17.907  0.00  0.00    +0.000 N 
ATOM     12  C   UNL     1       2.264   4.920  18.571  0.00  0.00    +0.000 A 
ATOM     13  N   UNL     1       2.244   3.663  18.092  0.00  0.00    +0.000 NA
ATOM     14  C   UNL     1       1.654   2.790  18.936  0.00  0.00    +0.000 A 
ATOM     15  C   UNL     1       1.114   3.102  20.176  0.00  0.00    +0.000 A 
ATOM     16  C   UNL     1       1.167   4.422  20.628  0.00  0.00    +0.000 A 
ATOM     17  C   UNL     1       1.765   5.378  19.789  0.00  0.00    +0.000 A 
ATOM     18  H   UNL     1       3.253   5.905  17.002  0.00  0.00    +0.000 HD
ENDBRANCH   8   9
BRANCH   5  19
ATOM     19  C   UNL     1      -2.058   9.882  18.246  0.00  0.00    +0.000 C 
ATOM     20  C   UNL     1      -3.585   9.843  18.425  0.00  0.00    +0.000 C 
ATOM     21  C   UNL     1      -4.348  11.121  18.081  0.00  0.00    +0.000 C 
ATOM     22  C   UNL     1      -4.684  11.274  16.600  0.00  0.00    +0.000 C 
ATOM     23  C   UNL     1      -3.491  11.435  15.667  0.00  0.00    +0.000 C 
ATOM     24  C   UNL     1      -2.491  10.284  15.711  0.00  0.00    +0.000 C 
ATOM     25  C   UNL     1      -1.533  10.386  16.894  0.00  0.00    +0.000 C 
ENDBRANCH   5  19
TORSDOF 2
ENDMDL
MODEL 5
REMARK VINA RESULT:      -8.3      3.407      5.201
REMARK  Name = 
REMARK  2 active torsions:
REMARK  status: ('A' for Active; 'I' for Inactive)
REMARK    1  A    between atoms: N_5  and  C_6
REMARK    2  A    between atoms: C_15  and  C_16
REMARK                            x       y       z     vdW  Elec       q    Type
REMARK                         _______ _______ _______ _____ _____    ______ ____
ROOT
ATOM      1  O   UNL     1       7.650   5.498  20.336  0.00  0.00    +0.000 OA
ATOM      2  C   UNL     1       7.281   5.246  19.204  0.00  0.00    +0.000 C 
ATOM      3  C   UNL     1       8.104   4.770  18.070  0.00  0.00    +0.000 C 
ATOM      4  C   UNL     1       7.138   4.866  16.918  0.00  0.00    +0.000 C 
ATOM      5  N   UNL     1       7.500   4.734  15.690  0.00  0.00    +0.000 NA
ATOM      6  O   UNL     1       5.848   5.105  17.317  0.00  0.00    +0.000 OA
ATOM      7  C   UNL     1       5.901   5.278  18.698  0.00  0.00    +0.000 C 
ATOM      8  C   UNL     1       4.830   5.335  19.506  0.00  0.00    +0.000 C 
ENDROOT
BRANCH   8   9
ATOM      9  C   UNL     1       3.475   5.134  19.100  0.00  0.00    +0.000 A 
ATOM     10  C   UNL     1       2.673   6.111  18.542  0.00  0.00    +0.000 A 
ATOM     11  N   UNL     1       1.465   5.542  18.233  0.00  0.00    +0.000 N 
ATOM     12  C   UNL     1       1.482   4.219  18.557  0.00  0.00    +0.000 A 
ATOM     13  N   UNL     1       0.447   3.384  18.356  0.00  0.00    +0.000 NA
ATOM     14  C   UNL     1       0.709   2.120  18.753  0.00  0.00    +0.000 A 
ATOM     15  C   UNL     1       1.900   1.676  19.311  0.00  0.00    +0.000 A 
ATOM     16  C   UNL     1       2.945   2.585  19.494  0.00  0.00    +0.000 A 
ATOM     17  C   UNL     1       2.729   3.918  19.102  0.00  0.00    +0.000 A 
ATOM     18  H   UNL     1       0.676   6.006  17.806  0.00  0.00    +0.000 HD
ENDBRANCH   8   9
BRANCH   5  19
ATOM     19  C   UNL     1       6.476   4.964  14.648  0.00  0.00    +0.000 C 
ATOM     20  C   UNL     1       7.131   5.774  13.517  0.00  0.00    +0.000 C 
ATOM     21  C   UNL     1       8.108   5.023  12.612  0.00  0.00    +0.000 C 
ATOM     22  C   UNL     1       7.445   4.260  11.468  0.00  0.00    +0.000 C 
ATOM     23  C   UNL     1       6.547   3.103  11.883  0.00  0.00    +0.000 C 
ATOM     24  C   UNL     1       5.389   3.494  12.796  0.00  0.00    +0.000 C 
ATOM     25  C   UNL     1       5.816   3.636  14.254  0.00  0.00    +0.000 C 
ENDBRANCH   5  19
TORSDOF 2
ENDMDL
MODEL 6
REMARK VINA RESULT:      -8.2      0.949      1.594
REMARK  Name = 
REMARK  2 active torsions:
REMARK  status: ('A' for Active; 'I' for Inactive)
REMARK    1  A    between atoms: N_5  and  C_6
REMARK    2  A    between atoms: C_15  and  C_16
REMARK                            x       y       z     vdW  Elec       q    Type
REMARK                         _______ _______ _______ _____ _____    ______ ____
ROOT
ATOM      1  O   UNL     1       1.497   3.281  21.940  0.00  0.00    +0.000 OA
ATOM      2  C   UNL     1       1.911   3.700  20.874  0.00  0.00    +0.000 C 
ATOM      3  C   UNL     1       2.310   2.912  19.686  0.00  0.00    +0.000 C 
ATOM      4  C   UNL     1       2.932   3.966  18.806  0.00  0.00    +0.000 C 
ATOM      5  N   UNL     1       3.597   3.682  17.742  0.00  0.00    +0.000 NA
ATOM      6  O   UNL     1       2.713   5.242  19.257  0.00  0.00    +0.000 OA
ATOM      7  C   UNL     1       2.047   5.108  20.473  0.00  0.00    +0.000 C 
ATOM      8  C   UNL     1       1.472   6.116  21.147  0.00  0.00    +0.000 C 
ENDROOT
BRANCH   8   9
ATOM      9  C   UNL     1       1.366   7.465  20.690  0.00  0.00    +0.000 A 
ATOM     10  C   UNL     1       1.856   7.922  19.481  0.00  0.00    +0.000 A 
ATOM     11  N   UNL     1       1.523   9.247  19.362  0.00  0.00    +0.000 N 
ATOM     12  C   UNL     1       0.811   9.643  20.454  0.00  0.00    +0.000 A 
ATOM     13  N   UNL     1       0.326  10.886  20.622  0.00  0.00    +0.000 NA
ATOM     14  C   UNL     1      -0.350  11.032  21.781  0.00  0.00    +0.000 A 
ATOM     15  C   UNL     1      -0.556  10.040  22.730  0.00  0.00    +0.000 A 
ATOM     16  C   UNL     1      -0.034   8.764  22.503  0.00  0.00    +0.000 A 
ATOM     17  C   UNL     1       0.685   8.553  21.313  0.00  0.00    +0.000 A 
ATOM     18  H   UNL     1       1.739   9.850  18.582  0.00  0.00    +0.000 HD
ENDBRANCH   8   9
BRANCH   5  19
ATOM     19  C   UNL     1       4.255   4.798  17.028  0.00  0.00    +0.000 C 
ATOM     20  C   UNL     1       5.026   5.630  18.067  0.00  0.00    +0.000 C 
ATOM     21  C   UNL     1       6.313   5.018  18.616  0.00  0.00    +0.000 C 
ATOM     22  C   UNL     1       7.544   5.255  17.745  0.00  0.00    +0.000 C 
ATOM     23  C   UNL     1       7.517   4.594  16.374  0.00  0.00    +0.000 C 
ATOM     24  C   UNL     1       6.344   5.010  15.492  0.00  0.00    +0.000 C 
ATOM     25  C   UNL     1       5.059   4.263  15.836  0.00  0.00    +0.000 C 
ENDBRANCH   5  19
TORSDOF 2
ENDMDL
MODEL 7
REMARK VINA RESULT:      -8.1      1.944      6.672
REMARK  Name = 
REMARK  2 active torsions:
REMARK  status: ('A' for Active; 'I' for Inactive)
REMARK    1  A    between atoms: N_5  and  C_6
REMARK    2  A    between atoms: C_15  and  C_16
REMARK                            x       y       z     vdW  Elec       q    Type
REMARK                         _______ _______ _______ _____ _____    ______ ____
ROOT
ATOM      1  O   UNL     1       0.915   2.100  18.732  0.00  0.00    +0.000 OA
ATOM      2  C   UNL     1       1.313   3.169  19.157  0.00  0.00    +0.000 C 
ATOM      3  C   UNL     1       0.728   3.986  20.244  0.00  0.00    +0.000 C 
ATOM      4  C   UNL     1       1.519   5.263  20.138  0.00  0.00    +0.000 C 
ATOM      5  N   UNL     1       1.202   6.335  20.776  0.00  0.00    +0.000 NA
ATOM      6  O   UNL     1       2.601   5.158  19.302  0.00  0.00    +0.000 OA
ATOM      7  C   UNL     1       2.530   3.884  18.744  0.00  0.00    +0.000 C 
ATOM      8  C   UNL     1       3.505   3.307  18.024  0.00  0.00    +0.000 C 
ENDROOT
BRANCH   8   9
ATOM      9  C   UNL     1       4.801   3.860  17.792  0.00  0.00    +0.000 A 
ATOM     10  C   UNL     1       5.716   4.154  18.785  0.00  0.00    +0.000 A 
ATOM     11  N   UNL     1       6.859   4.615  18.184  0.00  0.00    +0.000 N 
ATOM     12  C   UNL     1       6.708   4.599  16.831  0.00  0.00    +0.000 A 
ATOM     13  N   UNL     1       7.665   4.976  15.964  0.00  0.00    +0.000 NA
ATOM     14  C   UNL     1       7.279   4.866  14.676  0.00  0.00    +0.000 A 
ATOM     15  C   UNL     1       6.042   4.414  14.237  0.00  0.00    +0.000 A 
ATOM     16  C   UNL     1       5.085   4.030  15.179  0.00  0.00    +0.000 A 
ATOM     17  C   UNL     1       5.429   4.128  16.539  0.00  0.00    +0.000 A 
ATOM     18  H   UNL     1       7.707   4.903  18.652  0.00  0.00    +0.000 HD
ENDBRANCH   8   9
BRANCH   5  19
ATOM     19  C   UNL     1       1.993   7.554  20.498  0.00  0.00    +0.000 C 
ATOM     20  C   UNL     1       2.310   7.575  18.993  0.00  0.00    +0.000 C 
ATOM     21  C   UNL     1       1.156   7.921  18.053  0.00  0.00    +0.000 C 
ATOM     22  C   UNL     1       0.926   9.419  17.865  0.00  0.00    +0.000 C 
ATOM     23  C   UNL     1       0.474  10.176  19.107  0.00  0.00    +0.000 C 
ATOM     24  C   UNL     1       1.435  10.087  20.288  0.00  0.00    +0.000 C 
ATOM     25  C   UNL     1       1.281   8.787  21.072  0.00  0.00    +0.000 C 
ENDBRANCH   5  19
TORSDOF 2
ENDMDL
MODEL 8
REMARK VINA RESULT:      -8.0      6.212     10.118
REMARK  Name = 
REMARK  2 active torsions:
REMARK  status: ('A' for Active; 'I' for Inactive)
REMARK    1  A    between atoms: N_5  and  C_6
REMARK    2  A    between atoms: C_15  and  C_16
REMARK                            x       y       z     vdW  Elec       q    Type
REMARK                         _______ _______ _______ _____ _____    ______ ____
ROOT
ATOM      1  O   UNL     1      -2.791  16.223  23.939  0.00  0.00    +0.000 OA
ATOM      2  C   UNL     1      -2.570  15.049  23.706  0.00  0.00    +0.000 C 
ATOM      3  C   UNL     1      -1.292  14.319  23.867  0.00  0.00    +0.000 C 
ATOM      4  C   UNL     1      -1.599  12.999  23.210  0.00  0.00    +0.000 C 
ATOM      5  N   UNL     1      -0.693  12.122  22.948  0.00  0.00    +0.000 NA
ATOM      6  O   UNL     1      -2.931  12.835  22.929  0.00  0.00    +0.000 OA
ATOM      7  C   UNL     1      -3.545  14.036  23.274  0.00  0.00    +0.000 C 
ATOM      8  C   UNL     1      -4.872  14.227  23.341  0.00  0.00    +0.000 C 
ENDROOT
BRANCH   8   9
ATOM      9  C   UNL     1      -5.865  13.216  23.164  0.00  0.00    +0.000 A 
ATOM     10  C   UNL     1      -6.754  12.812  24.141  0.00  0.00    +0.000 A 
ATOM     11  N   UNL     1      -7.585  11.869  23.594  0.00  0.00    +0.000 N 
ATOM     12  C   UNL     1      -7.267  11.677  22.284  0.00  0.00    +0.000 A 
ATOM     13  N   UNL     1      -7.916  10.825  21.471  0.00  0.00    +0.000 NA
ATOM     14  C   UNL     1      -7.418  10.815  20.217  0.00  0.00    +0.000 A 
ATOM     15  C   UNL     1      -6.356  11.584  19.761  0.00  0.00    +0.000 A 
ATOM     16  C   UNL     1      -5.720  12.457  20.646  0.00  0.00    +0.000 A 
ATOM     17  C   UNL     1      -6.192  12.506  21.969  0.00  0.00    +0.000 A 
ATOM     18  H   UNL     1      -8.343  11.394  24.065  0.00  0.00    +0.000 HD
ENDBRANCH   8   9
BRANCH   5  19
ATOM     19  C   UNL     1      -1.106  10.916  22.199  0.00  0.00    +0.000 C 
ATOM     20  C   UNL     1      -0.764  11.144  20.717  0.00  0.00    +0.000 C 
ATOM     21  C   UNL     1       0.713  11.066  20.334  0.00  0.00    +0.000 C 
ATOM     22  C   UNL     1       1.220   9.650  20.071  0.00  0.00    +0.000 C 
ATOM     23  C   UNL     1       1.223   8.718  21.275  0.00  0.00    +0.000 C 
ATOM     24  C   UNL     1      -0.143   8.515  21.924  0.00  0.00    +0.000 C 
ATOM     25  C   UNL     1      -0.523   9.659  22.858  0.00  0.00    +0.000 C 
ENDBRANCH   5  19
TORSDOF 2
ENDMDL
MODEL 9
REMARK VINA RESULT:      -8.0      3.687      5.172
REMARK  Name = 
REMARK  2 active torsions:
REMARK  status: ('A' for Active; 'I' for Inactive)
REMARK    1  A    between atoms: N_5  and  C_6
REMARK    2  A    between atoms: C_15  and  C_16
REMARK                            x       y       z     vdW  Elec       q    Type
REMARK                         _______ _______ _______ _____ _____    ______ ____
ROOT
ATOM      1  O   UNL     1       0.770  10.730  22.311  0.00  0.00    +0.000 OA
ATOM      2  C   UNL     1       0.888   9.825  21.506  0.00  0.00    +0.000 C 
ATOM      3  C   UNL     1       1.540   8.512  21.710  0.00  0.00    +0.000 C 
ATOM      4  C   UNL     1       1.563   7.952  20.312  0.00  0.00    +0.000 C 
ATOM      5  N   UNL     1       2.228   6.897  19.993  0.00  0.00    +0.000 NA
ATOM      6  O   UNL     1       0.809   8.680  19.428  0.00  0.00    +0.000 OA
ATOM      7  C   UNL     1       0.344   9.782  20.140  0.00  0.00    +0.000 C 
ATOM      8  C   UNL     1      -0.592  10.640  19.703  0.00  0.00    +0.000 C 
ENDROOT
BRANCH   8   9
ATOM      9  C   UNL     1      -1.327  10.512  18.485  0.00  0.00    +0.000 A 
ATOM     10  C   UNL     1      -0.904   9.785  17.388  0.00  0.00    +0.000 A 
ATOM     11  N   UNL     1      -1.887   9.847  16.434  0.00  0.00    +0.000 N 
ATOM     12  C   UNL     1      -2.939  10.575  16.902  0.00  0.00    +0.000 A 
ATOM     13  N   UNL     1      -4.066  10.799  16.203  0.00  0.00    +0.000 NA
ATOM     14  C   UNL     1      -4.964  11.543  16.883  0.00  0.00    +0.000 A 
ATOM     15  C   UNL     1      -4.796  12.044  18.167  0.00  0.00    +0.000 A 
ATOM     16  C   UNL     1      -3.608  11.777  18.850  0.00  0.00    +0.000 A 
ATOM     17  C   UNL     1      -2.631  11.010  18.190  0.00  0.00    +0.000 A 
ATOM     18  H   UNL     1      -1.868   9.406  15.526  0.00  0.00    +0.000 HD
ENDBRANCH   8   9
BRANCH   5  19
ATOM     19  C   UNL     1       2.262   6.516  18.565  0.00  0.00    +0.000 C 
ATOM     20  C   UNL     1       3.671   6.825  18.030  0.00  0.00    +0.000 C 
ATOM     21  C   UNL     1       4.792   5.885  18.468  0.00  0.00    +0.000 C 
ATOM     22  C   UNL     1       4.920   4.621  17.622  0.00  0.00    +0.000 C 
ATOM     23  C   UNL     1       3.743   3.659  17.695  0.00  0.00    +0.000 C 
ATOM     24  C   UNL     1       2.405   4.260  17.276  0.00  0.00    +0.000 C 
ATOM     25  C   UNL     1       1.757   5.078  18.389  0.00  0.00    +0.000 C 
ENDBRANCH   5  19
TORSDOF 2
ENDMDL
