MODEL 1
REMARK VINA RESULT:      -6.7      0.000      0.000
REMARK  Name = 
REMARK  0 active torsions:
REMARK  status: ('A' for Active; 'I' for Inactive)
REMARK                            x       y       z     vdW  Elec       q    Type
REMARK                         _______ _______ _______ _____ _____    ______ ____
ROOT
ATOM      1 BR   UNL     1       8.285   5.476  13.118  0.00  0.00    +0.000 Br
ATOM      2  C   UNL     1       6.936   4.965  14.370  0.00  0.00    +0.000 A 
ATOM      3  C   UNL     1       5.904   4.105  13.972  0.00  0.00    +0.000 A 
ATOM      4  C   UNL     1       4.941   3.687  14.897  0.00  0.00    +0.000 A 
ATOM      5  C   UNL     1       5.009   4.135  16.220  0.00  0.00    +0.000 A 
ATOM      6  N   UNL     1       4.112   3.703  17.144  0.00  0.00    +0.000 NA
ATOM      7  C   UNL     1       4.138   4.140  18.435  0.00  0.00    +0.000 A 
ATOM      8  N   UNL     1       3.196   3.619  19.377  0.00  0.00    +0.000 N 
ATOM      9  C   UNL     1       2.761   4.354  20.556  0.00  0.00    +0.000 C 
ATOM     10  C   UNL     1       1.234   4.489  20.490  0.00  0.00    +0.000 C 
ATOM     11  N   UNL     1       0.613   3.159  20.376  0.00  0.00    +0.000 NA
ATOM     12  C   UNL     1       1.061   2.477  19.151  0.00  0.00    +0.000 C 
ATOM     13  C   UNL     1       2.580   2.315  19.177  0.00  0.00    +0.000 C 
ATOM     14  C   UNL     1       5.130   5.071  18.806  0.00  0.00    +0.000 A 
ATOM     15  N   UNL     1       6.051   5.478  17.892  0.00  0.00    +0.000 NA
ATOM     16  C   UNL     1       6.021   5.032  16.613  0.00  0.00    +0.000 A 
ATOM     17  C   UNL     1       6.987   5.440  15.686  0.00  0.00    +0.000 A 
ATOM     18  H   UNL     1      -0.426   3.275  20.330  0.00  0.00    +0.000 HD
ENDROOT
TORSDOF 0
ENDMDL
MODEL 2
REMARK VINA RESULT:      -6.6      4.916      6.980
REMARK  Name = 
REMARK  0 active torsions:
REMARK  status: ('A' for Active; 'I' for Inactive)
REMARK                            x       y       z     vdW  Elec       q    Type
REMARK                         _______ _______ _______ _____ _____    ______ ____
ROOT
ATOM      1 BR   UNL     1      -0.987  11.796  21.085  0.00  0.00    +0.000 Br
ATOM      2  C   UNL     1       0.120  10.298  20.665  0.00  0.00    +0.000 A 
ATOM      3  C   UNL     1       0.300   9.275  21.606  0.00  0.00    +0.000 A 
ATOM      4  C   UNL     1       1.069   8.151  21.286  0.00  0.00    +0.000 A 
ATOM      5  C   UNL     1       1.662   8.053  20.024  0.00  0.00    +0.000 A 
ATOM      6  N   UNL     1       2.372   6.949  19.676  0.00  0.00    +0.000 NA
ATOM      7  C   UNL     1       2.982   6.834  18.462  0.00  0.00    +0.000 A 
ATOM      8  N   UNL     1       3.681   5.630  18.134  0.00  0.00    +0.000 N 
ATOM      9  C   UNL     1       4.781   5.585  17.181  0.00  0.00    +0.000 C 
ATOM     10  C   UNL     1       6.008   5.013  17.905  0.00  0.00    +0.000 C 
ATOM     11  N   UNL     1       5.687   3.697  18.482  0.00  0.00    +0.000 NA
ATOM     12  C   UNL     1       4.594   3.808  19.461  0.00  0.00    +0.000 C 
ATOM     13  C   UNL     1       3.347   4.369  18.779  0.00  0.00    +0.000 C 
ATOM     14  C   UNL     1       2.865   7.904  17.552  0.00  0.00    +0.000 A 
ATOM     15  N   UNL     1       2.125   8.997  17.883  0.00  0.00    +0.000 NA
ATOM     16  C   UNL     1       1.517   9.097  19.090  0.00  0.00    +0.000 A 
ATOM     17  C   UNL     1       0.740  10.216  19.411  0.00  0.00    +0.000 A 
ATOM     18  H   UNL     1       6.534   3.328  18.972  0.00  0.00    +0.000 HD
ENDROOT
TORSDOF 0
ENDMDL
MODEL 3
REMARK VINA RESULT:      -6.5      4.399      5.952
REMARK  Name = 
REMARK  0 active torsions:
REMARK  status: ('A' for Active; 'I' for Inactive)
REMARK                            x       y       z     vdW  Elec       q    Type
REMARK                         _______ _______ _______ _____ _____    ______ ____
ROOT
ATOM      1 BR   UNL     1       0.312  11.987  19.550  0.00  0.00    +0.000 Br
ATOM      2  C   UNL     1       1.047  10.251  19.244  0.00  0.00    +0.000 A 
ATOM      3  C   UNL     1       1.699   9.971  18.036  0.00  0.00    +0.000 A 
ATOM      4  C   UNL     1       2.284   8.717  17.825  0.00  0.00    +0.000 A 
ATOM      5  C   UNL     1       2.210   7.741  18.824  0.00  0.00    +0.000 A 
ATOM      6  N   UNL     1       2.812   6.535  18.659  0.00  0.00    +0.000 NA
ATOM      7  C   UNL     1       2.737   5.555  19.604  0.00  0.00    +0.000 A 
ATOM      8  N   UNL     1       3.426   4.319  19.395  0.00  0.00    +0.000 N 
ATOM      9  C   UNL     1       3.005   3.063  19.998  0.00  0.00    +0.000 C 
ATOM     10  C   UNL     1       2.756   2.057  18.866  0.00  0.00    +0.000 C 
ATOM     11  N   UNL     1       3.963   1.923  18.034  0.00  0.00    +0.000 NA
ATOM     12  C   UNL     1       4.322   3.213  17.423  0.00  0.00    +0.000 C 
ATOM     13  C   UNL     1       4.586   4.245  18.518  0.00  0.00    +0.000 C 
ATOM     14  C   UNL     1       2.007   5.815  20.781  0.00  0.00    +0.000 A 
ATOM     15  N   UNL     1       1.433   7.035  20.965  0.00  0.00    +0.000 NA
ATOM     16  C   UNL     1       1.520   8.004  20.023  0.00  0.00    +0.000 A 
ATOM     17  C   UNL     1       0.944   9.263  20.232  0.00  0.00    +0.000 A 
ATOM     18  H   UNL     1       3.770   1.236  17.268  0.00  0.00    +0.000 HD
ENDROOT
TORSDOF 0
ENDMDL
MODEL 4
REMARK VINA RESULT:      -6.4      4.650      6.306
REMARK  Name = 
REMARK  0 active torsions:
REMARK  status: ('A' for Active; 'I' for Inactive)
REMARK                            x       y       z     vdW  Elec       q    Type
REMARK                         _______ _______ _______ _____ _____    ______ ____
ROOT
ATOM      1 BR   UNL     1       3.551   1.725  18.261  0.00  0.00    +0.000 Br
ATOM      2  C   UNL     1       2.856   3.310  19.067  0.00  0.00    +0.000 A 
ATOM      3  C   UNL     1       2.251   3.245  20.329  0.00  0.00    +0.000 A 
ATOM      4  C   UNL     1       1.785   4.411  20.947  0.00  0.00    +0.000 A 
ATOM      5  C   UNL     1       1.920   5.642  20.298  0.00  0.00    +0.000 A 
ATOM      6  N   UNL     1       1.518   6.790  20.901  0.00  0.00    +0.000 NA
ATOM      7  C   UNL     1       1.615   8.003  20.284  0.00  0.00    +0.000 A 
ATOM      8  N   UNL     1       1.216   9.185  20.983  0.00  0.00    +0.000 N 
ATOM      9  C   UNL     1       0.756  10.390  20.308  0.00  0.00    +0.000 C 
ATOM     10  C   UNL     1      -0.651  10.713  20.828  0.00  0.00    +0.000 C 
ATOM     11  N   UNL     1      -0.631  10.844  22.294  0.00  0.00    +0.000 NA
ATOM     12  C   UNL     1      -0.192   9.588  22.924  0.00  0.00    +0.000 C 
ATOM     13  C   UNL     1       1.211   9.230  22.438  0.00  0.00    +0.000 C 
ATOM     14  C   UNL     1       2.149   8.048  18.980  0.00  0.00    +0.000 A 
ATOM     15  N   UNL     1       2.585   6.904  18.387  0.00  0.00    +0.000 NA
ATOM     16  C   UNL     1       2.491   5.706  19.012  0.00  0.00    +0.000 A 
ATOM     17  C   UNL     1       2.963   4.538  18.402  0.00  0.00    +0.000 A 
ATOM     18  H   UNL     1      -1.599  11.060  22.627  0.00  0.00    +0.000 HD
ENDROOT
TORSDOF 0
ENDMDL
MODEL 5
REMARK VINA RESULT:      -6.2      5.468      7.698
REMARK  Name = 
REMARK  0 active torsions:
REMARK  status: ('A' for Active; 'I' for Inactive)
REMARK                            x       y       z     vdW  Elec       q    Type
REMARK                         _______ _______ _______ _____ _____    ______ ____
ROOT
ATOM      1 BR   UNL     1      -1.628  11.902  22.066  0.00  0.00    +0.000 Br
ATOM      2  C   UNL     1      -0.400  10.594  21.412  0.00  0.00    +0.000 A 
ATOM      3  C   UNL     1       0.070   9.587  22.266  0.00  0.00    +0.000 A 
ATOM      4  C   UNL     1       0.929   8.596  21.780  0.00  0.00    +0.000 A 
ATOM      5  C   UNL     1       1.323   8.617  20.438  0.00  0.00    +0.000 A 
ATOM      6  N   UNL     1       2.118   7.637  19.935  0.00  0.00    +0.000 NA
ATOM      7  C   UNL     1       2.538   7.643  18.638  0.00  0.00    +0.000 A 
ATOM      8  N   UNL     1       3.340   6.563  18.150  0.00  0.00    +0.000 N 
ATOM      9  C   UNL     1       4.270   6.703  17.039  0.00  0.00    +0.000 C 
ATOM     10  C   UNL     1       5.664   6.301  17.540  0.00  0.00    +0.000 C 
ATOM     11  N   UNL     1       5.629   4.938  18.097  0.00  0.00    +0.000 NA
ATOM     12  C   UNL     1       4.699   4.864  19.236  0.00  0.00    +0.000 C 
ATOM     13  C   UNL     1       3.294   5.251  18.780  0.00  0.00    +0.000 C 
ATOM     14  C   UNL     1       2.129   8.706  17.807  0.00  0.00    +0.000 A 
ATOM     15  N   UNL     1       1.303   9.669  18.298  0.00  0.00    +0.000 NA
ATOM     16  C   UNL     1       0.886   9.650  19.587  0.00  0.00    +0.000 A 
ATOM     17  C   UNL     1       0.019  10.634  20.076  0.00  0.00    +0.000 A 
ATOM     18  H   UNL     1       6.586   4.686  18.434  0.00  0.00    +0.000 HD
ENDROOT
TORSDOF 0
ENDMDL
MODEL 6
REMARK VINA RESULT:      -6.1      4.697      6.566
REMARK  Name = 
REMARK  0 active torsions:
REMARK  status: ('A' for Active; 'I' for Inactive)
REMARK                            x       y       z     vdW  Elec       q    Type
REMARK                         _______ _______ _______ _____ _____    ______ ____
ROOT
ATOM      1 BR   UNL     1      -0.725  11.606  20.416  0.00  0.00    +0.000 Br
ATOM      2  C   UNL     1       0.403  10.240  19.703  0.00  0.00    +0.000 A 
ATOM      3  C   UNL     1       0.992  10.408  18.443  0.00  0.00    +0.000 A 
ATOM      4  C   UNL     1       1.860   9.434  17.937  0.00  0.00    +0.000 A 
ATOM      5  C   UNL     1       2.133   8.289  18.691  0.00  0.00    +0.000 A 
ATOM      6  N   UNL     1       3.009   7.355  18.239  0.00  0.00    +0.000 NA
ATOM      7  C   UNL     1       3.278   6.217  18.940  0.00  0.00    +0.000 A 
ATOM      8  N   UNL     1       4.242   5.287  18.437  0.00  0.00    +0.000 N 
ATOM      9  C   UNL     1       4.217   3.867  18.754  0.00  0.00    +0.000 C 
ATOM     10  C   UNL     1       4.136   3.091  17.433  0.00  0.00    +0.000 C 
ATOM     11  N   UNL     1       5.255   3.468  16.554  0.00  0.00    +0.000 NA
ATOM     12  C   UNL     1       5.210   4.905  16.239  0.00  0.00    +0.000 C 
ATOM     13  C   UNL     1       5.296   5.718  17.530  0.00  0.00    +0.000 C 
ATOM     14  C   UNL     1       2.616   6.016  20.169  0.00  0.00    +0.000 A 
ATOM     15  N   UNL     1       1.765   6.967  20.641  0.00  0.00    +0.000 NA
ATOM     16  C   UNL     1       1.511   8.097  19.940  0.00  0.00    +0.000 A 
ATOM     17  C   UNL     1       0.650   9.079  20.446  0.00  0.00    +0.000 A 
ATOM     18  H   UNL     1       5.178   2.931  15.660  0.00  0.00    +0.000 HD
ENDROOT
TORSDOF 0
ENDMDL
MODEL 7
REMARK VINA RESULT:      -6.0      4.488      6.645
REMARK  Name = 
REMARK  0 active torsions:
REMARK  status: ('A' for Active; 'I' for Inactive)
REMARK                            x       y       z     vdW  Elec       q    Type
REMARK                         _______ _______ _______ _____ _____    ______ ____
ROOT
ATOM      1 BR   UNL     1      -0.482  10.714  21.050  0.00  0.00    +0.000 Br
ATOM      2  C   UNL     1       0.693   9.646  19.990  0.00  0.00    +0.000 A 
ATOM      3  C   UNL     1       1.086  10.089  18.720  0.00  0.00    +0.000 A 
ATOM      4  C   UNL     1       1.987   9.336  17.960  0.00  0.00    +0.000 A 
ATOM      5  C   UNL     1       2.490   8.135  18.469  0.00  0.00    +0.000 A 
ATOM      6  N   UNL     1       3.402   7.413  17.767  0.00  0.00    +0.000 NA
ATOM      7  C   UNL     1       3.892   6.227  18.226  0.00  0.00    +0.000 A 
ATOM      8  N   UNL     1       4.883   5.529  17.465  0.00  0.00    +0.000 N 
ATOM      9  C   UNL     1       5.067   4.087  17.532  0.00  0.00    +0.000 C 
ATOM     10  C   UNL     1       4.902   3.525  16.114  0.00  0.00    +0.000 C 
ATOM     11  N   UNL     1       5.843   4.186  15.195  0.00  0.00    +0.000 NA
ATOM     12  C   UNL     1       5.589   5.635  15.140  0.00  0.00    +0.000 C 
ATOM     13  C   UNL     1       5.749   6.238  16.535  0.00  0.00    +0.000 C 
ATOM     14  C   UNL     1       3.427   5.746  19.468  0.00  0.00    +0.000 A 
ATOM     15  N   UNL     1       2.541   6.484  20.189  0.00  0.00    +0.000 NA
ATOM     16  C   UNL     1       2.066   7.666  19.727  0.00  0.00    +0.000 A 
ATOM     17  C   UNL     1       1.171   8.427  20.488  0.00  0.00    +0.000 A 
ATOM     18  H   UNL     1       5.711   3.791  14.235  0.00  0.00    +0.000 HD
ENDROOT
TORSDOF 0
ENDMDL
MODEL 8
REMARK VINA RESULT:      -5.8      5.782      6.988
REMARK  Name = 
REMARK  0 active torsions:
REMARK  status: ('A' for Active; 'I' for Inactive)
REMARK                            x       y       z     vdW  Elec       q    Type
REMARK                         _______ _______ _______ _____ _____    ______ ____
ROOT
ATOM      1 BR   UNL     1       4.434   3.907  17.864  0.00  0.00    +0.000 Br
ATOM      2  C   UNL     1       3.414   5.382  18.521  0.00  0.00    +0.000 A 
ATOM      3  C   UNL     1       2.866   5.333  19.810  0.00  0.00    +0.000 A 
ATOM      4  C   UNL     1       2.160   6.430  20.316  0.00  0.00    +0.000 A 
ATOM      5  C   UNL     1       1.999   7.574  19.529  0.00  0.00    +0.000 A 
ATOM      6  N   UNL     1       1.359   8.667  20.020  0.00  0.00    +0.000 NA
ATOM      7  C   UNL     1       1.165   9.789  19.269  0.00  0.00    +0.000 A 
ATOM      8  N   UNL     1       0.522  10.926  19.851  0.00  0.00    +0.000 N 
ATOM      9  C   UNL     1      -0.213  11.910  19.069  0.00  0.00    +0.000 C 
ATOM     10  C   UNL     1      -1.646  11.970  19.615  0.00  0.00    +0.000 C 
ATOM     11  N   UNL     1      -1.626  12.274  21.056  0.00  0.00    +0.000 NA
ATOM     12  C   UNL     1      -0.900  11.231  21.799  0.00  0.00    +0.000 C 
ATOM     13  C   UNL     1       0.537  11.141  21.290  0.00  0.00    +0.000 C 
ATOM     14  C   UNL     1       1.647   9.798  17.944  0.00  0.00    +0.000 A 
ATOM     15  N   UNL     1       2.320   8.718  17.462  0.00  0.00    +0.000 NA
ATOM     16  C   UNL     1       2.513   7.612  18.219  0.00  0.00    +0.000 A 
ATOM     17  C   UNL     1       3.226   6.515  17.719  0.00  0.00    +0.000 A 
ATOM     18  H   UNL     1      -2.610  12.307  21.407  0.00  0.00    +0.000 HD
ENDROOT
TORSDOF 0
ENDMDL
MODEL 9
REMARK VINA RESULT:      -5.8      3.908      4.793
REMARK  Name = 
REMARK  0 active torsions:
REMARK  status: ('A' for Active; 'I' for Inactive)
REMARK                            x       y       z     vdW  Elec       q    Type
REMARK                         _______ _______ _______ _____ _____    ______ ____
ROOT
ATOM      1 BR   UNL     1       6.199   3.831  15.305  0.00  0.00    +0.000 Br
ATOM      2  C   UNL     1       5.192   5.084  16.336  0.00  0.00    +0.000 A 
ATOM      3  C   UNL     1       5.163   6.434  15.961  0.00  0.00    +0.000 A 
ATOM      4  C   UNL     1       4.386   7.348  16.682  0.00  0.00    +0.000 A 
ATOM      5  C   UNL     1       3.644   6.911  17.783  0.00  0.00    +0.000 A 
ATOM      6  N   UNL     1       2.847   7.772  18.467  0.00  0.00    +0.000 NA
ATOM      7  C   UNL     1       2.130   7.380  19.559  0.00  0.00    +0.000 A 
ATOM      8  N   UNL     1       1.274   8.320  20.215  0.00  0.00    +0.000 N 
ATOM      9  C   UNL     1       0.915   8.220  21.623  0.00  0.00    +0.000 C 
ATOM     10  C   UNL     1       1.344   9.522  22.311  0.00  0.00    +0.000 C 
ATOM     11  N   UNL     1       0.728  10.677  21.639  0.00  0.00    +0.000 NA
ATOM     12  C   UNL     1       1.152  10.748  20.231  0.00  0.00    +0.000 C 
ATOM     13  C   UNL     1       0.737   9.471  19.503  0.00  0.00    +0.000 C 
ATOM     14  C   UNL     1       2.231   6.039  19.980  0.00  0.00    +0.000 A 
ATOM     15  N   UNL     1       3.001   5.166  19.275  0.00  0.00    +0.000 NA
ATOM     16  C   UNL     1       3.703   5.563  18.188  0.00  0.00    +0.000 A 
ATOM     17  C   UNL     1       4.475   4.651  17.458  0.00  0.00    +0.000 A 
ATOM     18  H   UNL     1       1.037  11.553  22.121  0.00  0.00    +0.000 HD
ENDROOT
TORSDOF 0
ENDMDL
