MODEL 1
REMARK VINA RESULT:      -8.0      0.000      0.000
REMARK  Name = 
REMARK  3 active torsions:
REMARK  status: ('A' for Active; 'I' for Inactive)
REMARK    1  A    between atoms: C_1  and  C_2
REMARK    2  A    between atoms: C_5  and  N_6
REMARK    3  A    between atoms: C_7  and  C_8
REMARK                            x       y       z     vdW  Elec       q    Type
REMARK                         _______ _______ _______ _____ _____    ______ ____
ROOT
ATOM      1  N   UNL     1       3.394   5.478  18.222  0.00  0.00    +0.000 N 
ATOM      2  C   UNL     1       4.762   5.201  17.965  0.00  0.00    +0.000 A 
ATOM      3  C   UNL     1       4.802   3.875  17.595  0.00  0.00    +0.000 A 
ATOM      4  N   UNL     1       3.539   3.351  17.746  0.00  0.00    +0.000 N 
ATOM      5  C   UNL     1       2.674   4.335  18.058  0.00  0.00    +0.000 A 
ATOM      6  C   UNL     1       1.193   4.094  18.170  0.00  0.00    +0.000 C 
ATOM      7  C   UNL     1       0.832   3.223  19.365  0.00  0.00    +0.000 C 
ATOM      8  C   UNL     1       1.100   1.737  19.110  0.00  0.00    +0.000 C 
ATOM      9  C   UNL     1       2.567   1.364  18.871  0.00  0.00    +0.000 C 
ATOM     10  C   UNL     1       3.169   1.937  17.589  0.00  0.00    +0.000 C 
ENDROOT
BRANCH   1  15
ATOM     11  C   UNL     1       1.039  10.627  19.291  0.00  0.00    +0.000 C 
ATOM     12  C   UNL     1       1.651   9.283  19.020  0.00  0.00    +0.000 A 
ATOM     13  C   UNL     1       1.723   8.311  20.024  0.00  0.00    +0.000 A 
ATOM     14  C   UNL     1       2.326   7.077  19.770  0.00  0.00    +0.000 A 
ATOM     15  C   UNL     1       2.811   6.798  18.493  0.00  0.00    +0.000 A 
ATOM     16  C   UNL     1       2.720   7.739  17.476  0.00  0.00    +0.000 A 
ATOM     17  C   UNL     1       2.166   8.993  17.749  0.00  0.00    +0.000 A 
ENDBRANCH   1  15
BRANCH   2  18
ATOM     18  C   UNL     1       5.964   6.091  18.097  0.00  0.00    +0.000 A 
ATOM     19  C   UNL     1       6.106   7.206  17.267  0.00  0.00    +0.000 A 
ATOM     20  C   UNL     1       7.268   7.974  17.322  0.00  0.00    +0.000 A 
ATOM     21  C   UNL     1       8.281   7.641  18.219  0.00  0.00    +0.000 A 
ATOM     22  C   UNL     1       8.122   6.557  19.082  0.00  0.00    +0.000 A 
ATOM     23  C   UNL     1       6.957   5.788  19.036  0.00  0.00    +0.000 A 
ENDBRANCH   2  18
TORSDOF 2
ENDMDL
MODEL 2
REMARK VINA RESULT:      -8.0      0.118      1.015
REMARK  Name = 
REMARK  3 active torsions:
REMARK  status: ('A' for Active; 'I' for Inactive)
REMARK    1  A    between atoms: C_1  and  C_2
REMARK    2  A    between atoms: C_5  and  N_6
REMARK    3  A    between atoms: C_7  and  C_8
REMARK                            x       y       z     vdW  Elec       q    Type
REMARK                         _______ _______ _______ _____ _____    ______ ____
ROOT
ATOM      1  N   UNL     1       3.458   5.456  18.176  0.00  0.00    +0.000 N 
ATOM      2  C   UNL     1       4.818   5.173  17.886  0.00  0.00    +0.000 A 
ATOM      3  C   UNL     1       4.848   3.840  17.543  0.00  0.00    +0.000 A 
ATOM      4  N   UNL     1       3.590   3.320  17.741  0.00  0.00    +0.000 N 
ATOM      5  C   UNL     1       2.734   4.311  18.056  0.00  0.00    +0.000 A 
ATOM      6  C   UNL     1       1.257   4.073  18.215  0.00  0.00    +0.000 C 
ATOM      7  C   UNL     1       0.930   3.227  19.438  0.00  0.00    +0.000 C 
ATOM      8  C   UNL     1       1.190   1.736  19.206  0.00  0.00    +0.000 C 
ATOM      9  C   UNL     1       2.650   1.358  18.934  0.00  0.00    +0.000 C 
ATOM     10  C   UNL     1       3.216   1.903  17.624  0.00  0.00    +0.000 C 
ENDROOT
BRANCH   1  15
ATOM     11  C   UNL     1       1.133  10.628  19.200  0.00  0.00    +0.000 C 
ATOM     12  C   UNL     1       1.738   9.278  18.940  0.00  0.00    +0.000 A 
ATOM     13  C   UNL     1       1.791   8.309  19.949  0.00  0.00    +0.000 A 
ATOM     14  C   UNL     1       2.387   7.070  19.706  0.00  0.00    +0.000 A 
ATOM     15  C   UNL     1       2.883   6.782  18.436  0.00  0.00    +0.000 A 
ATOM     16  C   UNL     1       2.810   7.720  17.414  0.00  0.00    +0.000 A 
ATOM     17  C   UNL     1       2.264   8.980  17.677  0.00  0.00    +0.000 A 
ENDBRANCH   1  15
BRANCH   2  18
ATOM     18  C   UNL     1       6.024   6.065  17.965  0.00  0.00    +0.000 A 
ATOM     19  C   UNL     1       7.051   5.778  18.866  0.00  0.00    +0.000 A 
ATOM     20  C   UNL     1       8.123   6.659  19.008  0.00  0.00    +0.000 A 
ATOM     21  C   UNL     1       8.178   7.817  18.236  0.00  0.00    +0.000 A 
ATOM     22  C   UNL     1       7.178   8.083  17.301  0.00  0.00    +0.000 A 
ATOM     23  C   UNL     1       6.106   7.201  17.149  0.00  0.00    +0.000 A 
ENDBRANCH   2  18
TORSDOF 2
ENDMDL
MODEL 3
REMARK VINA RESULT:      -7.9      0.050      1.009
REMARK  Name = 
REMARK  3 active torsions:
REMARK  status: ('A' for Active; 'I' for Inactive)
REMARK    1  A    between atoms: C_1  and  C_2
REMARK    2  A    between atoms: C_5  and  N_6
REMARK    3  A    between atoms: C_7  and  C_8
REMARK                            x       y       z     vdW  Elec       q    Type
REMARK                         _______ _______ _______ _____ _____    ______ ____
ROOT
ATOM      1  N   UNL     1       3.384   5.456  18.220  0.00  0.00    +0.000 N 
ATOM      2  C   UNL     1       4.755   5.196  17.958  0.00  0.00    +0.000 A 
ATOM      3  C   UNL     1       4.811   3.869  17.596  0.00  0.00    +0.000 A 
ATOM      4  N   UNL     1       3.556   3.329  17.756  0.00  0.00    +0.000 N 
ATOM      5  C   UNL     1       2.679   4.303  18.066  0.00  0.00    +0.000 A 
ATOM      6  C   UNL     1       1.202   4.042  18.187  0.00  0.00    +0.000 C 
ATOM      7  C   UNL     1       0.859   3.173  19.389  0.00  0.00    +0.000 C 
ATOM      8  C   UNL     1       1.146   1.690  19.141  0.00  0.00    +0.000 C 
ATOM      9  C   UNL     1       2.617   1.336  18.897  0.00  0.00    +0.000 C 
ATOM     10  C   UNL     1       3.205   1.909  17.609  0.00  0.00    +0.000 C 
ENDROOT
BRANCH   1  15
ATOM     11  C   UNL     1       1.098  10.642  19.260  0.00  0.00    +0.000 C 
ATOM     12  C   UNL     1       1.695   9.293  18.982  0.00  0.00    +0.000 A 
ATOM     13  C   UNL     1       2.192   8.975  17.712  0.00  0.00    +0.000 A 
ATOM     14  C   UNL     1       2.713   7.705  17.456  0.00  0.00    +0.000 A 
ATOM     15  C   UNL     1       2.785   6.770  18.486  0.00  0.00    +0.000 A 
ATOM     16  C   UNL     1       2.326   7.078  19.761  0.00  0.00    +0.000 A 
ATOM     17  C   UNL     1       1.753   8.331  19.999  0.00  0.00    +0.000 A 
ENDBRANCH   1  15
BRANCH   2  18
ATOM     18  C   UNL     1       5.945   6.103  18.078  0.00  0.00    +0.000 A 
ATOM     19  C   UNL     1       6.059   7.224  17.252  0.00  0.00    +0.000 A 
ATOM     20  C   UNL     1       7.211   8.009  17.295  0.00  0.00    +0.000 A 
ATOM     21  C   UNL     1       8.240   7.687  18.177  0.00  0.00    +0.000 A 
ATOM     22  C   UNL     1       8.108   6.598  19.038  0.00  0.00    +0.000 A 
ATOM     23  C   UNL     1       6.954   5.811  19.004  0.00  0.00    +0.000 A 
ENDBRANCH   2  18
TORSDOF 2
ENDMDL
MODEL 4
REMARK VINA RESULT:      -7.7      0.155      1.434
REMARK  Name = 
REMARK  3 active torsions:
REMARK  status: ('A' for Active; 'I' for Inactive)
REMARK    1  A    between atoms: C_1  and  C_2
REMARK    2  A    between atoms: C_5  and  N_6
REMARK    3  A    between atoms: C_7  and  C_8
REMARK                            x       y       z     vdW  Elec       q    Type
REMARK                         _______ _______ _______ _____ _____    ______ ____
ROOT
ATOM      1  N   UNL     1       3.443   5.438  18.170  0.00  0.00    +0.000 N 
ATOM      2  C   UNL     1       4.805   5.173  17.872  0.00  0.00    +0.000 A 
ATOM      3  C   UNL     1       4.851   3.838  17.534  0.00  0.00    +0.000 A 
ATOM      4  N   UNL     1       3.602   3.302  17.743  0.00  0.00    +0.000 N 
ATOM      5  C   UNL     1       2.734   4.282  18.061  0.00  0.00    +0.000 A 
ATOM      6  C   UNL     1       1.262   4.024  18.232  0.00  0.00    +0.000 C 
ATOM      7  C   UNL     1       0.956   3.179  19.460  0.00  0.00    +0.000 C 
ATOM      8  C   UNL     1       1.235   1.691  19.233  0.00  0.00    +0.000 C 
ATOM      9  C   UNL     1       2.698   1.332  18.952  0.00  0.00    +0.000 C 
ATOM     10  C   UNL     1       3.247   1.879  17.635  0.00  0.00    +0.000 C 
ENDROOT
BRANCH   1  15
ATOM     11  C   UNL     1       1.188  10.644  19.180  0.00  0.00    +0.000 C 
ATOM     12  C   UNL     1       1.777   9.289  18.910  0.00  0.00    +0.000 A 
ATOM     13  C   UNL     1       2.288   8.967  17.647  0.00  0.00    +0.000 A 
ATOM     14  C   UNL     1       2.802   7.693  17.397  0.00  0.00    +0.000 A 
ATOM     15  C   UNL     1       2.851   6.756  18.429  0.00  0.00    +0.000 A 
ATOM     16  C   UNL     1       2.378   7.069  19.697  0.00  0.00    +0.000 A 
ATOM     17  C   UNL     1       1.813   8.327  19.928  0.00  0.00    +0.000 A 
ENDBRANCH   1  15
BRANCH   2  18
ATOM     18  C   UNL     1       5.998   6.081  17.938  0.00  0.00    +0.000 A 
ATOM     19  C   UNL     1       7.045   5.802  18.820  0.00  0.00    +0.000 A 
ATOM     20  C   UNL     1       8.105   6.699  18.951  0.00  0.00    +0.000 A 
ATOM     21  C   UNL     1       8.131   7.863  18.188  0.00  0.00    +0.000 A 
ATOM     22  C   UNL     1       7.112   8.121  17.272  0.00  0.00    +0.000 A 
ATOM     23  C   UNL     1       6.050   7.224  17.130  0.00  0.00    +0.000 A 
ENDBRANCH   2  18
TORSDOF 2
ENDMDL
MODEL 5
REMARK VINA RESULT:      -7.1      1.697      4.945
REMARK  Name = 
REMARK  3 active torsions:
REMARK  status: ('A' for Active; 'I' for Inactive)
REMARK    1  A    between atoms: C_1  and  C_2
REMARK    2  A    between atoms: C_5  and  N_6
REMARK    3  A    between atoms: C_7  and  C_8
REMARK                            x       y       z     vdW  Elec       q    Type
REMARK                         _______ _______ _______ _____ _____    ______ ____
ROOT
ATOM      1  N   UNL     1       3.889   5.711  18.268  0.00  0.00    +0.000 N 
ATOM      2  C   UNL     1       3.834   4.438  18.893  0.00  0.00    +0.000 A 
ATOM      3  C   UNL     1       4.954   3.768  18.454  0.00  0.00    +0.000 A 
ATOM      4  N   UNL     1       5.580   4.552  17.514  0.00  0.00    +0.000 N 
ATOM      5  C   UNL     1       4.977   5.755  17.452  0.00  0.00    +0.000 A 
ATOM      6  C   UNL     1       5.508   6.875  16.599  0.00  0.00    +0.000 C 
ATOM      7  C   UNL     1       5.376   6.588  15.110  0.00  0.00    +0.000 C 
ATOM      8  C   UNL     1       6.454   5.628  14.599  0.00  0.00    +0.000 C 
ATOM      9  C   UNL     1       6.421   4.220  15.203  0.00  0.00    +0.000 C 
ATOM     10  C   UNL     1       6.737   4.159  16.696  0.00  0.00    +0.000 C 
ENDROOT
BRANCH   1  15
ATOM     11  C   UNL     1       0.479  10.233  19.331  0.00  0.00    +0.000 C 
ATOM     12  C   UNL     1       1.369   9.056  19.047  0.00  0.00    +0.000 A 
ATOM     13  C   UNL     1       1.926   8.868  17.777  0.00  0.00    +0.000 A 
ATOM     14  C   UNL     1       2.724   7.752  17.514  0.00  0.00    +0.000 A 
ATOM     15  C   UNL     1       3.006   6.851  18.540  0.00  0.00    +0.000 A 
ATOM     16  C   UNL     1       2.487   7.040  19.815  0.00  0.00    +0.000 A 
ATOM     17  C   UNL     1       1.644   8.128  20.059  0.00  0.00    +0.000 A 
ENDBRANCH   1  15
BRANCH   2  18
ATOM     18  C   UNL     1       2.791   3.859  19.804  0.00  0.00    +0.000 A 
ATOM     19  C   UNL     1       3.096   3.592  21.141  0.00  0.00    +0.000 A 
ATOM     20  C   UNL     1       2.159   2.964  21.960  0.00  0.00    +0.000 A 
ATOM     21  C   UNL     1       0.909   2.619  21.450  0.00  0.00    +0.000 A 
ATOM     22  C   UNL     1       0.584   2.927  20.129  0.00  0.00    +0.000 A 
ATOM     23  C   UNL     1       1.516   3.563  19.306  0.00  0.00    +0.000 A 
ENDBRANCH   2  18
TORSDOF 2
ENDMDL
MODEL 6
REMARK VINA RESULT:      -7.1      1.721      4.860
REMARK  Name = 
REMARK  3 active torsions:
REMARK  status: ('A' for Active; 'I' for Inactive)
REMARK    1  A    between atoms: C_1  and  C_2
REMARK    2  A    between atoms: C_5  and  N_6
REMARK    3  A    between atoms: C_7  and  C_8
REMARK                            x       y       z     vdW  Elec       q    Type
REMARK                         _______ _______ _______ _____ _____    ______ ____
ROOT
ATOM      1  N   UNL     1       3.939   5.593  18.241  0.00  0.00    +0.000 N 
ATOM      2  C   UNL     1       3.908   4.299  18.824  0.00  0.00    +0.000 A 
ATOM      3  C   UNL     1       5.026   3.655  18.341  0.00  0.00    +0.000 A 
ATOM      4  N   UNL     1       5.627   4.478  17.418  0.00  0.00    +0.000 N 
ATOM      5  C   UNL     1       5.011   5.676  17.408  0.00  0.00    +0.000 A 
ATOM      6  C   UNL     1       5.516   6.829  16.584  0.00  0.00    +0.000 C 
ATOM      7  C   UNL     1       5.360   6.592  15.089  0.00  0.00    +0.000 C 
ATOM      8  C   UNL     1       6.437   5.662  14.526  0.00  0.00    +0.000 C 
ATOM      9  C   UNL     1       6.428   4.233  15.082  0.00  0.00    +0.000 C 
ATOM     10  C   UNL     1       6.772   4.125  16.566  0.00  0.00    +0.000 C 
ENDROOT
BRANCH   1  15
ATOM     11  C   UNL     1       0.505  10.040  19.517  0.00  0.00    +0.000 C 
ATOM     12  C   UNL     1       1.400   8.883  19.177  0.00  0.00    +0.000 A 
ATOM     13  C   UNL     1       1.890   8.712  17.877  0.00  0.00    +0.000 A 
ATOM     14  C   UNL     1       2.694   7.614  17.565  0.00  0.00    +0.000 A 
ATOM     15  C   UNL     1       3.049   6.714  18.568  0.00  0.00    +0.000 A 
ATOM     16  C   UNL     1       2.598   6.886  19.871  0.00  0.00    +0.000 A 
ATOM     17  C   UNL     1       1.748   7.956  20.167  0.00  0.00    +0.000 A 
ENDBRANCH   1  15
BRANCH   2  18
ATOM     18  C   UNL     1       2.887   3.678  19.732  0.00  0.00    +0.000 A 
ATOM     19  C   UNL     1       1.545   3.623  19.347  0.00  0.00    +0.000 A 
ATOM     20  C   UNL     1       0.584   3.137  20.232  0.00  0.00    +0.000 A 
ATOM     21  C   UNL     1       0.964   2.686  21.494  0.00  0.00    +0.000 A 
ATOM     22  C   UNL     1       2.309   2.695  21.864  0.00  0.00    +0.000 A 
ATOM     23  C   UNL     1       3.277   3.174  20.980  0.00  0.00    +0.000 A 
ENDBRANCH   2  18
TORSDOF 2
ENDMDL
MODEL 7
REMARK VINA RESULT:      -7.1      1.706      4.833
REMARK  Name = 
REMARK  3 active torsions:
REMARK  status: ('A' for Active; 'I' for Inactive)
REMARK    1  A    between atoms: C_1  and  C_2
REMARK    2  A    between atoms: C_5  and  N_6
REMARK    3  A    between atoms: C_7  and  C_8
REMARK                            x       y       z     vdW  Elec       q    Type
REMARK                         _______ _______ _______ _____ _____    ______ ____
ROOT
ATOM      1  N   UNL     1       3.899   5.701  18.224  0.00  0.00    +0.000 N 
ATOM      2  C   UNL     1       3.830   4.424  18.841  0.00  0.00    +0.000 A 
ATOM      3  C   UNL     1       4.930   3.736  18.379  0.00  0.00    +0.000 A 
ATOM      4  N   UNL     1       5.555   4.516  17.435  0.00  0.00    +0.000 N 
ATOM      5  C   UNL     1       4.974   5.730  17.391  0.00  0.00    +0.000 A 
ATOM      6  C   UNL     1       5.513   6.846  16.537  0.00  0.00    +0.000 C 
ATOM      7  C   UNL     1       5.352   6.573  15.049  0.00  0.00    +0.000 C 
ATOM      8  C   UNL     1       6.403   5.597  14.514  0.00  0.00    +0.000 C 
ATOM      9  C   UNL     1       6.352   4.185  15.108  0.00  0.00    +0.000 C 
ATOM     10  C   UNL     1       6.691   4.107  16.595  0.00  0.00    +0.000 C 
ENDROOT
BRANCH   1  15
ATOM     11  C   UNL     1       0.475  10.187  19.385  0.00  0.00    +0.000 C 
ATOM     12  C   UNL     1       1.367   9.015  19.090  0.00  0.00    +0.000 A 
ATOM     13  C   UNL     1       1.672   8.077  20.083  0.00  0.00    +0.000 A 
ATOM     14  C   UNL     1       2.530   7.011  19.806  0.00  0.00    +0.000 A 
ATOM     15  C   UNL     1       3.042   6.855  18.519  0.00  0.00    +0.000 A 
ATOM     16  C   UNL     1       2.724   7.759  17.513  0.00  0.00    +0.000 A 
ATOM     17  C   UNL     1       1.909   8.856  17.808  0.00  0.00    +0.000 A 
ENDBRANCH   1  15
BRANCH   2  18
ATOM     18  C   UNL     1       2.791   3.858  19.765  0.00  0.00    +0.000 A 
ATOM     19  C   UNL     1       3.112   3.578  21.095  0.00  0.00    +0.000 A 
ATOM     20  C   UNL     1       2.176   2.961  21.924  0.00  0.00    +0.000 A 
ATOM     21  C   UNL     1       0.913   2.641  21.432  0.00  0.00    +0.000 A 
ATOM     22  C   UNL     1       0.573   2.963  20.118  0.00  0.00    +0.000 A 
ATOM     23  C   UNL     1       1.503   3.587  19.284  0.00  0.00    +0.000 A 
ENDBRANCH   2  18
TORSDOF 2
ENDMDL
MODEL 8
REMARK VINA RESULT:      -7.1      1.728      4.751
REMARK  Name = 
REMARK  3 active torsions:
REMARK  status: ('A' for Active; 'I' for Inactive)
REMARK    1  A    between atoms: C_1  and  C_2
REMARK    2  A    between atoms: C_5  and  N_6
REMARK    3  A    between atoms: C_7  and  C_8
REMARK                            x       y       z     vdW  Elec       q    Type
REMARK                         _______ _______ _______ _____ _____    ______ ____
ROOT
ATOM      1  N   UNL     1       3.943   5.565  18.217  0.00  0.00    +0.000 N 
ATOM      2  C   UNL     1       3.895   4.268  18.791  0.00  0.00    +0.000 A 
ATOM      3  C   UNL     1       4.994   3.607  18.288  0.00  0.00    +0.000 A 
ATOM      4  N   UNL     1       5.597   4.424  17.362  0.00  0.00    +0.000 N 
ATOM      5  C   UNL     1       5.004   5.634  17.369  0.00  0.00    +0.000 A 
ATOM      6  C   UNL     1       5.520   6.783  16.546  0.00  0.00    +0.000 C 
ATOM      7  C   UNL     1       5.337   6.560  15.051  0.00  0.00    +0.000 C 
ATOM      8  C   UNL     1       6.389   5.613  14.467  0.00  0.00    +0.000 C 
ATOM      9  C   UNL     1       6.360   4.181  15.013  0.00  0.00    +0.000 C 
ATOM     10  C   UNL     1       6.723   4.055  16.492  0.00  0.00    +0.000 C 
ENDROOT
BRANCH   1  15
ATOM     11  C   UNL     1       0.498   9.976  19.587  0.00  0.00    +0.000 C 
ATOM     12  C   UNL     1       1.396   8.824  19.237  0.00  0.00    +0.000 A 
ATOM     13  C   UNL     1       1.761   7.880  20.203  0.00  0.00    +0.000 A 
ATOM     14  C   UNL     1       2.624   6.832  19.875  0.00  0.00    +0.000 A 
ATOM     15  C   UNL     1       3.080   6.701  18.564  0.00  0.00    +0.000 A 
ATOM     16  C   UNL     1       2.702   7.611  17.585  0.00  0.00    +0.000 A 
ATOM     17  C   UNL     1       1.883   8.690  17.931  0.00  0.00    +0.000 A 
ENDBRANCH   1  15
BRANCH   2  18
ATOM     18  C   UNL     1       2.876   3.661  19.710  0.00  0.00    +0.000 A 
ATOM     19  C   UNL     1       1.532   3.608  19.331  0.00  0.00    +0.000 A 
ATOM     20  C   UNL     1       0.573   3.134  20.225  0.00  0.00    +0.000 A 
ATOM     21  C   UNL     1       0.956   2.694  21.490  0.00  0.00    +0.000 A 
ATOM     22  C   UNL     1       2.303   2.700  21.853  0.00  0.00    +0.000 A 
ATOM     23  C   UNL     1       3.270   3.167  20.961  0.00  0.00    +0.000 A 
ENDBRANCH   2  18
TORSDOF 2
ENDMDL
MODEL 9
REMARK VINA RESULT:      -7.0      1.142      1.577
REMARK  Name = 
REMARK  3 active torsions:
REMARK  status: ('A' for Active; 'I' for Inactive)
REMARK    1  A    between atoms: C_1  and  C_2
REMARK    2  A    between atoms: C_5  and  N_6
REMARK    3  A    between atoms: C_7  and  C_8
REMARK                            x       y       z     vdW  Elec       q    Type
REMARK                         _______ _______ _______ _____ _____    ______ ____
ROOT
ATOM      1  N   UNL     1       3.447   5.484  19.059  0.00  0.00    +0.000 N 
ATOM      2  C   UNL     1       4.780   5.156  18.699  0.00  0.00    +0.000 A 
ATOM      3  C   UNL     1       4.864   3.787  18.821  0.00  0.00    +0.000 A 
ATOM      4  N   UNL     1       3.680   3.332  19.351  0.00  0.00    +0.000 N 
ATOM      5  C   UNL     1       2.798   4.347  19.430  0.00  0.00    +0.000 A 
ATOM      6  C   UNL     1       1.371   4.138  19.860  0.00  0.00    +0.000 C 
ATOM      7  C   UNL     1       1.254   3.752  21.328  0.00  0.00    +0.000 C 
ATOM      8  C   UNL     1       1.592   2.280  21.576  0.00  0.00    +0.000 C 
ATOM      9  C   UNL     1       3.032   1.871  21.250  0.00  0.00    +0.000 C 
ATOM     10  C   UNL     1       3.397   1.951  19.768  0.00  0.00    +0.000 C 
ENDROOT
BRANCH   1  15
ATOM     11  C   UNL     1       0.892  10.627  18.583  0.00  0.00    +0.000 C 
ATOM     12  C   UNL     1       1.556   9.286  18.714  0.00  0.00    +0.000 A 
ATOM     13  C   UNL     1       1.578   8.613  19.941  0.00  0.00    +0.000 A 
ATOM     14  C   UNL     1       2.229   7.383  20.060  0.00  0.00    +0.000 A 
ATOM     15  C   UNL     1       2.813   6.802  18.936  0.00  0.00    +0.000 A 
ATOM     16  C   UNL     1       2.773   7.441  17.703  0.00  0.00    +0.000 A 
ATOM     17  C   UNL     1       2.169   8.698  17.601  0.00  0.00    +0.000 A 
ENDBRANCH   1  15
BRANCH   2  18
ATOM     18  C   UNL     1       5.918   6.054  18.308  0.00  0.00    +0.000 A 
ATOM     19  C   UNL     1       7.126   5.999  19.008  0.00  0.00    +0.000 A 
ATOM     20  C   UNL     1       8.148   6.900  18.710  0.00  0.00    +0.000 A 
ATOM     21  C   UNL     1       7.971   7.843  17.699  0.00  0.00    +0.000 A 
ATOM     22  C   UNL     1       6.785   7.868  16.966  0.00  0.00    +0.000 A 
ATOM     23  C   UNL     1       5.761   6.964  17.256  0.00  0.00    +0.000 A 
ENDBRANCH   2  18
TORSDOF 2
ENDMDL
