MODEL 1
REMARK VINA RESULT:      -6.8      0.000      0.000
REMARK  Name = 
REMARK  10 active torsions:
REMARK  status: ('A' for Active; 'I' for Inactive)
REMARK    1  A    between atoms: C_1  and  C_2
REMARK    2  A    between atoms: C_2  and  C_3
REMARK    3  A    between atoms: C_2  and  N_4
REMARK    4  A    between atoms: N_4  and  C_5
REMARK    5  A    between atoms: C_5  and  C_6
REMARK    6  A    between atoms: C_6  and  O_7
REMARK    7  A    between atoms: C_6  and  C_8
REMARK    8  A    between atoms: C_8  and  O_9
REMARK    9  A    between atoms: O_9  and  C_10
REMARK   10  A    between atoms: C_15  and  N_16
REMARK                            x       y       z     vdW  Elec       q    Type
REMARK                         _______ _______ _______ _____ _____    ______ ____
ROOT
ATOM      1  O   UNL     1       5.278   3.836  16.390  0.00  0.00    +0.000 OA
ENDROOT
BRANCH   1   2
ATOM      2  C   UNL     1       4.305   4.285  17.249  0.00  0.00    +0.000 A 
ATOM      3  C   UNL     1       3.013   3.729  17.232  0.00  0.00    +0.000 A 
ATOM      4  C   UNL     1       2.005   4.205  18.072  0.00  0.00    +0.000 A 
ATOM      5  C   UNL     1       2.277   5.233  18.960  0.00  0.00    +0.000 A 
ATOM      6  C   UNL     1       3.558   5.784  19.012  0.00  0.00    +0.000 A 
ATOM      7  C   UNL     1       4.589   5.320  18.167  0.00  0.00    +0.000 A 
BRANCH   7   8
ATOM      8  N   UNL     1       5.874   5.950  18.269  0.00  0.00    +0.000 N 
ATOM      9  C   UNL     1       6.307   7.038  17.523  0.00  0.00    +0.000 A 
ATOM     10  C   UNL     1       7.620   7.322  17.838  0.00  0.00    +0.000 A 
ATOM     11  C   UNL     1       8.004   6.424  18.848  0.00  0.00    +0.000 A 
ATOM     12  C   UNL     1       6.915   5.621  19.116  0.00  0.00    +0.000 A 
ENDBRANCH   7   8
ENDBRANCH   1   2
BRANCH   1  13
ATOM     13  C   UNL     1       5.378   4.524  15.133  0.00  0.00    +0.000 C 
BRANCH  13  14
ATOM     14  C   UNL     1       6.799   4.379  14.572  0.00  0.00    +0.000 C 
BRANCH  14  15
ATOM     15  O   UNL     1       7.507   5.620  14.734  0.00  0.00    +0.000 OA
ATOM     16  H   UNL     1       7.277   6.166  13.963  0.00  0.00    +0.000 HD
ENDBRANCH  14  15
BRANCH  14  17
ATOM     17  C   UNL     1       6.798   3.976  13.089  0.00  0.00    +0.000 C 
BRANCH  17  18
ATOM     18  N   UNL     1       5.805   2.916  12.861  0.00  0.00    +0.000 NA
ATOM     19  H   UNL     1       6.154   2.059  13.299  0.00  0.00    +0.000 HD
BRANCH  18  21
ATOM     20  C   UNL     1       5.861   1.231  11.111  0.00  0.00    +0.000 C 
ATOM     21  C   UNL     1       5.522   2.686  11.442  0.00  0.00    +0.000 C 
ATOM     22  C   UNL     1       4.053   2.957  11.105  0.00  0.00    +0.000 C 
ENDBRANCH  18  21
ENDBRANCH  17  18
ENDBRANCH  14  17
ENDBRANCH  13  14
ENDBRANCH   1  13
TORSDOF 8
ENDMDL
MODEL 2
REMARK VINA RESULT:      -6.8      2.520      4.333
REMARK  Name = 
REMARK  10 active torsions:
REMARK  status: ('A' for Active; 'I' for Inactive)
REMARK    1  A    between atoms: C_1  and  C_2
REMARK    2  A    between atoms: C_2  and  C_3
REMARK    3  A    between atoms: C_2  and  N_4
REMARK    4  A    between atoms: N_4  and  C_5
REMARK    5  A    between atoms: C_5  and  C_6
REMARK    6  A    between atoms: C_6  and  O_7
REMARK    7  A    between atoms: C_6  and  C_8
REMARK    8  A    between atoms: C_8  and  O_9
REMARK    9  A    between atoms: O_9  and  C_10
REMARK   10  A    between atoms: C_15  and  N_16
REMARK                            x       y       z     vdW  Elec       q    Type
REMARK                         _______ _______ _______ _____ _____    ______ ____
ROOT
ATOM      1  O   UNL     1       5.143   5.814  18.794  0.00  0.00    +0.000 OA
ENDROOT
BRANCH   1   2
ATOM      2  C   UNL     1       4.124   4.952  18.469  0.00  0.00    +0.000 A 
ATOM      3  C   UNL     1       4.381   3.595  18.204  0.00  0.00    +0.000 A 
ATOM      4  C   UNL     1       3.359   2.719  17.833  0.00  0.00    +0.000 A 
ATOM      5  C   UNL     1       2.056   3.181  17.742  0.00  0.00    +0.000 A 
ATOM      6  C   UNL     1       1.773   4.518  18.023  0.00  0.00    +0.000 A 
ATOM      7  C   UNL     1       2.793   5.421  18.394  0.00  0.00    +0.000 A 
BRANCH   7   8
ATOM      8  N   UNL     1       2.423   6.783  18.650  0.00  0.00    +0.000 N 
ATOM      9  C   UNL     1       2.019   7.298  19.875  0.00  0.00    +0.000 A 
ATOM     10  C   UNL     1       1.672   8.625  19.727  0.00  0.00    +0.000 A 
ATOM     11  C   UNL     1       1.916   8.967  18.387  0.00  0.00    +0.000 A 
ATOM     12  C   UNL     1       2.404   7.840  17.760  0.00  0.00    +0.000 A 
ENDBRANCH   7   8
ENDBRANCH   1   2
BRANCH   1  13
ATOM     13  C   UNL     1       6.351   5.208  19.281  0.00  0.00    +0.000 C 
BRANCH  13  14
ATOM     14  C   UNL     1       7.559   5.770  18.520  0.00  0.00    +0.000 C 
BRANCH  14  15
ATOM     15  O   UNL     1       8.391   6.518  19.424  0.00  0.00    +0.000 OA
ATOM     16  H   UNL     1       8.965   7.072  18.868  0.00  0.00    +0.000 HD
ENDBRANCH  14  15
BRANCH  14  17
ATOM     17  C   UNL     1       7.139   6.666  17.345  0.00  0.00    +0.000 C 
BRANCH  17  18
ATOM     18  N   UNL     1       7.479   6.013  16.073  0.00  0.00    +0.000 NA
ATOM     19  H   UNL     1       7.756   6.743  15.410  0.00  0.00    +0.000 HD
BRANCH  18  21
ATOM     20  C   UNL     1       5.171   6.126  15.322  0.00  0.00    +0.000 C 
ATOM     21  C   UNL     1       6.382   5.213  15.522  0.00  0.00    +0.000 C 
ATOM     22  C   UNL     1       6.764   4.570  14.186  0.00  0.00    +0.000 C 
ENDBRANCH  18  21
ENDBRANCH  17  18
ENDBRANCH  14  17
ENDBRANCH  13  14
ENDBRANCH   1  13
TORSDOF 8
ENDMDL
MODEL 3
REMARK VINA RESULT:      -6.6      2.695      4.828
REMARK  Name = 
REMARK  10 active torsions:
REMARK  status: ('A' for Active; 'I' for Inactive)
REMARK    1  A    between atoms: C_1  and  C_2
REMARK    2  A    between atoms: C_2  and  C_3
REMARK    3  A    between atoms: C_2  and  N_4
REMARK    4  A    between atoms: N_4  and  C_5
REMARK    5  A    between atoms: C_5  and  C_6
REMARK    6  A    between atoms: C_6  and  O_7
REMARK    7  A    between atoms: C_6  and  C_8
REMARK    8  A    between atoms: C_8  and  O_9
REMARK    9  A    between atoms: O_9  and  C_10
REMARK   10  A    between atoms: C_15  and  N_16
REMARK                            x       y       z     vdW  Elec       q    Type
REMARK                         _______ _______ _______ _____ _____    ______ ____
ROOT
ATOM      1  O   UNL     1       4.614   4.937  17.401  0.00  0.00    +0.000 OA
ENDROOT
BRANCH   1   2
ATOM      2  C   UNL     1       3.592   4.136  17.849  0.00  0.00    +0.000 A 
ATOM      3  C   UNL     1       3.631   2.742  17.665  0.00  0.00    +0.000 A 
ATOM      4  C   UNL     1       2.580   1.923  18.080  0.00  0.00    +0.000 A 
ATOM      5  C   UNL     1       1.478   2.482  18.707  0.00  0.00    +0.000 A 
ATOM      6  C   UNL     1       1.427   3.860  18.921  0.00  0.00    +0.000 A 
ATOM      7  C   UNL     1       2.477   4.705  18.504  0.00  0.00    +0.000 A 
BRANCH   7   8
ATOM      8  N   UNL     1       2.342   6.113  18.746  0.00  0.00    +0.000 N 
ATOM      9  C   UNL     1       2.093   6.705  19.977  0.00  0.00    +0.000 A 
ATOM     10  C   UNL     1       1.952   8.068  19.815  0.00  0.00    +0.000 A 
ATOM     11  C   UNL     1       2.171   8.345  18.456  0.00  0.00    +0.000 A 
ATOM     12  C   UNL     1       2.439   7.145  17.832  0.00  0.00    +0.000 A 
ENDBRANCH   7   8
ENDBRANCH   1   2
BRANCH   1  13
ATOM     13  C   UNL     1       4.811   4.972  15.978  0.00  0.00    +0.000 C 
BRANCH  13  14
ATOM     14  C   UNL     1       6.219   4.466  15.635  0.00  0.00    +0.000 C 
BRANCH  14  15
ATOM     15  O   UNL     1       6.207   3.030  15.556  0.00  0.00    +0.000 OA
ATOM     16  H   UNL     1       5.371   2.790  15.121  0.00  0.00    +0.000 HD
ENDBRANCH  14  15
BRANCH  14  17
ATOM     17  C   UNL     1       7.264   4.917  16.667  0.00  0.00    +0.000 C 
BRANCH  17  18
ATOM     18  N   UNL     1       7.466   6.370  16.571  0.00  0.00    +0.000 NA
ATOM     19  H   UNL     1       8.396   6.531  16.172  0.00  0.00    +0.000 HD
BRANCH  18  21
ATOM     20  C   UNL     1       7.861   6.132  18.956  0.00  0.00    +0.000 C 
ATOM     21  C   UNL     1       7.335   7.058  17.857  0.00  0.00    +0.000 C 
ATOM     22  C   UNL     1       8.118   8.373  17.879  0.00  0.00    +0.000 C 
ENDBRANCH  18  21
ENDBRANCH  17  18
ENDBRANCH  14  17
ENDBRANCH  13  14
ENDBRANCH   1  13
TORSDOF 8
ENDMDL
MODEL 4
REMARK VINA RESULT:      -6.6      1.845      3.347
REMARK  Name = 
REMARK  10 active torsions:
REMARK  status: ('A' for Active; 'I' for Inactive)
REMARK    1  A    between atoms: C_1  and  C_2
REMARK    2  A    between atoms: C_2  and  C_3
REMARK    3  A    between atoms: C_2  and  N_4
REMARK    4  A    between atoms: N_4  and  C_5
REMARK    5  A    between atoms: C_5  and  C_6
REMARK    6  A    between atoms: C_6  and  O_7
REMARK    7  A    between atoms: C_6  and  C_8
REMARK    8  A    between atoms: C_8  and  O_9
REMARK    9  A    between atoms: O_9  and  C_10
REMARK   10  A    between atoms: C_15  and  N_16
REMARK                            x       y       z     vdW  Elec       q    Type
REMARK                         _______ _______ _______ _____ _____    ______ ____
ROOT
ATOM      1  O   UNL     1       4.726   5.495  16.580  0.00  0.00    +0.000 OA
ENDROOT
BRANCH   1   2
ATOM      2  C   UNL     1       3.851   6.083  17.462  0.00  0.00    +0.000 A 
ATOM      3  C   UNL     1       3.568   7.458  17.391  0.00  0.00    +0.000 A 
ATOM      4  C   UNL     1       2.713   8.074  18.306  0.00  0.00    +0.000 A 
ATOM      5  C   UNL     1       2.107   7.319  19.298  0.00  0.00    +0.000 A 
ATOM      6  C   UNL     1       2.355   5.948  19.374  0.00  0.00    +0.000 A 
ATOM      7  C   UNL     1       3.221   5.308  18.461  0.00  0.00    +0.000 A 
BRANCH   7   8
ATOM      8  N   UNL     1       3.436   3.898  18.616  0.00  0.00    +0.000 N 
ATOM      9  C   UNL     1       4.205   3.298  19.604  0.00  0.00    +0.000 A 
ATOM     10  C   UNL     1       4.245   1.935  19.395  0.00  0.00    +0.000 A 
ATOM     11  C   UNL     1       3.435   1.666  18.279  0.00  0.00    +0.000 A 
ATOM     12  C   UNL     1       2.928   2.872  17.843  0.00  0.00    +0.000 A 
ENDBRANCH   7   8
ENDBRANCH   1   2
BRANCH   1  13
ATOM     13  C   UNL     1       6.109   5.492  16.970  0.00  0.00    +0.000 C 
BRANCH  13  14
ATOM     14  C   UNL     1       6.920   4.619  16.004  0.00  0.00    +0.000 C 
BRANCH  14  15
ATOM     15  O   UNL     1       7.685   5.460  15.123  0.00  0.00    +0.000 OA
ATOM     16  H   UNL     1       7.333   6.360  15.236  0.00  0.00    +0.000 HD
ENDBRANCH  14  15
BRANCH  14  17
ATOM     17  C   UNL     1       6.025   3.685  15.175  0.00  0.00    +0.000 C 
BRANCH  17  18
ATOM     18  N   UNL     1       5.723   4.305  13.876  0.00  0.00    +0.000 NA
ATOM     19  H   UNL     1       4.738   4.584  13.884  0.00  0.00    +0.000 HD
BRANCH  18  21
ATOM     20  C   UNL     1       4.718   3.295  11.908  0.00  0.00    +0.000 C 
ATOM     21  C   UNL     1       5.997   3.423  12.739  0.00  0.00    +0.000 C 
ATOM     22  C   UNL     1       7.125   3.967  11.859  0.00  0.00    +0.000 C 
ENDBRANCH  18  21
ENDBRANCH  17  18
ENDBRANCH  14  17
ENDBRANCH  13  14
ENDBRANCH   1  13
TORSDOF 8
ENDMDL
MODEL 5
REMARK VINA RESULT:      -6.6      2.219      5.597
REMARK  Name = 
REMARK  10 active torsions:
REMARK  status: ('A' for Active; 'I' for Inactive)
REMARK    1  A    between atoms: C_1  and  C_2
REMARK    2  A    between atoms: C_2  and  C_3
REMARK    3  A    between atoms: C_2  and  N_4
REMARK    4  A    between atoms: N_4  and  C_5
REMARK    5  A    between atoms: C_5  and  C_6
REMARK    6  A    between atoms: C_6  and  O_7
REMARK    7  A    between atoms: C_6  and  C_8
REMARK    8  A    between atoms: C_8  and  O_9
REMARK    9  A    between atoms: O_9  and  C_10
REMARK   10  A    between atoms: C_15  and  N_16
REMARK                            x       y       z     vdW  Elec       q    Type
REMARK                         _______ _______ _______ _____ _____    ______ ____
ROOT
ATOM      1  O   UNL     1       4.429   4.768  16.862  0.00  0.00    +0.000 OA
ENDROOT
BRANCH   1   2
ATOM      2  C   UNL     1       5.273   4.677  15.782  0.00  0.00    +0.000 A 
ATOM      3  C   UNL     1       4.834   4.128  14.565  0.00  0.00    +0.000 A 
ATOM      4  C   UNL     1       5.694   3.994  13.474  0.00  0.00    +0.000 A 
ATOM      5  C   UNL     1       7.007   4.427  13.575  0.00  0.00    +0.000 A 
ATOM      6  C   UNL     1       7.459   4.997  14.765  0.00  0.00    +0.000 A 
ATOM      7  C   UNL     1       6.606   5.136  15.881  0.00  0.00    +0.000 A 
BRANCH   7   8
ATOM      8  N   UNL     1       7.151   5.718  17.074  0.00  0.00    +0.000 N 
ATOM      9  C   UNL     1       7.411   7.067  17.275  0.00  0.00    +0.000 A 
ATOM     10  C   UNL     1       8.001   7.246  18.509  0.00  0.00    +0.000 A 
ATOM     11  C   UNL     1       8.064   5.983  19.122  0.00  0.00    +0.000 A 
ATOM     12  C   UNL     1       7.511   5.075  18.244  0.00  0.00    +0.000 A 
ENDBRANCH   7   8
ENDBRANCH   1   2
BRANCH   1  13
ATOM     13  C   UNL     1       3.888   3.528  17.347  0.00  0.00    +0.000 C 
BRANCH  13  14
ATOM     14  C   UNL     1       4.360   3.282  18.786  0.00  0.00    +0.000 C 
BRANCH  14  15
ATOM     15  O   UNL     1       4.375   1.869  19.051  0.00  0.00    +0.000 OA
ATOM     16  H   UNL     1       3.810   1.733  19.831  0.00  0.00    +0.000 HD
ENDBRANCH  14  15
BRANCH  14  17
ATOM     17  C   UNL     1       3.468   3.990  19.817  0.00  0.00    +0.000 C 
BRANCH  17  18
ATOM     18  N   UNL     1       2.178   4.341  19.205  0.00  0.00    +0.000 NA
ATOM     19  H   UNL     1       2.040   5.349  19.321  0.00  0.00    +0.000 HD
BRANCH  18  21
ATOM     20  C   UNL     1       0.745   2.409  18.862  0.00  0.00    +0.000 C 
ATOM     21  C   UNL     1       1.048   3.601  19.773  0.00  0.00    +0.000 C 
ATOM     22  C   UNL     1       1.352   3.100  21.187  0.00  0.00    +0.000 C 
ENDBRANCH  18  21
ENDBRANCH  17  18
ENDBRANCH  14  17
ENDBRANCH  13  14
ENDBRANCH   1  13
TORSDOF 8
ENDMDL
MODEL 6
REMARK VINA RESULT:      -6.6      2.913      4.885
REMARK  Name = 
REMARK  10 active torsions:
REMARK  status: ('A' for Active; 'I' for Inactive)
REMARK    1  A    between atoms: C_1  and  C_2
REMARK    2  A    between atoms: C_2  and  C_3
REMARK    3  A    between atoms: C_2  and  N_4
REMARK    4  A    between atoms: N_4  and  C_5
REMARK    5  A    between atoms: C_5  and  C_6
REMARK    6  A    between atoms: C_6  and  O_7
REMARK    7  A    between atoms: C_6  and  C_8
REMARK    8  A    between atoms: C_8  and  O_9
REMARK    9  A    between atoms: O_9  and  C_10
REMARK   10  A    between atoms: C_15  and  N_16
REMARK                            x       y       z     vdW  Elec       q    Type
REMARK                         _______ _______ _______ _____ _____    ______ ____
ROOT
ATOM      1  O   UNL     1       4.608   4.764  18.440  0.00  0.00    +0.000 OA
ENDROOT
BRANCH   1   2
ATOM      2  C   UNL     1       3.693   4.340  19.373  0.00  0.00    +0.000 A 
ATOM      3  C   UNL     1       3.798   3.069  19.965  0.00  0.00    +0.000 A 
ATOM      4  C   UNL     1       2.853   2.613  20.884  0.00  0.00    +0.000 A 
ATOM      5  C   UNL     1       1.793   3.430  21.245  0.00  0.00    +0.000 A 
ATOM      6  C   UNL     1       1.681   4.705  20.689  0.00  0.00    +0.000 A 
ATOM      7  C   UNL     1       2.624   5.182  19.754  0.00  0.00    +0.000 A 
BRANCH   7   8
ATOM      8  N   UNL     1       2.429   6.498  19.216  0.00  0.00    +0.000 N 
ATOM      9  C   UNL     1       2.053   7.623  19.938  0.00  0.00    +0.000 A 
ATOM     10  C   UNL     1       1.890   8.690  19.080  0.00  0.00    +0.000 A 
ATOM     11  C   UNL     1       2.225   8.238  17.793  0.00  0.00    +0.000 A 
ATOM     12  C   UNL     1       2.581   6.911  17.906  0.00  0.00    +0.000 A 
ENDBRANCH   7   8
ENDBRANCH   1   2
BRANCH   1  13
ATOM     13  C   UNL     1       4.622   4.042  17.198  0.00  0.00    +0.000 C 
BRANCH  13  14
ATOM     14  C   UNL     1       5.446   4.813  16.157  0.00  0.00    +0.000 C 
BRANCH  14  15
ATOM     15  O   UNL     1       5.266   4.213  14.863  0.00  0.00    +0.000 OA
ATOM     16  H   UNL     1       4.353   3.878  14.844  0.00  0.00    +0.000 HD
ENDBRANCH  14  15
BRANCH  14  17
ATOM     17  C   UNL     1       6.941   4.843  16.509  0.00  0.00    +0.000 C 
BRANCH  17  18
ATOM     18  N   UNL     1       7.436   6.227  16.464  0.00  0.00    +0.000 NA
ATOM     19  H   UNL     1       8.430   6.196  16.219  0.00  0.00    +0.000 HD
BRANCH  18  21
ATOM     20  C   UNL     1       7.826   6.110  18.859  0.00  0.00    +0.000 C 
ATOM     21  C   UNL     1       7.241   6.952  17.722  0.00  0.00    +0.000 C 
ATOM     22  C   UNL     1       7.922   8.322  17.698  0.00  0.00    +0.000 C 
ENDBRANCH  18  21
ENDBRANCH  17  18
ENDBRANCH  14  17
ENDBRANCH  13  14
ENDBRANCH   1  13
TORSDOF 8
ENDMDL
MODEL 7
REMARK VINA RESULT:      -6.5      1.162      3.549
REMARK  Name = 
REMARK  10 active torsions:
REMARK  status: ('A' for Active; 'I' for Inactive)
REMARK    1  A    between atoms: C_1  and  C_2
REMARK    2  A    between atoms: C_2  and  C_3
REMARK    3  A    between atoms: C_2  and  N_4
REMARK    4  A    between atoms: N_4  and  C_5
REMARK    5  A    between atoms: C_5  and  C_6
REMARK    6  A    between atoms: C_6  and  O_7
REMARK    7  A    between atoms: C_6  and  C_8
REMARK    8  A    between atoms: C_8  and  O_9
REMARK    9  A    between atoms: O_9  and  C_10
REMARK   10  A    between atoms: C_15  and  N_16
REMARK                            x       y       z     vdW  Elec       q    Type
REMARK                         _______ _______ _______ _____ _____    ______ ____
ROOT
ATOM      1  O   UNL     1       4.940   6.518  16.270  0.00  0.00    +0.000 OA
ENDROOT
BRANCH   1   2
ATOM      2  C   UNL     1       5.798   6.290  17.318  0.00  0.00    +0.000 A 
ATOM      3  C   UNL     1       7.007   7.000  17.432  0.00  0.00    +0.000 A 
ATOM      4  C   UNL     1       7.905   6.747  18.470  0.00  0.00    +0.000 A 
ATOM      5  C   UNL     1       7.600   5.792  19.427  0.00  0.00    +0.000 A 
ATOM      6  C   UNL     1       6.396   5.092  19.348  0.00  0.00    +0.000 A 
ATOM      7  C   UNL     1       5.478   5.329  18.303  0.00  0.00    +0.000 A 
BRANCH   7   8
ATOM      8  N   UNL     1       4.269   4.555  18.283  0.00  0.00    +0.000 N 
ATOM      9  C   UNL     1       4.109   3.314  17.681  0.00  0.00    +0.000 A 
ATOM     10  C   UNL     1       2.796   2.909  17.799  0.00  0.00    +0.000 A 
ATOM     11  C   UNL     1       2.126   3.896  18.542  0.00  0.00    +0.000 A 
ATOM     12  C   UNL     1       3.050   4.870  18.853  0.00  0.00    +0.000 A 
ENDBRANCH   7   8
ENDBRANCH   1   2
BRANCH   1  13
ATOM     13  C   UNL     1       5.503   6.392  14.954  0.00  0.00    +0.000 C 
BRANCH  13  14
ATOM     14  C   UNL     1       6.225   5.044  14.824  0.00  0.00    +0.000 C 
BRANCH  14  15
ATOM     15  O   UNL     1       7.522   5.249  14.237  0.00  0.00    +0.000 OA
ATOM     16  H   UNL     1       7.377   5.796  13.446  0.00  0.00    +0.000 HD
ENDBRANCH  14  15
BRANCH  14  17
ATOM     17  C   UNL     1       5.429   4.039  13.979  0.00  0.00    +0.000 C 
BRANCH  17  18
ATOM     18  N   UNL     1       6.352   3.198  13.203  0.00  0.00    +0.000 NA
ATOM     19  H   UNL     1       7.287   3.610  13.274  0.00  0.00    +0.000 HD
BRANCH  18  21
ATOM     20  C   UNL     1       6.321   1.641  11.337  0.00  0.00    +0.000 C 
ATOM     21  C   UNL     1       5.961   3.056  11.798  0.00  0.00    +0.000 C 
ATOM     22  C   UNL     1       4.462   3.292  11.600  0.00  0.00    +0.000 C 
ENDBRANCH  18  21
ENDBRANCH  17  18
ENDBRANCH  14  17
ENDBRANCH  13  14
ENDBRANCH   1  13
TORSDOF 8
ENDMDL
MODEL 8
REMARK VINA RESULT:      -6.5      0.730      1.358
REMARK  Name = 
REMARK  10 active torsions:
REMARK  status: ('A' for Active; 'I' for Inactive)
REMARK    1  A    between atoms: C_1  and  C_2
REMARK    2  A    between atoms: C_2  and  C_3
REMARK    3  A    between atoms: C_2  and  N_4
REMARK    4  A    between atoms: N_4  and  C_5
REMARK    5  A    between atoms: C_5  and  C_6
REMARK    6  A    between atoms: C_6  and  O_7
REMARK    7  A    between atoms: C_6  and  C_8
REMARK    8  A    between atoms: C_8  and  O_9
REMARK    9  A    between atoms: O_9  and  C_10
REMARK   10  A    between atoms: C_15  and  N_16
REMARK                            x       y       z     vdW  Elec       q    Type
REMARK                         _______ _______ _______ _____ _____    ______ ____
ROOT
ATOM      1  O   UNL     1       4.467   4.416  16.121  0.00  0.00    +0.000 OA
ENDROOT
BRANCH   1   2
ATOM      2  C   UNL     1       3.816   4.619  17.313  0.00  0.00    +0.000 A 
ATOM      3  C   UNL     1       2.540   4.073  17.543  0.00  0.00    +0.000 A 
ATOM      4  C   UNL     1       1.852   4.307  18.734  0.00  0.00    +0.000 A 
ATOM      5  C   UNL     1       2.437   5.076  19.728  0.00  0.00    +0.000 A 
ATOM      6  C   UNL     1       3.711   5.608  19.532  0.00  0.00    +0.000 A 
ATOM      7  C   UNL     1       4.421   5.388  18.332  0.00  0.00    +0.000 A 
BRANCH   7   8
ATOM      8  N   UNL     1       5.720   5.984  18.202  0.00  0.00    +0.000 N 
ATOM      9  C   UNL     1       6.863   5.598  18.889  0.00  0.00    +0.000 A 
ATOM     10  C   UNL     1       7.904   6.443  18.565  0.00  0.00    +0.000 A 
ATOM     11  C   UNL     1       7.417   7.349  17.609  0.00  0.00    +0.000 A 
ATOM     12  C   UNL     1       6.096   7.029  17.379  0.00  0.00    +0.000 A 
ENDBRANCH   7   8
ENDBRANCH   1   2
BRANCH   1  13
ATOM     13  C   UNL     1       5.606   3.540  16.166  0.00  0.00    +0.000 C 
BRANCH  13  14
ATOM     14  C   UNL     1       6.510   3.800  14.953  0.00  0.00    +0.000 C 
BRANCH  14  15
ATOM     15  O   UNL     1       7.520   4.762  15.304  0.00  0.00    +0.000 OA
ATOM     16  H   UNL     1       7.501   5.441  14.608  0.00  0.00    +0.000 HD
ENDBRANCH  14  15
BRANCH  14  17
ATOM     17  C   UNL     1       5.718   4.305  13.737  0.00  0.00    +0.000 C 
BRANCH  17  18
ATOM     18  N   UNL     1       6.225   3.670  12.512  0.00  0.00    +0.000 NA
ATOM     19  H   UNL     1       6.316   4.397  11.797  0.00  0.00    +0.000 HD
BRANCH  18  21
ATOM     20  C   UNL     1       4.243   3.189  11.191  0.00  0.00    +0.000 C 
ATOM     21  C   UNL     1       5.371   2.582  12.029  0.00  0.00    +0.000 C 
ATOM     22  C   UNL     1       6.156   1.580  11.179  0.00  0.00    +0.000 C 
ENDBRANCH  18  21
ENDBRANCH  17  18
ENDBRANCH  14  17
ENDBRANCH  13  14
ENDBRANCH   1  13
TORSDOF 8
ENDMDL
MODEL 9
REMARK VINA RESULT:      -6.5      2.149      5.880
REMARK  Name = 
REMARK  10 active torsions:
REMARK  status: ('A' for Active; 'I' for Inactive)
REMARK    1  A    between atoms: C_1  and  C_2
REMARK    2  A    between atoms: C_2  and  C_3
REMARK    3  A    between atoms: C_2  and  N_4
REMARK    4  A    between atoms: N_4  and  C_5
REMARK    5  A    between atoms: C_5  and  C_6
REMARK    6  A    between atoms: C_6  and  O_7
REMARK    7  A    between atoms: C_6  and  C_8
REMARK    8  A    between atoms: C_8  and  O_9
REMARK    9  A    between atoms: O_9  and  C_10
REMARK   10  A    between atoms: C_15  and  N_16
REMARK                            x       y       z     vdW  Elec       q    Type
REMARK                         _______ _______ _______ _____ _____    ______ ____
ROOT
ATOM      1  O   UNL     1       4.514   4.390  16.524  0.00  0.00    +0.000 OA
ENDROOT
BRANCH   1   2
ATOM      2  C   UNL     1       5.364   4.414  15.445  0.00  0.00    +0.000 A 
ATOM      3  C   UNL     1       4.965   3.903  14.198  0.00  0.00    +0.000 A 
ATOM      4  C   UNL     1       5.834   3.886  13.106  0.00  0.00    +0.000 A 
ATOM      5  C   UNL     1       7.114   4.400  13.237  0.00  0.00    +0.000 A 
ATOM      6  C   UNL     1       7.525   4.935  14.458  0.00  0.00    +0.000 A 
ATOM      7  C   UNL     1       6.662   4.956  15.576  0.00  0.00    +0.000 A 
BRANCH   7   8
ATOM      8  N   UNL     1       7.165   5.507  16.801  0.00  0.00    +0.000 N 
ATOM      9  C   UNL     1       7.600   4.780  17.901  0.00  0.00    +0.000 A 
ATOM     10  C   UNL     1       7.942   5.644  18.921  0.00  0.00    +0.000 A 
ATOM     11  C   UNL     1       7.769   6.949  18.430  0.00  0.00    +0.000 A 
ATOM     12  C   UNL     1       7.328   6.840  17.128  0.00  0.00    +0.000 A 
ENDBRANCH   7   8
ENDBRANCH   1   2
BRANCH   1  13
ATOM     13  C   UNL     1       4.359   3.119  17.177  0.00  0.00    +0.000 C 
BRANCH  13  14
ATOM     14  C   UNL     1       4.021   3.334  18.659  0.00  0.00    +0.000 C 
BRANCH  14  15
ATOM     15  O   UNL     1       5.098   2.841  19.473  0.00  0.00    +0.000 OA
ATOM     16  H   UNL     1       5.356   1.984  19.091  0.00  0.00    +0.000 HD
ENDBRANCH  14  15
BRANCH  14  17
ATOM     17  C   UNL     1       2.711   2.640  19.061  0.00  0.00    +0.000 C 
BRANCH  17  18
ATOM     18  N   UNL     1       1.592   3.588  18.960  0.00  0.00    +0.000 NA
ATOM     19  H   UNL     1       1.912   4.394  18.417  0.00  0.00    +0.000 HD
BRANCH  18  21
ATOM     20  C   UNL     1       1.390   2.926  21.290  0.00  0.00    +0.000 C 
ATOM     21  C   UNL     1       1.082   4.020  20.264  0.00  0.00    +0.000 C 
ATOM     22  C   UNL     1       1.719   5.337  20.714  0.00  0.00    +0.000 C 
ENDBRANCH  18  21
ENDBRANCH  17  18
ENDBRANCH  14  17
ENDBRANCH  13  14
ENDBRANCH   1  13
TORSDOF 8
ENDMDL
