MODEL 1
REMARK VINA RESULT:      -7.5      0.000      0.000
REMARK  Name = 
REMARK  8 active torsions:
REMARK  status: ('A' for Active; 'I' for Inactive)
REMARK    1  A    between atoms: C_1  and  C_2
REMARK    2  A    between atoms: N_4  and  C_5
REMARK    3  A    between atoms: C_8  and  N_9
REMARK    4  A    between atoms: C_13  and  C_15
REMARK    5  A    between atoms: C_20  and  C_21
REMARK    6  A    between atoms: N_23  and  C_24
REMARK    7  A    between atoms: C_24  and  C_25
REMARK    8  A    between atoms: C_29  and  C_30
REMARK                            x       y       z     vdW  Elec       q    Type
REMARK                         _______ _______ _______ _____ _____    ______ ____
ROOT
ATOM      1  N   UNL     1       1.489   8.453  20.175  0.00  0.00    +0.000 N 
ATOM      2  C   UNL     1       0.747   7.991  21.361  0.00  0.00    +0.000 C 
ATOM      3  C   UNL     1      -0.597   8.753  21.472  0.00  0.00    +0.000 C 
ATOM      4  N   UNL     1      -0.446  10.222  21.323  0.00  0.00    +0.000 N 
ATOM      5  C   UNL     1      -0.807  11.039  22.390  0.00  0.00    +0.000 C 
ATOM      6  O   UNL     1      -1.279  10.540  23.410  0.00  0.00    +0.000 OA
ATOM      7  C   UNL     1       0.292  10.617  20.100  0.00  0.00    +0.000 C 
ATOM      8  C   UNL     1      -0.471  10.301  18.808  0.00  0.00    +0.000 C 
ATOM      9  C   UNL     1       1.678   9.917  20.100  0.00  0.00    +0.000 C 
ENDROOT
BRANCH   1  17
ATOM     10  C   UNL     1       5.240   4.828  15.834  0.00  0.00    +0.000 C 
ATOM     11  C   UNL     1       4.450   4.837  17.089  0.00  0.00    +0.000 A 
ATOM     12  N   UNL     1       4.357   3.741  17.854  0.00  0.00    +0.000 NA
ATOM     13  N   UNL     1       3.602   4.141  18.897  0.00  0.00    +0.000 N 
ATOM     14  C   UNL     1       3.269   3.202  19.940  0.00  0.00    +0.000 C 
ATOM     15  C   UNL     1       3.210   5.455  18.837  0.00  0.00    +0.000 A 
ATOM     16  C   UNL     1       2.454   6.262  19.708  0.00  0.00    +0.000 A 
ATOM     17  C   UNL     1       2.226   7.606  19.369  0.00  0.00    +0.000 A 
ATOM     18  C   UNL     1       2.745   8.067  18.146  0.00  0.00    +0.000 A 
ATOM     19  C   UNL     1       3.494   7.260  17.278  0.00  0.00    +0.000 A 
ATOM     20  C   UNL     1       3.739   5.931  17.645  0.00  0.00    +0.000 A 
ENDBRANCH   1  17
BRANCH   5  21
ATOM     21  C   UNL     1      -0.677  12.589  22.283  0.00  0.00    +0.000 C 
ATOM     22  C   UNL     1      -1.377  13.389  23.395  0.00  0.00    +0.000 C 
ATOM     23  C   UNL     1      -2.892  13.456  23.286  0.00  0.00    +0.000 C 
ATOM     24  C   UNL     1      -3.417  13.787  21.900  0.00  0.00    +0.000 C 
ATOM     25  C   UNL     1      -2.701  13.062  20.769  0.00  0.00    +0.000 C 
ATOM     26  C   UNL     1      -1.165  13.095  20.885  0.00  0.00    +0.000 C 
BRANCH  26  27
ATOM     27  C   UNL     1      -0.601  14.488  20.542  0.00  0.00    +0.000 C 
ATOM     28  O   UNL     1      -0.893  15.503  21.171  0.00  0.00    +0.000 OA
ATOM     29  N   UNL     1       0.298  14.514  19.490  0.00  0.00    +0.000 N 
ATOM     30  H   UNL     1       0.512  13.659  18.992  0.00  0.00    +0.000 HD
BRANCH  29  31
ATOM     31  C   UNL     1       0.861  15.744  18.978  0.00  0.00    +0.000 C 
ATOM     32  C   UNL     1       2.262  15.686  18.380  0.00  0.00    +0.000 C 
ATOM     33  C   UNL     1       2.043  16.377  19.689  0.00  0.00    +0.000 C 
BRANCH  31  34
ATOM     34  C   UNL     1      -0.081  16.630  18.303  0.00  0.00    +0.000 C 
ATOM     35  N   UNL     1      -0.805  17.368  17.780  0.00  0.00    +0.000 NA
ENDBRANCH  31  34
ENDBRANCH  29  31
ENDBRANCH  26  27
ENDBRANCH   5  21
TORSDOF 5
ENDMDL
MODEL 2
REMARK VINA RESULT:      -7.5      0.911      1.095
REMARK  Name = 
REMARK  8 active torsions:
REMARK  status: ('A' for Active; 'I' for Inactive)
REMARK    1  A    between atoms: C_1  and  C_2
REMARK    2  A    between atoms: N_4  and  C_5
REMARK    3  A    between atoms: C_8  and  N_9
REMARK    4  A    between atoms: C_13  and  C_15
REMARK    5  A    between atoms: C_20  and  C_21
REMARK    6  A    between atoms: N_23  and  C_24
REMARK    7  A    between atoms: C_24  and  C_25
REMARK    8  A    between atoms: C_29  and  C_30
REMARK                            x       y       z     vdW  Elec       q    Type
REMARK                         _______ _______ _______ _____ _____    ______ ____
ROOT
ATOM      1  N   UNL     1       1.545   8.337  20.191  0.00  0.00    +0.000 N 
ATOM      2  C   UNL     1       0.881   7.942  21.445  0.00  0.00    +0.000 C 
ATOM      3  C   UNL     1      -0.463   8.699  21.591  0.00  0.00    +0.000 C 
ATOM      4  N   UNL     1      -0.337  10.157  21.347  0.00  0.00    +0.000 N 
ATOM      5  C   UNL     1      -0.643  11.033  22.383  0.00  0.00    +0.000 C 
ATOM      6  O   UNL     1      -1.048  10.593  23.458  0.00  0.00    +0.000 OA
ATOM      7  C   UNL     1       0.322  10.484  20.060  0.00  0.00    +0.000 C 
ATOM      8  C   UNL     1      -0.513  10.085  18.838  0.00  0.00    +0.000 C 
ATOM      9  C   UNL     1       1.713   9.796  20.019  0.00  0.00    +0.000 C 
ENDROOT
BRANCH   1  17
ATOM     10  C   UNL     1       5.145   4.504  15.902  0.00  0.00    +0.000 C 
ATOM     11  C   UNL     1       4.328   4.555  17.138  0.00  0.00    +0.000 A 
ATOM     12  N   UNL     1       4.144   3.462  17.890  0.00  0.00    +0.000 NA
ATOM     13  N   UNL     1       3.392   3.903  18.918  0.00  0.00    +0.000 N 
ATOM     14  C   UNL     1       2.971   2.979  19.945  0.00  0.00    +0.000 C 
ATOM     15  C   UNL     1       3.092   5.241  18.863  0.00  0.00    +0.000 A 
ATOM     16  C   UNL     1       2.371   6.090  19.725  0.00  0.00    +0.000 A 
ATOM     17  C   UNL     1       2.243   7.449  19.394  0.00  0.00    +0.000 A 
ATOM     18  C   UNL     1       2.820   7.885  18.189  0.00  0.00    +0.000 A 
ATOM     19  C   UNL     1       3.534   7.036  17.330  0.00  0.00    +0.000 A 
ATOM     20  C   UNL     1       3.680   5.690  17.689  0.00  0.00    +0.000 A 
ENDBRANCH   1  17
BRANCH   5  21
ATOM     21  C   UNL     1      -0.537  12.575  22.177  0.00  0.00    +0.000 C 
ATOM     22  C   UNL     1      -1.207  13.436  23.263  0.00  0.00    +0.000 C 
ATOM     23  C   UNL     1      -2.726  13.479  23.205  0.00  0.00    +0.000 C 
ATOM     24  C   UNL     1      -3.304  13.719  21.821  0.00  0.00    +0.000 C 
ATOM     25  C   UNL     1      -2.619  12.932  20.711  0.00  0.00    +0.000 C 
ATOM     26  C   UNL     1      -1.081  12.989  20.769  0.00  0.00    +0.000 C 
BRANCH  26  27
ATOM     27  C   UNL     1      -0.548  14.365  20.321  0.00  0.00    +0.000 C 
ATOM     28  O   UNL     1      -1.223  15.171  19.686  0.00  0.00    +0.000 OA
ATOM     29  N   UNL     1       0.745  14.650  20.722  0.00  0.00    +0.000 N 
ATOM     30  H   UNL     1       1.275  13.960  21.241  0.00  0.00    +0.000 HD
BRANCH  29  31
ATOM     31  C   UNL     1       1.435  15.857  20.320  0.00  0.00    +0.000 C 
ATOM     32  C   UNL     1       2.200  16.624  21.393  0.00  0.00    +0.000 C 
ATOM     33  C   UNL     1       0.943  17.201  20.823  0.00  0.00    +0.000 C 
BRANCH  31  34
ATOM     34  C   UNL     1       2.062  15.811  19.004  0.00  0.00    +0.000 C 
ATOM     35  N   UNL     1       2.592  15.751  17.976  0.00  0.00    +0.000 NA
ENDBRANCH  31  34
ENDBRANCH  29  31
ENDBRANCH  26  27
ENDBRANCH   5  21
TORSDOF 5
ENDMDL
MODEL 3
REMARK VINA RESULT:      -7.5      2.492      4.736
REMARK  Name = 
REMARK  8 active torsions:
REMARK  status: ('A' for Active; 'I' for Inactive)
REMARK    1  A    between atoms: C_1  and  C_2
REMARK    2  A    between atoms: N_4  and  C_5
REMARK    3  A    between atoms: C_8  and  N_9
REMARK    4  A    between atoms: C_13  and  C_15
REMARK    5  A    between atoms: C_20  and  C_21
REMARK    6  A    between atoms: N_23  and  C_24
REMARK    7  A    between atoms: C_24  and  C_25
REMARK    8  A    between atoms: C_29  and  C_30
REMARK                            x       y       z     vdW  Elec       q    Type
REMARK                         _______ _______ _______ _____ _____    ______ ____
ROOT
ATOM      1  N   UNL     1       0.960  10.201  19.601  0.00  0.00    +0.000 N 
ATOM      2  C   UNL     1       1.544  11.550  19.500  0.00  0.00    +0.000 C 
ATOM      3  C   UNL     1       1.184  12.376  20.760  0.00  0.00    +0.000 C 
ATOM      4  N   UNL     1      -0.258  12.310  21.105  0.00  0.00    +0.000 N 
ATOM      5  C   UNL     1      -0.999  13.487  21.093  0.00  0.00    +0.000 C 
ATOM      6  O   UNL     1      -0.446  14.557  20.841  0.00  0.00    +0.000 OA
ATOM      7  C   UNL     1      -0.776  10.925  21.209  0.00  0.00    +0.000 C 
ATOM      8  C   UNL     1      -0.187  10.151  22.395  0.00  0.00    +0.000 C 
ATOM      9  C   UNL     1      -0.492  10.180  19.877  0.00  0.00    +0.000 C 
ENDROOT
BRANCH   1  17
ATOM     10  C   UNL     1       4.370   4.975  16.935  0.00  0.00    +0.000 C 
ATOM     11  C   UNL     1       3.535   5.474  18.053  0.00  0.00    +0.000 A 
ATOM     12  N   UNL     1       3.262   4.699  19.111  0.00  0.00    +0.000 NA
ATOM     13  N   UNL     1       2.522   5.494  19.910  0.00  0.00    +0.000 N 
ATOM     14  C   UNL     1       2.020   4.982  21.162  0.00  0.00    +0.000 C 
ATOM     15  C   UNL     1       2.316   6.756  19.412  0.00  0.00    +0.000 A 
ATOM     16  C   UNL     1       1.639   7.880  19.922  0.00  0.00    +0.000 A 
ATOM     17  C   UNL     1       1.610   9.062  19.164  0.00  0.00    +0.000 A 
ATOM     18  C   UNL     1       2.239   9.047  17.907  0.00  0.00    +0.000 A 
ATOM     19  C   UNL     1       2.909   7.924  17.399  0.00  0.00    +0.000 A 
ATOM     20  C   UNL     1       2.955   6.763  18.180  0.00  0.00    +0.000 A 
ENDBRANCH   1  17
BRANCH   5  21
ATOM     21  C   UNL     1      -2.515  13.475  21.456  0.00  0.00    +0.000 C 
ATOM     22  C   UNL     1      -3.319  14.699  20.982  0.00  0.00    +0.000 C 
ATOM     23  C   UNL     1      -3.084  15.973  21.778  0.00  0.00    +0.000 C 
ATOM     24  C   UNL     1      -3.112  15.796  23.287  0.00  0.00    +0.000 C 
ATOM     25  C   UNL     1      -2.382  14.556  23.786  0.00  0.00    +0.000 C 
ATOM     26  C   UNL     1      -2.719  13.277  22.996  0.00  0.00    +0.000 C 
BRANCH  26  27
ATOM     27  C   UNL     1      -4.131  12.758  23.333  0.00  0.00    +0.000 C 
ATOM     28  O   UNL     1      -4.340  11.880  24.167  0.00  0.00    +0.000 OA
ATOM     29  N   UNL     1      -5.162  13.382  22.654  0.00  0.00    +0.000 N 
ATOM     30  H   UNL     1      -4.952  14.099  21.971  0.00  0.00    +0.000 HD
BRANCH  29  31
ATOM     31  C   UNL     1      -6.542  12.966  22.784  0.00  0.00    +0.000 C 
ATOM     32  C   UNL     1      -7.579  14.042  23.088  0.00  0.00    +0.000 C 
ATOM     33  C   UNL     1      -7.220  13.039  24.139  0.00  0.00    +0.000 C 
BRANCH  31  34
ATOM     34  C   UNL     1      -6.967  11.916  21.866  0.00  0.00    +0.000 C 
ATOM     35  N   UNL     1      -7.325  11.061  21.170  0.00  0.00    +0.000 NA
ENDBRANCH  31  34
ENDBRANCH  29  31
ENDBRANCH  26  27
ENDBRANCH   5  21
TORSDOF 5
ENDMDL
MODEL 4
REMARK VINA RESULT:      -7.4      1.201      1.513
REMARK  Name = 
REMARK  8 active torsions:
REMARK  status: ('A' for Active; 'I' for Inactive)
REMARK    1  A    between atoms: C_1  and  C_2
REMARK    2  A    between atoms: N_4  and  C_5
REMARK    3  A    between atoms: C_8  and  N_9
REMARK    4  A    between atoms: C_13  and  C_15
REMARK    5  A    between atoms: C_20  and  C_21
REMARK    6  A    between atoms: N_23  and  C_24
REMARK    7  A    between atoms: C_24  and  C_25
REMARK    8  A    between atoms: C_29  and  C_30
REMARK                            x       y       z     vdW  Elec       q    Type
REMARK                         _______ _______ _______ _____ _____    ______ ____
ROOT
ATOM      1  N   UNL     1       1.571   8.412  20.134  0.00  0.00    +0.000 N 
ATOM      2  C   UNL     1       0.900   8.076  21.402  0.00  0.00    +0.000 C 
ATOM      3  C   UNL     1      -0.429   8.863  21.519  0.00  0.00    +0.000 C 
ATOM      4  N   UNL     1      -0.275  10.309  21.221  0.00  0.00    +0.000 N 
ATOM      5  C   UNL     1      -0.563  11.229  22.225  0.00  0.00    +0.000 C 
ATOM      6  O   UNL     1      -0.976  10.836  23.315  0.00  0.00    +0.000 OA
ATOM      7  C   UNL     1       0.391  10.576  19.924  0.00  0.00    +0.000 C 
ATOM      8  C   UNL     1      -0.453  10.149  18.717  0.00  0.00    +0.000 C 
ATOM      9  C   UNL     1       1.768   9.859  19.909  0.00  0.00    +0.000 C 
ENDROOT
BRANCH   1  17
ATOM     10  C   UNL     1       5.116   4.357  16.006  0.00  0.00    +0.000 C 
ATOM     11  C   UNL     1       4.271   4.464  17.219  0.00  0.00    +0.000 A 
ATOM     12  N   UNL     1       4.021   3.393  17.984  0.00  0.00    +0.000 NA
ATOM     13  N   UNL     1       3.262   3.883  18.985  0.00  0.00    +0.000 N 
ATOM     14  C   UNL     1       2.777   2.996  20.014  0.00  0.00    +0.000 C 
ATOM     15  C   UNL     1       3.020   5.231  18.899  0.00  0.00    +0.000 A 
ATOM     16  C   UNL     1       2.314   6.124  19.727  0.00  0.00    +0.000 A 
ATOM     17  C   UNL     1       2.251   7.481  19.371  0.00  0.00    +0.000 A 
ATOM     18  C   UNL     1       2.877   7.871  18.174  0.00  0.00    +0.000 A 
ATOM     19  C   UNL     1       3.577   6.979  17.349  0.00  0.00    +0.000 A 
ATOM     20  C   UNL     1       3.656   5.635  17.733  0.00  0.00    +0.000 A 
ENDBRANCH   1  17
BRANCH   5  21
ATOM     21  C   UNL     1      -0.427  12.760  21.962  0.00  0.00    +0.000 C 
ATOM     22  C   UNL     1      -0.945  13.672  23.088  0.00  0.00    +0.000 C 
ATOM     23  C   UNL     1      -2.457  13.771  23.195  0.00  0.00    +0.000 C 
ATOM     24  C   UNL     1      -3.176  13.997  21.875  0.00  0.00    +0.000 C 
ATOM     25  C   UNL     1      -2.644  13.157  20.721  0.00  0.00    +0.000 C 
ATOM     26  C   UNL     1      -1.108  13.157  20.610  0.00  0.00    +0.000 C 
BRANCH  26  27
ATOM     27  C   UNL     1      -0.579  14.499  20.066  0.00  0.00    +0.000 C 
ATOM     28  O   UNL     1       0.540  14.629  19.576  0.00  0.00    +0.000 OA
ATOM     29  N   UNL     1      -1.475  15.551  20.131  0.00  0.00    +0.000 N 
ATOM     30  H   UNL     1      -2.389  15.409  20.545  0.00  0.00    +0.000 HD
BRANCH  29  31
ATOM     31  C   UNL     1      -1.121  16.900  19.744  0.00  0.00    +0.000 C 
ATOM     32  C   UNL     1      -2.175  17.726  19.016  0.00  0.00    +0.000 C 
ATOM     33  C   UNL     1      -0.972  17.239  18.273  0.00  0.00    +0.000 C 
BRANCH  31  34
ATOM     34  C   UNL     1      -0.292  17.627  20.698  0.00  0.00    +0.000 C 
ATOM     35  N   UNL     1       0.352  18.178  21.488  0.00  0.00    +0.000 NA
ENDBRANCH  31  34
ENDBRANCH  29  31
ENDBRANCH  26  27
ENDBRANCH   5  21
TORSDOF 5
ENDMDL
MODEL 5
REMARK VINA RESULT:      -7.4      2.671      4.707
REMARK  Name = 
REMARK  8 active torsions:
REMARK  status: ('A' for Active; 'I' for Inactive)
REMARK    1  A    between atoms: C_1  and  C_2
REMARK    2  A    between atoms: N_4  and  C_5
REMARK    3  A    between atoms: C_8  and  N_9
REMARK    4  A    between atoms: C_13  and  C_15
REMARK    5  A    between atoms: C_20  and  C_21
REMARK    6  A    between atoms: N_23  and  C_24
REMARK    7  A    between atoms: C_24  and  C_25
REMARK    8  A    between atoms: C_29  and  C_30
REMARK                            x       y       z     vdW  Elec       q    Type
REMARK                         _______ _______ _______ _____ _____    ______ ____
ROOT
ATOM      1  N   UNL     1       0.802  10.614  19.470  0.00  0.00    +0.000 N 
ATOM      2  C   UNL     1       1.459  11.926  19.606  0.00  0.00    +0.000 C 
ATOM      3  C   UNL     1       0.889  12.674  20.837  0.00  0.00    +0.000 C 
ATOM      4  N   UNL     1      -0.594  12.675  20.882  0.00  0.00    +0.000 N 
ATOM      5  C   UNL     1      -1.260  13.895  20.827  0.00  0.00    +0.000 C 
ATOM      6  O   UNL     1      -0.617  14.943  20.786  0.00  0.00    +0.000 OA
ATOM      7  C   UNL     1      -1.188  11.322  20.759  0.00  0.00    +0.000 C 
ATOM      8  C   UNL     1      -0.890  10.423  21.964  0.00  0.00    +0.000 C 
ATOM      9  C   UNL     1      -0.674  10.665  19.449  0.00  0.00    +0.000 C 
ENDROOT
BRANCH   1  17
ATOM     10  C   UNL     1       4.339   5.373  17.006  0.00  0.00    +0.000 C 
ATOM     11  C   UNL     1       3.448   5.878  18.078  0.00  0.00    +0.000 A 
ATOM     12  N   UNL     1       3.120   5.107  19.123  0.00  0.00    +0.000 NA
ATOM     13  N   UNL     1       2.342   5.907  19.879  0.00  0.00    +0.000 N 
ATOM     14  C   UNL     1       1.775   5.401  21.106  0.00  0.00    +0.000 C 
ATOM     15  C   UNL     1       2.162   7.167  19.366  0.00  0.00    +0.000 A 
ATOM     16  C   UNL     1       1.461   8.293  19.836  0.00  0.00    +0.000 A 
ATOM     17  C   UNL     1       1.473   9.472  19.072  0.00  0.00    +0.000 A 
ATOM     18  C   UNL     1       2.166   9.451  17.849  0.00  0.00    +0.000 A 
ATOM     19  C   UNL     1       2.860   8.325  17.381  0.00  0.00    +0.000 A 
ATOM     20  C   UNL     1       2.864   7.167  18.168  0.00  0.00    +0.000 A 
ENDBRANCH   1  17
BRANCH   5  21
ATOM     21  C   UNL     1      -2.818  13.953  20.880  0.00  0.00    +0.000 C 
ATOM     22  C   UNL     1      -3.422  15.358  21.045  0.00  0.00    +0.000 C 
ATOM     23  C   UNL     1      -3.300  15.954  22.438  0.00  0.00    +0.000 C 
ATOM     24  C   UNL     1      -3.678  15.012  23.569  0.00  0.00    +0.000 C 
ATOM     25  C   UNL     1      -3.152  13.593  23.404  0.00  0.00    +0.000 C 
ATOM     26  C   UNL     1      -3.374  13.008  21.997  0.00  0.00    +0.000 C 
BRANCH  26  27
ATOM     27  C   UNL     1      -4.853  12.640  21.763  0.00  0.00    +0.000 C 
ATOM     28  O   UNL     1      -5.645  12.434  22.680  0.00  0.00    +0.000 OA
ATOM     29  N   UNL     1      -5.243  12.597  20.437  0.00  0.00    +0.000 N 
ATOM     30  H   UNL     1      -4.563  12.769  19.706  0.00  0.00    +0.000 HD
BRANCH  29  31
ATOM     31  C   UNL     1      -6.570  12.188  20.029  0.00  0.00    +0.000 C 
ATOM     32  C   UNL     1      -7.082  12.687  18.683  0.00  0.00    +0.000 C 
ATOM     33  C   UNL     1      -7.678  13.222  19.947  0.00  0.00    +0.000 C 
BRANCH  31  34
ATOM     34  C   UNL     1      -6.940  10.822  20.382  0.00  0.00    +0.000 C 
ATOM     35  N   UNL     1      -7.257   9.734  20.625  0.00  0.00    +0.000 NA
ENDBRANCH  31  34
ENDBRANCH  29  31
ENDBRANCH  26  27
ENDBRANCH   5  21
TORSDOF 5
ENDMDL
MODEL 6
REMARK VINA RESULT:      -7.3      2.627      4.721
REMARK  Name = 
REMARK  8 active torsions:
REMARK  status: ('A' for Active; 'I' for Inactive)
REMARK    1  A    between atoms: C_1  and  C_2
REMARK    2  A    between atoms: N_4  and  C_5
REMARK    3  A    between atoms: C_8  and  N_9
REMARK    4  A    between atoms: C_13  and  C_15
REMARK    5  A    between atoms: C_20  and  C_21
REMARK    6  A    between atoms: N_23  and  C_24
REMARK    7  A    between atoms: C_24  and  C_25
REMARK    8  A    between atoms: C_29  and  C_30
REMARK                            x       y       z     vdW  Elec       q    Type
REMARK                         _______ _______ _______ _____ _____    ______ ____
ROOT
ATOM      1  N   UNL     1       0.941  10.341  19.551  0.00  0.00    +0.000 N 
ATOM      2  C   UNL     1       1.556  11.678  19.493  0.00  0.00    +0.000 C 
ATOM      3  C   UNL     1       1.156  12.497  20.746  0.00  0.00    +0.000 C 
ATOM      4  N   UNL     1      -0.301  12.457  21.025  0.00  0.00    +0.000 N 
ATOM      5  C   UNL     1      -1.016  13.650  20.994  0.00  0.00    +0.000 C 
ATOM      6  O   UNL     1      -0.430  14.710  20.782  0.00  0.00    +0.000 OA
ATOM      7  C   UNL     1      -0.851  11.082  21.088  0.00  0.00    +0.000 C 
ATOM      8  C   UNL     1      -0.333  10.282  22.289  0.00  0.00    +0.000 C 
ATOM      9  C   UNL     1      -0.522  10.347  19.760  0.00  0.00    +0.000 C 
ENDROOT
BRANCH   1  17
ATOM     10  C   UNL     1       4.338   5.070  16.958  0.00  0.00    +0.000 C 
ATOM     11  C   UNL     1       3.495   5.584  18.064  0.00  0.00    +0.000 A 
ATOM     12  N   UNL     1       3.205   4.818  19.124  0.00  0.00    +0.000 NA
ATOM     13  N   UNL     1       2.463   5.625  19.909  0.00  0.00    +0.000 N 
ATOM     14  C   UNL     1       1.944   5.125  21.160  0.00  0.00    +0.000 C 
ATOM     15  C   UNL     1       2.272   6.885  19.401  0.00  0.00    +0.000 A 
ATOM     16  C   UNL     1       1.598   8.017  19.895  0.00  0.00    +0.000 A 
ATOM     17  C   UNL     1       1.587   9.194  19.128  0.00  0.00    +0.000 A 
ATOM     18  C   UNL     1       2.229   9.165  17.878  0.00  0.00    +0.000 A 
ATOM     19  C   UNL     1       2.895   8.034  17.385  0.00  0.00    +0.000 A 
ATOM     20  C   UNL     1       2.924   6.878  18.175  0.00  0.00    +0.000 A 
ENDBRANCH   1  17
BRANCH   5  21
ATOM     21  C   UNL     1      -2.547  13.665  21.289  0.00  0.00    +0.000 C 
ATOM     22  C   UNL     1      -3.253  15.013  21.054  0.00  0.00    +0.000 C 
ATOM     23  C   UNL     1      -2.985  16.074  22.109  0.00  0.00    +0.000 C 
ATOM     24  C   UNL     1      -3.101  15.589  23.544  0.00  0.00    +0.000 C 
ATOM     25  C   UNL     1      -2.471  14.227  23.798  0.00  0.00    +0.000 C 
ATOM     26  C   UNL     1      -2.841  13.166  22.743  0.00  0.00    +0.000 C 
BRANCH  26  27
ATOM     27  C   UNL     1      -4.296  12.685  22.909  0.00  0.00    +0.000 C 
ATOM     28  O   UNL     1      -4.677  12.021  23.871  0.00  0.00    +0.000 OA
ATOM     29  N   UNL     1      -5.164  13.089  21.911  0.00  0.00    +0.000 N 
ATOM     30  H   UNL     1      -4.816  13.633  21.131  0.00  0.00    +0.000 HD
BRANCH  29  31
ATOM     31  C   UNL     1      -6.546  12.661  21.861  0.00  0.00    +0.000 C 
ATOM     32  C   UNL     1      -6.875  11.433  21.019  0.00  0.00    +0.000 C 
ATOM     33  C   UNL     1      -7.320  12.786  20.562  0.00  0.00    +0.000 C 
BRANCH  31  34
ATOM     34  C   UNL     1      -7.287  12.791  23.110  0.00  0.00    +0.000 C 
ATOM     35  N   UNL     1      -7.913  12.895  24.080  0.00  0.00    +0.000 NA
ENDBRANCH  31  34
ENDBRANCH  29  31
ENDBRANCH  26  27
ENDBRANCH   5  21
TORSDOF 5
ENDMDL
MODEL 7
REMARK VINA RESULT:      -7.2      1.435      1.615
REMARK  Name = 
REMARK  8 active torsions:
REMARK  status: ('A' for Active; 'I' for Inactive)
REMARK    1  A    between atoms: C_1  and  C_2
REMARK    2  A    between atoms: N_4  and  C_5
REMARK    3  A    between atoms: C_8  and  N_9
REMARK    4  A    between atoms: C_13  and  C_15
REMARK    5  A    between atoms: C_20  and  C_21
REMARK    6  A    between atoms: N_23  and  C_24
REMARK    7  A    between atoms: C_24  and  C_25
REMARK    8  A    between atoms: C_29  and  C_30
REMARK                            x       y       z     vdW  Elec       q    Type
REMARK                         _______ _______ _______ _____ _____    ______ ____
ROOT
ATOM      1  N   UNL     1       1.369   8.482  20.525  0.00  0.00    +0.000 N 
ATOM      2  C   UNL     1       0.650   8.492  21.811  0.00  0.00    +0.000 C 
ATOM      3  C   UNL     1      -0.522   9.503  21.752  0.00  0.00    +0.000 C 
ATOM      4  N   UNL     1      -0.120  10.827  21.214  0.00  0.00    +0.000 N 
ATOM      5  C   UNL     1      -0.244  11.943  22.034  0.00  0.00    +0.000 C 
ATOM      6  O   UNL     1      -0.717  11.824  23.163  0.00  0.00    +0.000 OA
ATOM      7  C   UNL     1       0.580  10.745  19.910  0.00  0.00    +0.000 C 
ATOM      8  C   UNL     1      -0.325  10.263  18.770  0.00  0.00    +0.000 C 
ATOM      9  C   UNL     1       1.813   9.812  20.059  0.00  0.00    +0.000 C 
ENDROOT
BRANCH   1  17
ATOM     10  C   UNL     1       4.101   3.216  17.230  0.00  0.00    +0.000 C 
ATOM     11  C   UNL     1       3.363   3.687  18.426  0.00  0.00    +0.000 A 
ATOM     12  N   UNL     1       3.041   2.843  19.416  0.00  0.00    +0.000 NA
ATOM     13  N   UNL     1       2.420   3.629  20.318  0.00  0.00    +0.000 N 
ATOM     14  C   UNL     1       1.906   3.051  21.537  0.00  0.00    +0.000 C 
ATOM     15  C   UNL     1       2.335   4.949  19.952  0.00  0.00    +0.000 A 
ATOM     16  C   UNL     1       1.802   6.082  20.595  0.00  0.00    +0.000 A 
ATOM     17  C   UNL     1       1.877   7.330  19.954  0.00  0.00    +0.000 A 
ATOM     18  C   UNL     1       2.458   7.373  18.675  0.00  0.00    +0.000 A 
ATOM     19  C   UNL     1       2.985   6.242  18.034  0.00  0.00    +0.000 A 
ATOM     20  C   UNL     1       2.931   5.010  18.699  0.00  0.00    +0.000 A 
ENDBRANCH   1  17
BRANCH   5  21
ATOM     21  C   UNL     1       0.155  13.359  21.516  0.00  0.00    +0.000 C 
ATOM     22  C   UNL     1      -0.161  14.526  22.468  0.00  0.00    +0.000 C 
ATOM     23  C   UNL     1      -1.629  14.911  22.551  0.00  0.00    +0.000 C 
ATOM     24  C   UNL     1      -2.331  15.037  21.209  0.00  0.00    +0.000 C 
ATOM     25  C   UNL     1      -1.989  13.934  20.218  0.00  0.00    +0.000 C 
ATOM     26  C   UNL     1      -0.480  13.639  20.113  0.00  0.00    +0.000 C 
BRANCH  26  27
ATOM     27  C   UNL     1       0.263  14.753  19.350  0.00  0.00    +0.000 C 
ATOM     28  O   UNL     1      -0.295  15.512  18.561  0.00  0.00    +0.000 OA
ATOM     29  N   UNL     1       1.609  14.868  19.647  0.00  0.00    +0.000 N 
ATOM     30  H   UNL     1       2.037  14.223  20.299  0.00  0.00    +0.000 HD
BRANCH  29  31
ATOM     31  C   UNL     1       2.479  15.802  18.964  0.00  0.00    +0.000 C 
ATOM     32  C   UNL     1       3.091  15.360  17.640  0.00  0.00    +0.000 C 
ATOM     33  C   UNL     1       3.961  15.496  18.850  0.00  0.00    +0.000 C 
BRANCH  31  34
ATOM     34  C   UNL     1       2.078  17.202  19.043  0.00  0.00    +0.000 C 
ATOM     35  N   UNL     1       1.738  18.309  19.067  0.00  0.00    +0.000 NA
ENDBRANCH  31  34
ENDBRANCH  29  31
ENDBRANCH  26  27
ENDBRANCH   5  21
TORSDOF 5
ENDMDL
MODEL 8
REMARK VINA RESULT:      -7.1      1.425      2.042
REMARK  Name = 
REMARK  8 active torsions:
REMARK  status: ('A' for Active; 'I' for Inactive)
REMARK    1  A    between atoms: C_1  and  C_2
REMARK    2  A    between atoms: N_4  and  C_5
REMARK    3  A    between atoms: C_8  and  N_9
REMARK    4  A    between atoms: C_13  and  C_15
REMARK    5  A    between atoms: C_20  and  C_21
REMARK    6  A    between atoms: N_23  and  C_24
REMARK    7  A    between atoms: C_24  and  C_25
REMARK    8  A    between atoms: C_29  and  C_30
REMARK                            x       y       z     vdW  Elec       q    Type
REMARK                         _______ _______ _______ _____ _____    ______ ____
ROOT
ATOM      1  N   UNL     1       1.489   8.226  20.408  0.00  0.00    +0.000 N 
ATOM      2  C   UNL     1       0.779   8.223  21.699  0.00  0.00    +0.000 C 
ATOM      3  C   UNL     1      -0.397   9.230  21.655  0.00  0.00    +0.000 C 
ATOM      4  N   UNL     1      -0.005  10.560  21.125  0.00  0.00    +0.000 N 
ATOM      5  C   UNL     1      -0.128  11.669  21.955  0.00  0.00    +0.000 C 
ATOM      6  O   UNL     1      -0.593  11.539  23.086  0.00  0.00    +0.000 OA
ATOM      7  C   UNL     1       0.687  10.490  19.815  0.00  0.00    +0.000 C 
ATOM      8  C   UNL     1      -0.225  10.014  18.678  0.00  0.00    +0.000 C 
ATOM      9  C   UNL     1       1.924   9.562  19.949  0.00  0.00    +0.000 C 
ENDROOT
BRANCH   1  17
ATOM     10  C   UNL     1       3.585   2.257  17.952  0.00  0.00    +0.000 C 
ATOM     11  C   UNL     1       3.668   3.734  17.869  0.00  0.00    +0.000 A 
ATOM     12  N   UNL     1       4.409   4.332  16.926  0.00  0.00    +0.000 NA
ATOM     13  N   UNL     1       4.213   5.647  17.148  0.00  0.00    +0.000 N 
ATOM     14  C   UNL     1       4.881   6.621  16.319  0.00  0.00    +0.000 C 
ATOM     15  C   UNL     1       3.366   5.921  18.193  0.00  0.00    +0.000 A 
ATOM     16  C   UNL     1       2.882   7.127  18.734  0.00  0.00    +0.000 A 
ATOM     17  C   UNL     1       1.997   7.081  19.824  0.00  0.00    +0.000 A 
ATOM     18  C   UNL     1       1.666   5.817  20.342  0.00  0.00    +0.000 A 
ATOM     19  C   UNL     1       2.152   4.616  19.804  0.00  0.00    +0.000 A 
ATOM     20  C   UNL     1       3.009   4.678  18.698  0.00  0.00    +0.000 A 
ENDBRANCH   1  17
BRANCH   5  21
ATOM     21  C   UNL     1       0.262  13.090  21.445  0.00  0.00    +0.000 C 
ATOM     22  C   UNL     1      -0.089  14.252  22.392  0.00  0.00    +0.000 C 
ATOM     23  C   UNL     1      -1.563  14.617  22.446  0.00  0.00    +0.000 C 
ATOM     24  C   UNL     1      -2.241  14.734  21.091  0.00  0.00    +0.000 C 
ATOM     25  C   UNL     1      -1.865  13.636  20.106  0.00  0.00    +0.000 C 
ATOM     26  C   UNL     1      -0.351  13.362  20.031  0.00  0.00    +0.000 C 
BRANCH  26  27
ATOM     27  C   UNL     1       0.392  14.488  19.283  0.00  0.00    +0.000 C 
ATOM     28  O   UNL     1      -0.164  15.248  18.494  0.00  0.00    +0.000 OA
ATOM     29  N   UNL     1       1.734  14.610  19.593  0.00  0.00    +0.000 N 
ATOM     30  H   UNL     1       2.161  13.963  20.246  0.00  0.00    +0.000 HD
BRANCH  29  31
ATOM     31  C   UNL     1       2.604  15.555  18.926  0.00  0.00    +0.000 C 
ATOM     32  C   UNL     1       3.158  15.164  17.561  0.00  0.00    +0.000 C 
ATOM     33  C   UNL     1       4.072  15.219  18.744  0.00  0.00    +0.000 C 
BRANCH  31  34
ATOM     34  C   UNL     1       2.242  16.959  19.086  0.00  0.00    +0.000 C 
ATOM     35  N   UNL     1       1.912  18.063  19.208  0.00  0.00    +0.000 NA
ENDBRANCH  31  34
ENDBRANCH  29  31
ENDBRANCH  26  27
ENDBRANCH   5  21
TORSDOF 5
ENDMDL
MODEL 9
REMARK VINA RESULT:      -7.0      2.483      4.793
REMARK  Name = 
REMARK  8 active torsions:
REMARK  status: ('A' for Active; 'I' for Inactive)
REMARK    1  A    between atoms: C_1  and  C_2
REMARK    2  A    between atoms: N_4  and  C_5
REMARK    3  A    between atoms: C_8  and  N_9
REMARK    4  A    between atoms: C_13  and  C_15
REMARK    5  A    between atoms: C_20  and  C_21
REMARK    6  A    between atoms: N_23  and  C_24
REMARK    7  A    between atoms: C_24  and  C_25
REMARK    8  A    between atoms: C_29  and  C_30
REMARK                            x       y       z     vdW  Elec       q    Type
REMARK                         _______ _______ _______ _____ _____    ______ ____
ROOT
ATOM      1  N   UNL     1       0.764   9.845  20.025  0.00  0.00    +0.000 N 
ATOM      2  C   UNL     1       1.472  11.080  19.644  0.00  0.00    +0.000 C 
ATOM      3  C   UNL     1       1.129  12.213  20.643  0.00  0.00    +0.000 C 
ATOM      4  N   UNL     1      -0.328  12.343  20.894  0.00  0.00    +0.000 N 
ATOM      5  C   UNL     1      -0.958  13.535  20.551  0.00  0.00    +0.000 C 
ATOM      6  O   UNL     1      -0.299  14.466  20.090  0.00  0.00    +0.000 OA
ATOM      7  C   UNL     1      -0.973  11.069  21.291  0.00  0.00    +0.000 C 
ATOM      8  C   UNL     1      -0.515  10.565  22.665  0.00  0.00    +0.000 C 
ATOM      9  C   UNL     1      -0.695  10.003  20.197  0.00  0.00    +0.000 C 
ENDROOT
BRANCH   1  17
ATOM     10  C   UNL     1       3.143   3.489  20.009  0.00  0.00    +0.000 C 
ATOM     11  C   UNL     1       3.167   4.828  19.373  0.00  0.00    +0.000 A 
ATOM     12  N   UNL     1       3.899   5.057  18.274  0.00  0.00    +0.000 NA
ATOM     13  N   UNL     1       3.645   6.349  17.982  0.00  0.00    +0.000 N 
ATOM     14  C   UNL     1       4.286   6.965  16.846  0.00  0.00    +0.000 C 
ATOM     15  C   UNL     1       2.770   6.959  18.846  0.00  0.00    +0.000 A 
ATOM     16  C   UNL     1       2.229   8.258  18.891  0.00  0.00    +0.000 A 
ATOM     17  C   UNL     1       1.329   8.588  19.918  0.00  0.00    +0.000 A 
ATOM     18  C   UNL     1       1.041   7.600  20.875  0.00  0.00    +0.000 A 
ATOM     19  C   UNL     1       1.585   6.308  20.831  0.00  0.00    +0.000 A 
ATOM     20  C   UNL     1       2.456   5.985  19.784  0.00  0.00    +0.000 A 
ENDBRANCH   1  17
BRANCH   5  21
ATOM     21  C   UNL     1      -2.485  13.728  20.803  0.00  0.00    +0.000 C 
ATOM     22  C   UNL     1      -2.978  15.186  20.794  0.00  0.00    +0.000 C 
ATOM     23  C   UNL     1      -2.618  15.996  22.028  0.00  0.00    +0.000 C 
ATOM     24  C   UNL     1      -2.878  15.293  23.350  0.00  0.00    +0.000 C 
ATOM     25  C   UNL     1      -2.463  13.829  23.372  0.00  0.00    +0.000 C 
ATOM     26  C   UNL     1      -2.923  13.034  22.135  0.00  0.00    +0.000 C 
BRANCH  26  27
ATOM     27  C   UNL     1      -4.439  12.754  22.174  0.00  0.00    +0.000 C 
ATOM     28  O   UNL     1      -5.031  12.412  23.194  0.00  0.00    +0.000 OA
ATOM     29  N   UNL     1      -5.102  12.955  20.977  0.00  0.00    +0.000 N 
ATOM     30  H   UNL     1      -4.581  13.234  20.154  0.00  0.00    +0.000 HD
BRANCH  29  31
ATOM     31  C   UNL     1      -6.509  12.661  20.808  0.00  0.00    +0.000 C 
ATOM     32  C   UNL     1      -7.337  13.627  19.969  0.00  0.00    +0.000 C 
ATOM     33  C   UNL     1      -7.543  13.566  21.450  0.00  0.00    +0.000 C 
BRANCH  31  34
ATOM     34  C   UNL     1      -6.838  11.248  20.660  0.00  0.00    +0.000 C 
ATOM     35  N   UNL     1      -7.136  10.137  20.519  0.00  0.00    +0.000 NA
ENDBRANCH  31  34
ENDBRANCH  29  31
ENDBRANCH  26  27
ENDBRANCH   5  21
TORSDOF 5
ENDMDL
