MODEL 1
REMARK VINA RESULT:      -9.0      0.000      0.000
REMARK  Name = 
REMARK  6 active torsions:
REMARK  status: ('A' for Active; 'I' for Inactive)
REMARK    1  A    between atoms: C_2  and  C_3
REMARK    2  A    between atoms: C_8  and  S_9
REMARK    3  A    between atoms: S_9  and  N_12
REMARK    4  A    between atoms: C_16  and  C_18
REMARK    5  A    between atoms: C_18  and  C_19
REMARK    6  A    between atoms: C_24  and  O_25
REMARK                            x       y       z     vdW  Elec       q    Type
REMARK                         _______ _______ _______ _____ _____    ______ ____
ROOT
ATOM      1  N   UNL     1       2.982   4.655  18.958  0.00  0.00    +0.000 NA
ATOM      2  C   UNL     1       2.213   4.820  20.225  0.00  0.00    +0.000 C 
ATOM      3  C   UNL     1       2.041   6.270  20.722  0.00  0.00    +0.000 C 
ATOM      4  N   UNL     1       1.708   7.269  19.703  0.00  0.00    +0.000 N 
ATOM      5  C   UNL     1       1.268   8.511  20.193  0.00  0.00    +0.000 C 
ATOM      6  O   UNL     1       0.942   8.652  21.378  0.00  0.00    +0.000 OA
ATOM      7  C   UNL     1       2.445   7.129  18.448  0.00  0.00    +0.000 C 
ATOM      8  C   UNL     1       2.541   5.678  17.931  0.00  0.00    +0.000 C 
ENDROOT
BRANCH   1   9
ATOM      9  S   UNL     1       4.675   4.434  19.024  0.00  0.00    +0.000 S 
ATOM     10  O   UNL     1       4.873   3.118  19.576  0.00  0.00    +0.000 OA
ATOM     11  O   UNL     1       5.216   5.619  19.659  0.00  0.00    +0.000 OA
BRANCH   9  17
ATOM     12  C   UNL     1       6.810   4.748  17.340  0.00  0.00    +0.000 A 
ATOM     13  C   UNL     1       7.486   4.784  16.107  0.00  0.00    +0.000 A 
ATOM     14  C   UNL     1       6.799   4.518  14.925  0.00  0.00    +0.000 A 
ATOM     15  C   UNL     1       5.439   4.229  14.975  0.00  0.00    +0.000 A 
ATOM     16  C   UNL     1       4.741   4.184  16.204  0.00  0.00    +0.000 A 
ATOM     17  C   UNL     1       5.436   4.425  17.398  0.00  0.00    +0.000 A 
BRANCH  12  19
ATOM     18  N   UNL     1       8.214   5.313  19.451  0.00  0.00    +0.000 NA
ATOM     19  C   UNL     1       7.575   5.088  18.503  0.00  0.00    +0.000 C 
ENDBRANCH  12  19
ENDBRANCH   9  17
ENDBRANCH   1   9
BRANCH   5  20
ATOM     20  C   UNL     1       1.188   9.721  19.259  0.00  0.00    +0.000 C 
BRANCH  20  21
ATOM     21  C   UNL     1      -0.120  10.430  19.376  0.00  0.00    +0.000 A 
ATOM     22  C   UNL     1      -0.510  11.301  20.378  0.00  0.00    +0.000 A 
ATOM     23  O   UNL     1      -1.720  11.850  20.103  0.00  0.00    +0.000 OA
ATOM     24  C   UNL     1      -2.144  11.312  18.928  0.00  0.00    +0.000 A 
ATOM     25  C   UNL     1      -3.322  11.653  18.266  0.00  0.00    +0.000 A 
ATOM     26  C   UNL     1      -3.567  10.965  17.078  0.00  0.00    +0.000 A 
ATOM     27  C   UNL     1      -2.704   9.982  16.600  0.00  0.00    +0.000 A 
ATOM     28  C   UNL     1      -1.522   9.673  17.287  0.00  0.00    +0.000 A 
ATOM     29  C   UNL     1      -1.223  10.377  18.467  0.00  0.00    +0.000 A 
BRANCH  26  30
ATOM     30  O   UNL     1      -4.676  11.238  16.329  0.00  0.00    +0.000 OA
ATOM     31  H   UNL     1      -5.306  10.505  16.430  0.00  0.00    +0.000 HD
ENDBRANCH  26  30
ENDBRANCH  20  21
ENDBRANCH   5  20
TORSDOF 6
ENDMDL
MODEL 2
REMARK VINA RESULT:      -8.3      3.699     10.021
REMARK  Name = 
REMARK  6 active torsions:
REMARK  status: ('A' for Active; 'I' for Inactive)
REMARK    1  A    between atoms: C_2  and  C_3
REMARK    2  A    between atoms: C_8  and  S_9
REMARK    3  A    between atoms: S_9  and  N_12
REMARK    4  A    between atoms: C_16  and  C_18
REMARK    5  A    between atoms: C_18  and  C_19
REMARK    6  A    between atoms: C_24  and  O_25
REMARK                            x       y       z     vdW  Elec       q    Type
REMARK                         _______ _______ _______ _____ _____    ______ ____
ROOT
ATOM      1  N   UNL     1      -0.760  11.086  20.058  0.00  0.00    +0.000 NA
ATOM      2  C   UNL     1      -0.489  10.994  18.595  0.00  0.00    +0.000 C 
ATOM      3  C   UNL     1       0.825  10.291  18.199  0.00  0.00    +0.000 C 
ATOM      4  N   UNL     1       1.150   9.064  18.932  0.00  0.00    +0.000 N 
ATOM      5  C   UNL     1       2.176   8.280  18.376  0.00  0.00    +0.000 C 
ATOM      6  O   UNL     1       2.584   8.481  17.225  0.00  0.00    +0.000 OA
ATOM      7  C   UNL     1       0.891   9.125  20.369  0.00  0.00    +0.000 C 
ATOM      8  C   UNL     1      -0.463   9.766  20.739  0.00  0.00    +0.000 C 
ENDROOT
BRANCH   1   9
ATOM      9  S   UNL     1      -0.209  12.448  20.932  0.00  0.00    +0.000 S 
ATOM     10  O   UNL     1      -0.159  13.527  19.979  0.00  0.00    +0.000 OA
ATOM     11  O   UNL     1       0.968  12.016  21.659  0.00  0.00    +0.000 OA
BRANCH   9  17
ATOM     12  C   UNL     1      -1.022  14.126  22.936  0.00  0.00    +0.000 A 
ATOM     13  C   UNL     1      -1.851  14.590  23.974  0.00  0.00    +0.000 A 
ATOM     14  C   UNL     1      -3.002  13.885  24.316  0.00  0.00    +0.000 A 
ATOM     15  C   UNL     1      -3.316  12.714  23.632  0.00  0.00    +0.000 A 
ATOM     16  C   UNL     1      -2.499  12.233  22.583  0.00  0.00    +0.000 A 
ATOM     17  C   UNL     1      -1.354  12.956  22.217  0.00  0.00    +0.000 A 
BRANCH  12  19
ATOM     18  N   UNL     1       1.125  15.525  22.512  0.00  0.00    +0.000 NA
ATOM     19  C   UNL     1       0.172  14.877  22.682  0.00  0.00    +0.000 C 
ENDBRANCH  12  19
ENDBRANCH   9  17
ENDBRANCH   1   9
BRANCH   5  20
ATOM     20  C   UNL     1       2.813   7.155  19.196  0.00  0.00    +0.000 C 
BRANCH  20  21
ATOM     21  C   UNL     1       3.267   6.024  18.333  0.00  0.00    +0.000 A 
ATOM     22  C   UNL     1       2.535   4.911  17.962  0.00  0.00    +0.000 A 
ATOM     23  O   UNL     1       3.222   4.147  17.077  0.00  0.00    +0.000 OA
ATOM     24  C   UNL     1       4.428   4.745  16.888  0.00  0.00    +0.000 A 
ATOM     25  C   UNL     1       5.416   4.304  16.008  0.00  0.00    +0.000 A 
ATOM     26  C   UNL     1       6.585   5.064  15.983  0.00  0.00    +0.000 A 
ATOM     27  C   UNL     1       6.764   6.174  16.806  0.00  0.00    +0.000 A 
ATOM     28  C   UNL     1       5.745   6.595  17.672  0.00  0.00    +0.000 A 
ATOM     29  C   UNL     1       4.536   5.875  17.691  0.00  0.00    +0.000 A 
BRANCH  26  30
ATOM     30  O   UNL     1       7.608   4.744  15.137  0.00  0.00    +0.000 OA
ATOM     31  H   UNL     1       7.317   4.019  14.560  0.00  0.00    +0.000 HD
ENDBRANCH  26  30
ENDBRANCH  20  21
ENDBRANCH   5  20
TORSDOF 6
ENDMDL
MODEL 3
REMARK VINA RESULT:      -8.2      3.538      9.995
REMARK  Name = 
REMARK  6 active torsions:
REMARK  status: ('A' for Active; 'I' for Inactive)
REMARK    1  A    between atoms: C_2  and  C_3
REMARK    2  A    between atoms: C_8  and  S_9
REMARK    3  A    between atoms: S_9  and  N_12
REMARK    4  A    between atoms: C_16  and  C_18
REMARK    5  A    between atoms: C_18  and  C_19
REMARK    6  A    between atoms: C_24  and  O_25
REMARK                            x       y       z     vdW  Elec       q    Type
REMARK                         _______ _______ _______ _____ _____    ______ ____
ROOT
ATOM      1  N   UNL     1       0.086  11.418  19.926  0.00  0.00    +0.000 NA
ATOM      2  C   UNL     1       0.112  10.553  21.140  0.00  0.00    +0.000 C 
ATOM      3  C   UNL     1       0.390   9.056  20.890  0.00  0.00    +0.000 C 
ATOM      4  N   UNL     1       1.451   8.746  19.928  0.00  0.00    +0.000 N 
ATOM      5  C   UNL     1       1.895   7.411  19.926  0.00  0.00    +0.000 C 
ATOM      6  O   UNL     1       1.596   6.635  20.842  0.00  0.00    +0.000 OA
ATOM      7  C   UNL     1       1.451   9.582  18.729  0.00  0.00    +0.000 C 
ATOM      8  C   UNL     1       1.246  11.085  19.009  0.00  0.00    +0.000 C 
ENDROOT
BRANCH   1   9
ATOM      9  S   UNL     1      -1.390  11.669  19.103  0.00  0.00    +0.000 S 
ATOM     10  O   UNL     1      -1.823  10.363  18.675  0.00  0.00    +0.000 OA
ATOM     11  O   UNL     1      -1.152  12.742  18.158  0.00  0.00    +0.000 OA
BRANCH   9  17
ATOM     12  C   UNL     1      -3.994  12.308  19.654  0.00  0.00    +0.000 A 
ATOM     13  C   UNL     1      -5.066  12.808  20.415  0.00  0.00    +0.000 A 
ATOM     14  C   UNL     1      -4.839  13.327  21.687  0.00  0.00    +0.000 A 
ATOM     15  C   UNL     1      -3.541  13.358  22.190  0.00  0.00    +0.000 A 
ATOM     16  C   UNL     1      -2.450  12.857  21.444  0.00  0.00    +0.000 A 
ATOM     17  C   UNL     1      -2.680  12.309  20.174  0.00  0.00    +0.000 A 
BRANCH  12  19
ATOM     18  N   UNL     1      -4.602  11.445  17.281  0.00  0.00    +0.000 NA
ATOM     19  C   UNL     1      -4.304  11.843  18.334  0.00  0.00    +0.000 C 
ENDBRANCH  12  19
ENDBRANCH   9  17
ENDBRANCH   1   9
BRANCH   5  20
ATOM     20  C   UNL     1       2.763   6.893  18.776  0.00  0.00    +0.000 C 
BRANCH  20  21
ATOM     21  C   UNL     1       2.387   5.505  18.376  0.00  0.00    +0.000 A 
ATOM     22  C   UNL     1       1.332   5.128  17.565  0.00  0.00    +0.000 A 
ATOM     23  O   UNL     1       1.358   3.794  17.318  0.00  0.00    +0.000 OA
ATOM     24  C   UNL     1       2.419   3.285  17.998  0.00  0.00    +0.000 A 
ATOM     25  C   UNL     1       2.831   1.953  17.968  0.00  0.00    +0.000 A 
ATOM     26  C   UNL     1       3.941   1.646  18.755  0.00  0.00    +0.000 A 
ATOM     27  C   UNL     1       4.578   2.603  19.541  0.00  0.00    +0.000 A 
ATOM     28  C   UNL     1       4.144   3.936  19.539  0.00  0.00    +0.000 A 
ATOM     29  C   UNL     1       3.052   4.288  18.724  0.00  0.00    +0.000 A 
BRANCH  26  30
ATOM     30  O   UNL     1       4.450   0.379  18.780  0.00  0.00    +0.000 OA
ATOM     31  H   UNL     1       3.734  -0.239  19.004  0.00  0.00    +0.000 HD
ENDBRANCH  26  30
ENDBRANCH  20  21
ENDBRANCH   5  20
TORSDOF 6
ENDMDL
MODEL 4
REMARK VINA RESULT:      -8.2      1.180      1.806
REMARK  Name = 
REMARK  6 active torsions:
REMARK  status: ('A' for Active; 'I' for Inactive)
REMARK    1  A    between atoms: C_2  and  C_3
REMARK    2  A    between atoms: C_8  and  S_9
REMARK    3  A    between atoms: S_9  and  N_12
REMARK    4  A    between atoms: C_16  and  C_18
REMARK    5  A    between atoms: C_18  and  C_19
REMARK    6  A    between atoms: C_24  and  O_25
REMARK                            x       y       z     vdW  Elec       q    Type
REMARK                         _______ _______ _______ _____ _____    ______ ____
ROOT
ATOM      1  N   UNL     1       2.728   5.192  19.006  0.00  0.00    +0.000 NA
ATOM      2  C   UNL     1       1.894   5.240  20.241  0.00  0.00    +0.000 C 
ATOM      3  C   UNL     1       1.739   6.629  20.893  0.00  0.00    +0.000 C 
ATOM      4  N   UNL     1       1.494   7.749  19.979  0.00  0.00    +0.000 N 
ATOM      5  C   UNL     1       1.064   8.943  20.586  0.00  0.00    +0.000 C 
ATOM      6  O   UNL     1       0.677   8.960  21.761  0.00  0.00    +0.000 OA
ATOM      7  C   UNL     1       2.296   7.726  18.757  0.00  0.00    +0.000 C 
ATOM      8  C   UNL     1       2.376   6.341  18.082  0.00  0.00    +0.000 C 
ENDROOT
BRANCH   1   9
ATOM      9  S   UNL     1       4.407   4.903  19.134  0.00  0.00    +0.000 S 
ATOM     10  O   UNL     1       4.532   3.595  19.723  0.00  0.00    +0.000 OA
ATOM     11  O   UNL     1       4.976   6.081  19.761  0.00  0.00    +0.000 OA
BRANCH   9  17
ATOM     12  C   UNL     1       4.653   3.955  16.578  0.00  0.00    +0.000 A 
ATOM     13  C   UNL     1       5.233   3.813  15.305  0.00  0.00    +0.000 A 
ATOM     14  C   UNL     1       6.389   4.520  14.982  0.00  0.00    +0.000 A 
ATOM     15  C   UNL     1       6.969   5.354  15.933  0.00  0.00    +0.000 A 
ATOM     16  C   UNL     1       6.400   5.513  17.218  0.00  0.00    +0.000 A 
ATOM     17  C   UNL     1       5.220   4.824  17.537  0.00  0.00    +0.000 A 
BRANCH  12  19
ATOM     18  N   UNL     1       2.527   2.538  17.050  0.00  0.00    +0.000 NA
ATOM     19  C   UNL     1       3.497   3.152  16.851  0.00  0.00    +0.000 C 
ENDBRANCH  12  19
ENDBRANCH   9  17
ENDBRANCH   1   9
BRANCH   5  20
ATOM     20  C   UNL     1       1.074  10.253  19.794  0.00  0.00    +0.000 C 
BRANCH  20  21
ATOM     21  C   UNL     1      -0.293  10.844  19.680  0.00  0.00    +0.000 A 
ATOM     22  C   UNL     1      -0.881  11.756  20.537  0.00  0.00    +0.000 A 
ATOM     23  O   UNL     1      -2.084  12.165  20.063  0.00  0.00    +0.000 OA
ATOM     24  C   UNL     1      -2.304  11.493  18.902  0.00  0.00    +0.000 A 
ATOM     25  C   UNL     1      -3.409  11.665  18.069  0.00  0.00    +0.000 A 
ATOM     26  C   UNL     1      -3.438  10.859  16.931  0.00  0.00    +0.000 A 
ATOM     27  C   UNL     1      -2.442   9.924  16.660  0.00  0.00    +0.000 A 
ATOM     28  C   UNL     1      -1.339   9.785  17.515  0.00  0.00    +0.000 A 
ATOM     29  C   UNL     1      -1.258  10.612  18.650  0.00  0.00    +0.000 A 
BRANCH  26  30
ATOM     30  O   UNL     1      -4.457  10.963  16.027  0.00  0.00    +0.000 OA
ATOM     31  H   UNL     1      -5.295  10.782  16.484  0.00  0.00    +0.000 HD
ENDBRANCH  26  30
ENDBRANCH  20  21
ENDBRANCH   5  20
TORSDOF 6
ENDMDL
MODEL 5
REMARK VINA RESULT:      -8.1      1.067      1.748
REMARK  Name = 
REMARK  6 active torsions:
REMARK  status: ('A' for Active; 'I' for Inactive)
REMARK    1  A    between atoms: C_2  and  C_3
REMARK    2  A    between atoms: C_8  and  S_9
REMARK    3  A    between atoms: S_9  and  N_12
REMARK    4  A    between atoms: C_16  and  C_18
REMARK    5  A    between atoms: C_18  and  C_19
REMARK    6  A    between atoms: C_24  and  O_25
REMARK                            x       y       z     vdW  Elec       q    Type
REMARK                         _______ _______ _______ _____ _____    ______ ____
ROOT
ATOM      1  N   UNL     1       2.819   4.951  18.879  0.00  0.00    +0.000 NA
ATOM      2  C   UNL     1       1.973   5.038  20.103  0.00  0.00    +0.000 C 
ATOM      3  C   UNL     1       1.837   6.442  20.726  0.00  0.00    +0.000 C 
ATOM      4  N   UNL     1       1.624   7.549  19.789  0.00  0.00    +0.000 N 
ATOM      5  C   UNL     1       1.211   8.762  20.368  0.00  0.00    +0.000 C 
ATOM      6  O   UNL     1       0.811   8.809  21.538  0.00  0.00    +0.000 OA
ATOM      7  C   UNL     1       2.439   7.487  18.577  0.00  0.00    +0.000 C 
ATOM      8  C   UNL     1       2.501   6.088  17.930  0.00  0.00    +0.000 C 
ENDROOT
BRANCH   1   9
ATOM      9  S   UNL     1       4.491   4.632  19.032  0.00  0.00    +0.000 S 
ATOM     10  O   UNL     1       4.585   3.320  19.618  0.00  0.00    +0.000 OA
ATOM     11  O   UNL     1       5.071   5.798  19.671  0.00  0.00    +0.000 OA
BRANCH   9  17
ATOM     12  C   UNL     1       6.724   4.759  17.454  0.00  0.00    +0.000 A 
ATOM     13  C   UNL     1       7.461   4.727  16.256  0.00  0.00    +0.000 A 
ATOM     14  C   UNL     1       6.814   4.499  15.043  0.00  0.00    +0.000 A 
ATOM     15  C   UNL     1       5.434   4.318  15.029  0.00  0.00    +0.000 A 
ATOM     16  C   UNL     1       4.676   4.342  16.222  0.00  0.00    +0.000 A 
ATOM     17  C   UNL     1       5.328   4.544  17.447  0.00  0.00    +0.000 A 
BRANCH  12  19
ATOM     18  N   UNL     1       8.075   5.244  19.619  0.00  0.00    +0.000 NA
ATOM     19  C   UNL     1       7.456   5.053  18.650  0.00  0.00    +0.000 C 
ENDBRANCH  12  19
ENDBRANCH   9  17
ENDBRANCH   1   9
BRANCH   5  20
ATOM     20  C   UNL     1       1.255  10.056  19.552  0.00  0.00    +0.000 C 
BRANCH  20  21
ATOM     21  C   UNL     1      -0.064  10.362  18.922  0.00  0.00    +0.000 A 
ATOM     22  C   UNL     1      -0.563   9.847  17.739  0.00  0.00    +0.000 A 
ATOM     23  O   UNL     1      -1.840  10.253  17.531  0.00  0.00    +0.000 OA
ATOM     24  C   UNL     1      -2.173  11.068  18.567  0.00  0.00    +0.000 A 
ATOM     25  C   UNL     1      -3.422  11.656  18.759  0.00  0.00    +0.000 A 
ATOM     26  C   UNL     1      -3.540  12.469  19.886  0.00  0.00    +0.000 A 
ATOM     27  C   UNL     1      -2.469  12.700  20.747  0.00  0.00    +0.000 A 
ATOM     28  C   UNL     1      -1.229  12.084  20.528  0.00  0.00    +0.000 A 
ATOM     29  C   UNL     1      -1.088  11.225  19.423  0.00  0.00    +0.000 A 
BRANCH  26  30
ATOM     30  O   UNL     1      -4.726  13.073  20.192  0.00  0.00    +0.000 OA
ATOM     31  H   UNL     1      -5.401  12.385  20.316  0.00  0.00    +0.000 HD
ENDBRANCH  26  30
ENDBRANCH  20  21
ENDBRANCH   5  20
TORSDOF 6
ENDMDL
MODEL 6
REMARK VINA RESULT:      -8.1      2.796      8.973
REMARK  Name = 
REMARK  6 active torsions:
REMARK  status: ('A' for Active; 'I' for Inactive)
REMARK    1  A    between atoms: C_2  and  C_3
REMARK    2  A    between atoms: C_8  and  S_9
REMARK    3  A    between atoms: S_9  and  N_12
REMARK    4  A    between atoms: C_16  and  C_18
REMARK    5  A    between atoms: C_18  and  C_19
REMARK    6  A    between atoms: C_24  and  O_25
REMARK                            x       y       z     vdW  Elec       q    Type
REMARK                         _______ _______ _______ _____ _____    ______ ____
ROOT
ATOM      1  N   UNL     1       1.656   9.188  19.909  0.00  0.00    +0.000 NA
ATOM      2  C   UNL     1       1.449   8.299  21.088  0.00  0.00    +0.000 C 
ATOM      3  C   UNL     1       1.179   6.814  20.769  0.00  0.00    +0.000 C 
ATOM      4  N   UNL     1       2.013   6.214  19.723  0.00  0.00    +0.000 N 
ATOM      5  C   UNL     1       1.970   4.811  19.644  0.00  0.00    +0.000 C 
ATOM      6  O   UNL     1       1.472   4.134  20.552  0.00  0.00    +0.000 OA
ATOM      7  C   UNL     1       2.236   7.066  18.556  0.00  0.00    +0.000 C 
ATOM      8  C   UNL     1       2.577   8.531  18.902  0.00  0.00    +0.000 C 
ENDROOT
BRANCH   1   9
ATOM      9  S   UNL     1       0.313   9.974  19.202  0.00  0.00    +0.000 S 
ATOM     10  O   UNL     1      -0.796   9.719  20.085  0.00  0.00    +0.000 OA
ATOM     11  O   UNL     1       0.291   9.569  17.810  0.00  0.00    +0.000 OA
BRANCH   9  17
ATOM     12  C   UNL     1      -0.550  12.491  18.559  0.00  0.00    +0.000 A 
ATOM     13  C   UNL     1      -0.476  13.891  18.446  0.00  0.00    +0.000 A 
ATOM     14  C   UNL     1       0.659  14.568  18.887  0.00  0.00    +0.000 A 
ATOM     15  C   UNL     1       1.720  13.845  19.426  0.00  0.00    +0.000 A 
ATOM     16  C   UNL     1       1.663  12.438  19.552  0.00  0.00    +0.000 A 
ATOM     17  C   UNL     1       0.511  11.757  19.134  0.00  0.00    +0.000 A 
BRANCH  12  19
ATOM     18  N   UNL     1      -2.683  11.393  17.562  0.00  0.00    +0.000 NA
ATOM     19  C   UNL     1      -1.727  11.866  18.031  0.00  0.00    +0.000 C 
ENDBRANCH  12  19
ENDBRANCH   9  17
ENDBRANCH   1   9
BRANCH   5  20
ATOM     20  C   UNL     1       2.541   4.093  18.419  0.00  0.00    +0.000 C 
BRANCH  20  21
ATOM     21  C   UNL     1       4.028   4.203  18.352  0.00  0.00    +0.000 A 
ATOM     22  C   UNL     1       4.934   3.878  19.346  0.00  0.00    +0.000 A 
ATOM     23  O   UNL     1       6.210   3.991  18.900  0.00  0.00    +0.000 OA
ATOM     24  C   UNL     1       6.144   4.426  17.613  0.00  0.00    +0.000 A 
ATOM     25  C   UNL     1       7.239   4.621  16.773  0.00  0.00    +0.000 A 
ATOM     26  C   UNL     1       6.942   5.084  15.492  0.00  0.00    +0.000 A 
ATOM     27  C   UNL     1       5.638   5.362  15.089  0.00  0.00    +0.000 A 
ATOM     28  C   UNL     1       4.559   5.144  15.957  0.00  0.00    +0.000 A 
ATOM     29  C   UNL     1       4.820   4.637  17.243  0.00  0.00    +0.000 A 
BRANCH  26  30
ATOM     30  O   UNL     1       7.933   5.282  14.573  0.00  0.00    +0.000 OA
ATOM     31  H   UNL     1       8.133   4.433  14.144  0.00  0.00    +0.000 HD
ENDBRANCH  26  30
ENDBRANCH  20  21
ENDBRANCH   5  20
TORSDOF 6
ENDMDL
MODEL 7
REMARK VINA RESULT:      -8.0      3.814      9.530
REMARK  Name = 
REMARK  6 active torsions:
REMARK  status: ('A' for Active; 'I' for Inactive)
REMARK    1  A    between atoms: C_2  and  C_3
REMARK    2  A    between atoms: C_8  and  S_9
REMARK    3  A    between atoms: S_9  and  N_12
REMARK    4  A    between atoms: C_16  and  C_18
REMARK    5  A    between atoms: C_18  and  C_19
REMARK    6  A    between atoms: C_24  and  O_25
REMARK                            x       y       z     vdW  Elec       q    Type
REMARK                         _______ _______ _______ _____ _____    ______ ____
ROOT
ATOM      1  N   UNL     1      -0.151  11.451  20.095  0.00  0.00    +0.000 NA
ATOM      2  C   UNL     1       0.095  11.317  18.630  0.00  0.00    +0.000 C 
ATOM      3  C   UNL     1       1.250  10.378  18.227  0.00  0.00    +0.000 C 
ATOM      4  N   UNL     1       1.335   9.107  18.953  0.00  0.00    +0.000 N 
ATOM      5  C   UNL     1       2.192   8.145  18.390  0.00  0.00    +0.000 C 
ATOM      6  O   UNL     1       2.629   8.272  17.239  0.00  0.00    +0.000 OA
ATOM      7  C   UNL     1       1.095   9.209  20.391  0.00  0.00    +0.000 C 
ATOM      8  C   UNL     1      -0.111  10.094  20.767  0.00  0.00    +0.000 C 
ENDROOT
BRANCH   1   9
ATOM      9  S   UNL     1       0.651  12.677  20.974  0.00  0.00    +0.000 S 
ATOM     10  O   UNL     1       2.045  12.313  20.966  0.00  0.00    +0.000 OA
ATOM     11  O   UNL     1      -0.089  12.842  22.210  0.00  0.00    +0.000 OA
BRANCH   9  17
ATOM     12  C   UNL     1       1.407  15.290  20.662  0.00  0.00    +0.000 A 
ATOM     13  C   UNL     1       1.377  16.585  20.114  0.00  0.00    +0.000 A 
ATOM     14  C   UNL     1       0.474  16.894  19.099  0.00  0.00    +0.000 A 
ATOM     15  C   UNL     1      -0.404  15.914  18.645  0.00  0.00    +0.000 A 
ATOM     16  C   UNL     1      -0.388  14.605  19.179  0.00  0.00    +0.000 A 
ATOM     17  C   UNL     1       0.539  14.284  20.181  0.00  0.00    +0.000 A 
BRANCH  12  19
ATOM     18  N   UNL     1       3.037  14.909  22.649  0.00  0.00    +0.000 NA
ATOM     19  C   UNL     1       2.327  15.069  21.739  0.00  0.00    +0.000 C 
ENDBRANCH  12  19
ENDBRANCH   9  17
ENDBRANCH   1   9
BRANCH   5  20
ATOM     20  C   UNL     1       2.603   6.914  19.202  0.00  0.00    +0.000 C 
BRANCH  20  21
ATOM     21  C   UNL     1       3.129   5.822  18.331  0.00  0.00    +0.000 A 
ATOM     22  C   UNL     1       2.455   4.686  17.918  0.00  0.00    +0.000 A 
ATOM     23  O   UNL     1       3.198   3.970  17.038  0.00  0.00    +0.000 OA
ATOM     24  C   UNL     1       4.383   4.621  16.896  0.00  0.00    +0.000 A 
ATOM     25  C   UNL     1       5.412   4.240  16.036  0.00  0.00    +0.000 A 
ATOM     26  C   UNL     1       6.548   5.048  16.059  0.00  0.00    +0.000 A 
ATOM     27  C   UNL     1       6.658   6.148  16.908  0.00  0.00    +0.000 A 
ATOM     28  C   UNL     1       5.598   6.508  17.752  0.00  0.00    +0.000 A 
ATOM     29  C   UNL     1       4.421   5.738  17.724  0.00  0.00    +0.000 A 
BRANCH  26  30
ATOM     30  O   UNL     1       7.608   4.789  15.237  0.00  0.00    +0.000 OA
ATOM     31  H   UNL     1       8.315   4.380  15.764  0.00  0.00    +0.000 HD
ENDBRANCH  26  30
ENDBRANCH  20  21
ENDBRANCH   5  20
TORSDOF 6
ENDMDL
MODEL 8
REMARK VINA RESULT:      -8.0      3.832      9.849
REMARK  Name = 
REMARK  6 active torsions:
REMARK  status: ('A' for Active; 'I' for Inactive)
REMARK    1  A    between atoms: C_2  and  C_3
REMARK    2  A    between atoms: C_8  and  S_9
REMARK    3  A    between atoms: S_9  and  N_12
REMARK    4  A    between atoms: C_16  and  C_18
REMARK    5  A    between atoms: C_18  and  C_19
REMARK    6  A    between atoms: C_24  and  O_25
REMARK                            x       y       z     vdW  Elec       q    Type
REMARK                         _______ _______ _______ _____ _____    ______ ____
ROOT
ATOM      1  N   UNL     1      -1.034  10.939  20.502  0.00  0.00    +0.000 NA
ATOM      2  C   UNL     1      -1.004  10.822  19.016  0.00  0.00    +0.000 C 
ATOM      3  C   UNL     1       0.330  10.341  18.407  0.00  0.00    +0.000 C 
ATOM      4  N   UNL     1       0.991   9.228  19.095  0.00  0.00    +0.000 N 
ATOM      5  C   UNL     1       2.032   8.608  18.382  0.00  0.00    +0.000 C 
ATOM      6  O   UNL     1       2.195   8.820  17.174  0.00  0.00    +0.000 OA
ATOM      7  C   UNL     1       0.974   9.315  20.554  0.00  0.00    +0.000 C 
ATOM      8  C   UNL     1      -0.391   9.727  21.144  0.00  0.00    +0.000 C 
ENDROOT
BRANCH   1   9
ATOM      9  S   UNL     1      -0.598  12.419  21.238  0.00  0.00    +0.000 S 
ATOM     10  O   UNL     1      -0.692  13.412  20.199  0.00  0.00    +0.000 OA
ATOM     11  O   UNL     1       0.641  12.170  21.949  0.00  0.00    +0.000 OA
BRANCH   9  17
ATOM     12  C   UNL     1      -1.443  14.109  23.219  0.00  0.00    +0.000 A 
ATOM     13  C   UNL     1      -2.275  14.567  24.255  0.00  0.00    +0.000 A 
ATOM     14  C   UNL     1      -3.403  13.836  24.621  0.00  0.00    +0.000 A 
ATOM     15  C   UNL     1      -3.689  12.645  23.960  0.00  0.00    +0.000 A 
ATOM     16  C   UNL     1      -2.867  12.168  22.913  0.00  0.00    +0.000 A 
ATOM     17  C   UNL     1      -1.746  12.917  22.524  0.00  0.00    +0.000 A 
BRANCH  12  19
ATOM     18  N   UNL     1       0.668  15.517  22.662  0.00  0.00    +0.000 NA
ATOM     19  C   UNL     1      -0.273  14.889  22.941  0.00  0.00    +0.000 C 
ENDBRANCH  12  19
ENDBRANCH   9  17
ENDBRANCH   1   9
BRANCH   5  20
ATOM     20  C   UNL     1       2.992   7.655  19.098  0.00  0.00    +0.000 C 
BRANCH  20  21
ATOM     21  C   UNL     1       3.122   6.352  18.381  0.00  0.00    +0.000 A 
ATOM     22  C   UNL     1       3.969   6.061  17.326  0.00  0.00    +0.000 A 
ATOM     23  O   UNL     1       3.907   4.746  16.999  0.00  0.00    +0.000 OA
ATOM     24  C   UNL     1       2.987   4.174  17.822  0.00  0.00    +0.000 A 
ATOM     25  C   UNL     1       2.662   2.819  17.846  0.00  0.00    +0.000 A 
ATOM     26  C   UNL     1       1.679   2.451  18.765  0.00  0.00    +0.000 A 
ATOM     27  C   UNL     1       1.044   3.382  19.583  0.00  0.00    +0.000 A 
ATOM     28  C   UNL     1       1.404   4.737  19.539  0.00  0.00    +0.000 A 
ATOM     29  C   UNL     1       2.422   5.136  18.653  0.00  0.00    +0.000 A 
BRANCH  26  30
ATOM     30  O   UNL     1       1.301   1.145  18.898  0.00  0.00    +0.000 OA
ATOM     31  H   UNL     1       2.089   0.584  18.802  0.00  0.00    +0.000 HD
ENDBRANCH  26  30
ENDBRANCH  20  21
ENDBRANCH   5  20
TORSDOF 6
ENDMDL
MODEL 9
REMARK VINA RESULT:      -8.0      3.251      9.943
REMARK  Name = 
REMARK  6 active torsions:
REMARK  status: ('A' for Active; 'I' for Inactive)
REMARK    1  A    between atoms: C_2  and  C_3
REMARK    2  A    between atoms: C_8  and  S_9
REMARK    3  A    between atoms: S_9  and  N_12
REMARK    4  A    between atoms: C_16  and  C_18
REMARK    5  A    between atoms: C_18  and  C_19
REMARK    6  A    between atoms: C_24  and  O_25
REMARK                            x       y       z     vdW  Elec       q    Type
REMARK                         _______ _______ _______ _____ _____    ______ ____
ROOT
ATOM      1  N   UNL     1      -0.289  11.514  19.569  0.00  0.00    +0.000 NA
ATOM      2  C   UNL     1       0.011  10.564  20.678  0.00  0.00    +0.000 C 
ATOM      3  C   UNL     1       0.565   9.189  20.252  0.00  0.00    +0.000 C 
ATOM      4  N   UNL     1       1.585   9.200  19.200  0.00  0.00    +0.000 N 
ATOM      5  C   UNL     1       2.289   7.995  19.027  0.00  0.00    +0.000 C 
ATOM      6  O   UNL     1       2.228   7.091  19.869  0.00  0.00    +0.000 OA
ATOM      7  C   UNL     1       1.319  10.126  18.101  0.00  0.00    +0.000 C 
ATOM      8  C   UNL     1       0.836  11.519  18.554  0.00  0.00    +0.000 C 
ENDROOT
BRANCH   1   9
ATOM      9  S   UNL     1      -1.847  11.525  18.868  0.00  0.00    +0.000 S 
ATOM     10  O   UNL     1      -2.228  10.141  18.746  0.00  0.00    +0.000 OA
ATOM     11  O   UNL     1      -1.768  12.400  17.715  0.00  0.00    +0.000 OA
BRANCH   9  17
ATOM     12  C   UNL     1      -4.397  12.352  19.424  0.00  0.00    +0.000 A 
ATOM     13  C   UNL     1      -5.422  12.958  20.172  0.00  0.00    +0.000 A 
ATOM     14  C   UNL     1      -5.139  13.533  21.409  0.00  0.00    +0.000 A 
ATOM     15  C   UNL     1      -3.832  13.512  21.889  0.00  0.00    +0.000 A 
ATOM     16  C   UNL     1      -2.788  12.905  21.154  0.00  0.00    +0.000 A 
ATOM     17  C   UNL     1      -3.075  12.301  19.921  0.00  0.00    +0.000 A 
BRANCH  12  19
ATOM     18  N   UNL     1      -5.045  11.362  17.111  0.00  0.00    +0.000 NA
ATOM     19  C   UNL     1      -4.759  11.834  18.138  0.00  0.00    +0.000 C 
ENDBRANCH  12  19
ENDBRANCH   9  17
ENDBRANCH   1   9
BRANCH   5  20
ATOM     20  C   UNL     1       3.148   7.780  17.778  0.00  0.00    +0.000 C 
BRANCH  20  21
ATOM     21  C   UNL     1       3.861   6.469  17.810  0.00  0.00    +0.000 A 
ATOM     22  C   UNL     1       5.229   6.263  17.812  0.00  0.00    +0.000 A 
ATOM     23  O   UNL     1       5.525   4.948  17.966  0.00  0.00    +0.000 OA
ATOM     24  C   UNL     1       4.342   4.280  18.033  0.00  0.00    +0.000 A 
ATOM     25  C   UNL     1       4.204   2.908  18.243  0.00  0.00    +0.000 A 
ATOM     26  C   UNL     1       2.894   2.430  18.263  0.00  0.00    +0.000 A 
ATOM     27  C   UNL     1       1.798   3.265  18.057  0.00  0.00    +0.000 A 
ATOM     28  C   UNL     1       1.974   4.642  17.860  0.00  0.00    +0.000 A 
ATOM     29  C   UNL     1       3.280   5.164  17.875  0.00  0.00    +0.000 A 
BRANCH  26  30
ATOM     30  O   UNL     1       2.636   1.109  18.491  0.00  0.00    +0.000 OA
ATOM     31  H   UNL     1       3.195   0.578  17.899  0.00  0.00    +0.000 HD
ENDBRANCH  26  30
ENDBRANCH  20  21
ENDBRANCH   5  20
TORSDOF 6
ENDMDL
