MODEL 1
REMARK VINA RESULT:      -7.0      0.000      0.000
REMARK  Name = 
REMARK  5 active torsions:
REMARK  status: ('A' for Active; 'I' for Inactive)
REMARK    1  A    between atoms: C_1  and  C_2
REMARK    2  A    between atoms: C_2  and  C_4
REMARK    3  A    between atoms: C_8  and  N_9
REMARK    4  A    between atoms: C_10  and  C_12
REMARK    5  A    between atoms: C_12  and  C_13
REMARK                            x       y       z     vdW  Elec       q    Type
REMARK                         _______ _______ _______ _____ _____    ______ ____
ROOT
ATOM      1  N   UNL     1       4.197   5.067  18.198  0.00  0.00    +0.000 N 
ATOM      2  C   UNL     1       3.491   6.257  18.303  0.00  0.00    +0.000 C 
ATOM      3  O   UNL     1       3.527   7.178  17.485  0.00  0.00    +0.000 OA
ATOM      4  H   UNL     1       3.934   4.282  18.793  0.00  0.00    +0.000 HD
ENDROOT
BRANCH   1   9
ATOM      5  C   UNL     1       6.524   5.153  17.423  0.00  0.00    +0.000 A 
ATOM      6  S   UNL     1       7.468   4.717  16.058  0.00  0.00    +0.000 S 
ATOM      7  C   UNL     1       6.121   4.120  15.213  0.00  0.00    +0.000 A 
ATOM      8  C   UNL     1       4.968   4.246  15.947  0.00  0.00    +0.000 A 
ATOM      9  C   UNL     1       5.183   4.820  17.241  0.00  0.00    +0.000 A 
BRANCH   5  11
ATOM     10  C   UNL     1       7.972   7.014  18.465  0.00  0.00    +0.000 C 
ATOM     11  C   UNL     1       7.141   5.750  18.604  0.00  0.00    +0.000 C 
ATOM     12  O   UNL     1       6.933   5.302  19.735  0.00  0.00    +0.000 OA
ENDBRANCH   5  11
ENDBRANCH   1   9
BRANCH   2  13
ATOM     13  C   UNL     1       2.651   6.396  19.564  0.00  0.00    +0.000 C 
BRANCH  13  14
ATOM     14  C   UNL     1       2.125   5.061  20.047  0.00  0.00    +0.000 A 
ATOM     15  C   UNL     1       2.492   4.560  21.306  0.00  0.00    +0.000 A 
ATOM     16  C   UNL     1       2.067   3.295  21.720  0.00  0.00    +0.000 A 
ATOM     17  C   UNL     1       1.258   2.527  20.888  0.00  0.00    +0.000 A 
ATOM     18  C   UNL     1       0.853   3.032  19.654  0.00  0.00    +0.000 A 
ATOM     19  C   UNL     1       1.279   4.294  19.235  0.00  0.00    +0.000 A 
ENDBRANCH  13  14
ENDBRANCH   2  13
TORSDOF 4
ENDMDL
MODEL 2
REMARK VINA RESULT:      -7.0      0.169      1.149
REMARK  Name = 
REMARK  5 active torsions:
REMARK  status: ('A' for Active; 'I' for Inactive)
REMARK    1  A    between atoms: C_1  and  C_2
REMARK    2  A    between atoms: C_2  and  C_4
REMARK    3  A    between atoms: C_8  and  N_9
REMARK    4  A    between atoms: C_10  and  C_12
REMARK    5  A    between atoms: C_12  and  C_13
REMARK                            x       y       z     vdW  Elec       q    Type
REMARK                         _______ _______ _______ _____ _____    ______ ____
ROOT
ATOM      1  N   UNL     1       4.018   5.051  18.040  0.00  0.00    +0.000 N 
ATOM      2  C   UNL     1       3.415   6.288  18.219  0.00  0.00    +0.000 C 
ATOM      3  O   UNL     1       3.592   7.274  17.500  0.00  0.00    +0.000 OA
ATOM      4  H   UNL     1       3.643   4.242  18.536  0.00  0.00    +0.000 HD
ENDROOT
BRANCH   1   9
ATOM      5  C   UNL     1       6.382   5.089  17.386  0.00  0.00    +0.000 A 
ATOM      6  S   UNL     1       7.382   4.662  16.057  0.00  0.00    +0.000 S 
ATOM      7  C   UNL     1       6.064   4.129  15.130  0.00  0.00    +0.000 A 
ATOM      8  C   UNL     1       4.879   4.268  15.808  0.00  0.00    +0.000 A 
ATOM      9  C   UNL     1       5.044   4.801  17.127  0.00  0.00    +0.000 A 
BRANCH   5  11
ATOM     10  C   UNL     1       7.937   6.791  18.539  0.00  0.00    +0.000 C 
ATOM     11  C   UNL     1       6.955   5.634  18.612  0.00  0.00    +0.000 C 
ATOM     12  O   UNL     1       6.595   5.236  19.724  0.00  0.00    +0.000 OA
ENDBRANCH   5  11
ENDBRANCH   1   9
BRANCH   2  13
ATOM     13  C   UNL     1       2.503   6.389  19.432  0.00  0.00    +0.000 C 
BRANCH  13  14
ATOM     14  C   UNL     1       2.098   5.026  19.954  0.00  0.00    +0.000 A 
ATOM     15  C   UNL     1       1.296   4.173  19.179  0.00  0.00    +0.000 A 
ATOM     16  C   UNL     1       0.860   2.948  19.690  0.00  0.00    +0.000 A 
ATOM     17  C   UNL     1       1.235   2.556  20.972  0.00  0.00    +0.000 A 
ATOM     18  C   UNL     1       2.065   3.377  21.734  0.00  0.00    +0.000 A 
ATOM     19  C   UNL     1       2.500   4.604  21.228  0.00  0.00    +0.000 A 
ENDBRANCH  13  14
ENDBRANCH   2  13
TORSDOF 4
ENDMDL
MODEL 3
REMARK VINA RESULT:      -6.7      1.025      1.040
REMARK  Name = 
REMARK  5 active torsions:
REMARK  status: ('A' for Active; 'I' for Inactive)
REMARK    1  A    between atoms: C_1  and  C_2
REMARK    2  A    between atoms: C_2  and  C_4
REMARK    3  A    between atoms: C_8  and  N_9
REMARK    4  A    between atoms: C_10  and  C_12
REMARK    5  A    between atoms: C_12  and  C_13
REMARK                            x       y       z     vdW  Elec       q    Type
REMARK                         _______ _______ _______ _____ _____    ______ ____
ROOT
ATOM      1  N   UNL     1       4.615   4.998  17.939  0.00  0.00    +0.000 N 
ATOM      2  C   UNL     1       3.741   6.062  18.113  0.00  0.00    +0.000 C 
ATOM      3  O   UNL     1       3.442   6.884  17.244  0.00  0.00    +0.000 OA
ATOM      4  H   UNL     1       4.625   4.249  18.631  0.00  0.00    +0.000 HD
ENDROOT
BRANCH   1   9
ATOM      5  C   UNL     1       6.596   5.516  16.587  0.00  0.00    +0.000 A 
ATOM      6  S   UNL     1       7.330   5.053  15.106  0.00  0.00    +0.000 S 
ATOM      7  C   UNL     1       6.088   3.956  14.738  0.00  0.00    +0.000 A 
ATOM      8  C   UNL     1       5.125   3.934  15.716  0.00  0.00    +0.000 A 
ATOM      9  C   UNL     1       5.413   4.813  16.809  0.00  0.00    +0.000 A 
BRANCH   5  11
ATOM     10  C   UNL     1       7.773   6.061  18.815  0.00  0.00    +0.000 C 
ATOM     11  C   UNL     1       7.228   6.496  17.465  0.00  0.00    +0.000 C 
ATOM     12  O   UNL     1       7.413   7.661  17.102  0.00  0.00    +0.000 OA
ENDBRANCH   5  11
ENDBRANCH   1   9
BRANCH   2  13
ATOM     13  C   UNL     1       3.165   6.198  19.514  0.00  0.00    +0.000 C 
BRANCH  13  14
ATOM     14  C   UNL     1       2.408   4.957  19.940  0.00  0.00    +0.000 A 
ATOM     15  C   UNL     1       2.531   4.457  21.246  0.00  0.00    +0.000 A 
ATOM     16  C   UNL     1       1.892   3.271  21.618  0.00  0.00    +0.000 A 
ATOM     17  C   UNL     1       1.112   2.583  20.693  0.00  0.00    +0.000 A 
ATOM     18  C   UNL     1       0.949   3.092  19.406  0.00  0.00    +0.000 A 
ATOM     19  C   UNL     1       1.589   4.276  19.030  0.00  0.00    +0.000 A 
ENDBRANCH  13  14
ENDBRANCH   2  13
TORSDOF 4
ENDMDL
MODEL 4
REMARK VINA RESULT:      -6.6      3.065      6.405
REMARK  Name = 
REMARK  5 active torsions:
REMARK  status: ('A' for Active; 'I' for Inactive)
REMARK    1  A    between atoms: C_1  and  C_2
REMARK    2  A    between atoms: C_2  and  C_4
REMARK    3  A    between atoms: C_8  and  N_9
REMARK    4  A    between atoms: C_10  and  C_12
REMARK    5  A    between atoms: C_12  and  C_13
REMARK                            x       y       z     vdW  Elec       q    Type
REMARK                         _______ _______ _______ _____ _____    ______ ____
ROOT
ATOM      1  N   UNL     1       6.342   3.852  15.461  0.00  0.00    +0.000 N 
ATOM      2  C   UNL     1       6.587   4.885  14.568  0.00  0.00    +0.000 C 
ATOM      3  O   UNL     1       6.293   6.067  14.753  0.00  0.00    +0.000 OA
ATOM      4  H   UNL     1       6.818   2.959  15.328  0.00  0.00    +0.000 HD
ENDROOT
BRANCH   1   9
ATOM      5  C   UNL     1       6.091   4.384  17.844  0.00  0.00    +0.000 A 
ATOM      6  S   UNL     1       4.876   4.432  19.056  0.00  0.00    +0.000 S 
ATOM      7  C   UNL     1       3.672   3.893  17.987  0.00  0.00    +0.000 A 
ATOM      8  C   UNL     1       4.173   3.676  16.728  0.00  0.00    +0.000 A 
ATOM      9  C   UNL     1       5.569   3.978  16.617  0.00  0.00    +0.000 A 
BRANCH   5  11
ATOM     10  C   UNL     1       7.726   5.991  19.022  0.00  0.00    +0.000 C 
ATOM     11  C   UNL     1       7.463   4.783  18.139  0.00  0.00    +0.000 C 
ATOM     12  O   UNL     1       8.426   4.109  17.761  0.00  0.00    +0.000 OA
ENDBRANCH   5  11
ENDBRANCH   1   9
BRANCH   2  13
ATOM     13  C   UNL     1       7.239   4.462  13.260  0.00  0.00    +0.000 C 
BRANCH  13  14
ATOM     14  C   UNL     1       6.313   3.617  12.410  0.00  0.00    +0.000 A 
ATOM     15  C   UNL     1       4.984   4.013  12.189  0.00  0.00    +0.000 A 
ATOM     16  C   UNL     1       4.109   3.197  11.468  0.00  0.00    +0.000 A 
ATOM     17  C   UNL     1       4.557   1.987  10.946  0.00  0.00    +0.000 A 
ATOM     18  C   UNL     1       5.885   1.604  11.124  0.00  0.00    +0.000 A 
ATOM     19  C   UNL     1       6.762   2.415  11.848  0.00  0.00    +0.000 A 
ENDBRANCH  13  14
ENDBRANCH   2  13
TORSDOF 4
ENDMDL
MODEL 5
REMARK VINA RESULT:      -6.5      1.327      1.594
REMARK  Name = 
REMARK  5 active torsions:
REMARK  status: ('A' for Active; 'I' for Inactive)
REMARK    1  A    between atoms: C_1  and  C_2
REMARK    2  A    between atoms: C_2  and  C_4
REMARK    3  A    between atoms: C_8  and  N_9
REMARK    4  A    between atoms: C_10  and  C_12
REMARK    5  A    between atoms: C_12  and  C_13
REMARK                            x       y       z     vdW  Elec       q    Type
REMARK                         _______ _______ _______ _____ _____    ______ ____
ROOT
ATOM      1  N   UNL     1       4.599   5.698  17.726  0.00  0.00    +0.000 N 
ATOM      2  C   UNL     1       4.603   5.173  19.011  0.00  0.00    +0.000 C 
ATOM      3  O   UNL     1       5.445   4.391  19.456  0.00  0.00    +0.000 OA
ATOM      4  H   UNL     1       4.005   6.501  17.522  0.00  0.00    +0.000 HD
ENDROOT
BRANCH   1   9
ATOM      5  C   UNL     1       6.724   5.803  16.504  0.00  0.00    +0.000 A 
ATOM      6  S   UNL     1       7.502   5.069  15.161  0.00  0.00    +0.000 S 
ATOM      7  C   UNL     1       6.163   4.084  14.818  0.00  0.00    +0.000 A 
ATOM      8  C   UNL     1       5.136   4.301  15.702  0.00  0.00    +0.000 A 
ATOM      9  C   UNL     1       5.450   5.276  16.702  0.00  0.00    +0.000 A 
BRANCH   5  11
ATOM     10  C   UNL     1       7.992   6.428  18.660  0.00  0.00    +0.000 C 
ATOM     11  C   UNL     1       7.407   6.810  17.310  0.00  0.00    +0.000 C 
ATOM     12  O   UNL     1       7.603   7.952  16.885  0.00  0.00    +0.000 OA
ENDBRANCH   5  11
ENDBRANCH   1   9
BRANCH   2  13
ATOM     13  C   UNL     1       3.432   5.601  19.883  0.00  0.00    +0.000 C 
BRANCH  13  14
ATOM     14  C   UNL     1       2.398   4.504  20.027  0.00  0.00    +0.000 A 
ATOM     15  C   UNL     1       2.176   3.888  21.268  0.00  0.00    +0.000 A 
ATOM     16  C   UNL     1       1.277   2.825  21.385  0.00  0.00    +0.000 A 
ATOM     17  C   UNL     1       0.579   2.379  20.267  0.00  0.00    +0.000 A 
ATOM     18  C   UNL     1       0.761   3.010  19.038  0.00  0.00    +0.000 A 
ATOM     19  C   UNL     1       1.661   4.070  18.916  0.00  0.00    +0.000 A 
ENDBRANCH  13  14
ENDBRANCH   2  13
TORSDOF 4
ENDMDL
MODEL 6
REMARK VINA RESULT:      -6.5      1.971      3.163
REMARK  Name = 
REMARK  5 active torsions:
REMARK  status: ('A' for Active; 'I' for Inactive)
REMARK    1  A    between atoms: C_1  and  C_2
REMARK    2  A    between atoms: C_2  and  C_4
REMARK    3  A    between atoms: C_8  and  N_9
REMARK    4  A    between atoms: C_10  and  C_12
REMARK    5  A    between atoms: C_12  and  C_13
REMARK                            x       y       z     vdW  Elec       q    Type
REMARK                         _______ _______ _______ _____ _____    ______ ____
ROOT
ATOM      1  N   UNL     1       5.783   4.072  17.857  0.00  0.00    +0.000 N 
ATOM      2  C   UNL     1       4.397   4.066  17.790  0.00  0.00    +0.000 C 
ATOM      3  O   UNL     1       3.692   5.059  17.600  0.00  0.00    +0.000 OA
ATOM      4  H   UNL     1       6.285   3.187  17.788  0.00  0.00    +0.000 HD
ENDROOT
BRANCH   1   9
ATOM      5  C   UNL     1       6.696   6.096  16.813  0.00  0.00    +0.000 A 
ATOM      6  S   UNL     1       7.726   7.416  17.190  0.00  0.00    +0.000 S 
ATOM      7  C   UNL     1       8.026   6.840  18.759  0.00  0.00    +0.000 A 
ATOM      8  C   UNL     1       7.360   5.665  19.002  0.00  0.00    +0.000 A 
ATOM      9  C   UNL     1       6.564   5.229  17.895  0.00  0.00    +0.000 A 
BRANCH   5  11
ATOM     10  C   UNL     1       6.408   4.873  14.561  0.00  0.00    +0.000 C 
ATOM     11  C   UNL     1       6.043   6.002  15.511  0.00  0.00    +0.000 C 
ATOM     12  O   UNL     1       5.131   6.769  15.191  0.00  0.00    +0.000 OA
ENDBRANCH   5  11
ENDBRANCH   1   9
BRANCH   2  13
ATOM     13  C   UNL     1       3.749   2.708  18.012  0.00  0.00    +0.000 C 
BRANCH  13  14
ATOM     14  C   UNL     1       2.837   2.703  19.220  0.00  0.00    +0.000 A 
ATOM     15  C   UNL     1       1.451   2.871  19.071  0.00  0.00    +0.000 A 
ATOM     16  C   UNL     1       0.617   2.942  20.190  0.00  0.00    +0.000 A 
ATOM     17  C   UNL     1       1.159   2.829  21.468  0.00  0.00    +0.000 A 
ATOM     18  C   UNL     1       2.527   2.621  21.626  0.00  0.00    +0.000 A 
ATOM     19  C   UNL     1       3.364   2.552  20.509  0.00  0.00    +0.000 A 
ENDBRANCH  13  14
ENDBRANCH   2  13
TORSDOF 4
ENDMDL
MODEL 7
REMARK VINA RESULT:      -6.5      1.712      2.351
REMARK  Name = 
REMARK  5 active torsions:
REMARK  status: ('A' for Active; 'I' for Inactive)
REMARK    1  A    between atoms: C_1  and  C_2
REMARK    2  A    between atoms: C_2  and  C_4
REMARK    3  A    between atoms: C_8  and  N_9
REMARK    4  A    between atoms: C_10  and  C_12
REMARK    5  A    between atoms: C_12  and  C_13
REMARK                            x       y       z     vdW  Elec       q    Type
REMARK                         _______ _______ _______ _____ _____    ______ ____
ROOT
ATOM      1  N   UNL     1       4.954   3.045  17.171  0.00  0.00    +0.000 N 
ATOM      2  C   UNL     1       3.568   3.045  17.089  0.00  0.00    +0.000 C 
ATOM      3  O   UNL     1       2.893   3.889  16.497  0.00  0.00    +0.000 OA
ATOM      4  H   UNL     1       5.431   2.197  17.479  0.00  0.00    +0.000 HD
ENDROOT
BRANCH   1   9
ATOM      5  C   UNL     1       6.145   5.152  17.571  0.00  0.00    +0.000 A 
ATOM      6  S   UNL     1       7.141   6.274  16.737  0.00  0.00    +0.000 S 
ATOM      7  C   UNL     1       7.054   5.399  15.285  0.00  0.00    +0.000 A 
ATOM      8  C   UNL     1       6.283   4.271  15.420  0.00  0.00    +0.000 A 
ATOM      9  C   UNL     1       5.767   4.097  16.744  0.00  0.00    +0.000 A 
BRANCH   5  11
ATOM     10  C   UNL     1       4.394   5.622  19.404  0.00  0.00    +0.000 C 
ATOM     11  C   UNL     1       5.826   5.336  18.983  0.00  0.00    +0.000 C 
ATOM     12  O   UNL     1       6.678   5.177  19.862  0.00  0.00    +0.000 OA
ENDBRANCH   5  11
ENDBRANCH   1   9
BRANCH   2  13
ATOM     13  C   UNL     1       2.881   1.913  17.837  0.00  0.00    +0.000 C 
BRANCH  13  14
ATOM     14  C   UNL     1       2.385   2.350  19.199  0.00  0.00    +0.000 A 
ATOM     15  C   UNL     1       3.221   2.273  20.324  0.00  0.00    +0.000 A 
ATOM     16  C   UNL     1       2.740   2.605  21.593  0.00  0.00    +0.000 A 
ATOM     17  C   UNL     1       1.424   3.033  21.747  0.00  0.00    +0.000 A 
ATOM     18  C   UNL     1       0.598   3.153  20.632  0.00  0.00    +0.000 A 
ATOM     19  C   UNL     1       1.074   2.819  19.362  0.00  0.00    +0.000 A 
ENDBRANCH  13  14
ENDBRANCH   2  13
TORSDOF 4
ENDMDL
MODEL 8
REMARK VINA RESULT:      -6.4      1.196      1.510
REMARK  Name = 
REMARK  5 active torsions:
REMARK  status: ('A' for Active; 'I' for Inactive)
REMARK    1  A    between atoms: C_1  and  C_2
REMARK    2  A    between atoms: C_2  and  C_4
REMARK    3  A    between atoms: C_8  and  N_9
REMARK    4  A    between atoms: C_10  and  C_12
REMARK    5  A    between atoms: C_12  and  C_13
REMARK                            x       y       z     vdW  Elec       q    Type
REMARK                         _______ _______ _______ _____ _____    ______ ____
ROOT
ATOM      1  N   UNL     1       3.645   4.892  17.029  0.00  0.00    +0.000 N 
ATOM      2  C   UNL     1       3.067   5.951  17.715  0.00  0.00    +0.000 C 
ATOM      3  O   UNL     1       3.619   7.027  17.953  0.00  0.00    +0.000 OA
ATOM      4  H   UNL     1       3.046   4.142  16.683  0.00  0.00    +0.000 HD
ENDROOT
BRANCH   1   9
ATOM      5  C   UNL     1       6.022   4.650  17.586  0.00  0.00    +0.000 A 
ATOM      6  S   UNL     1       7.554   4.624  16.813  0.00  0.00    +0.000 S 
ATOM      7  C   UNL     1       6.876   4.880  15.278  0.00  0.00    +0.000 A 
ATOM      8  C   UNL     1       5.509   4.985  15.340  0.00  0.00    +0.000 A 
ATOM      9  C   UNL     1       4.992   4.831  16.666  0.00  0.00    +0.000 A 
BRANCH   5  11
ATOM     10  C   UNL     1       5.071   3.299  19.566  0.00  0.00    +0.000 C 
ATOM     11  C   UNL     1       5.904   4.451  19.027  0.00  0.00    +0.000 C 
ATOM     12  O   UNL     1       6.539   5.143  19.828  0.00  0.00    +0.000 OA
ENDBRANCH   5  11
ENDBRANCH   1   9
BRANCH   2  13
ATOM     13  C   UNL     1       1.656   5.695  18.221  0.00  0.00    +0.000 C 
BRANCH  13  14
ATOM     14  C   UNL     1       1.619   4.615  19.283  0.00  0.00    +0.000 A 
ATOM     15  C   UNL     1       2.011   4.895  20.601  0.00  0.00    +0.000 A 
ATOM     16  C   UNL     1       2.049   3.882  21.563  0.00  0.00    +0.000 A 
ATOM     17  C   UNL     1       1.679   2.584  21.220  0.00  0.00    +0.000 A 
ATOM     18  C   UNL     1       1.249   2.304  19.924  0.00  0.00    +0.000 A 
ATOM     19  C   UNL     1       1.213   3.314  18.960  0.00  0.00    +0.000 A 
ENDBRANCH  13  14
ENDBRANCH   2  13
TORSDOF 4
ENDMDL
MODEL 9
REMARK VINA RESULT:      -6.4      2.856      6.236
REMARK  Name = 
REMARK  5 active torsions:
REMARK  status: ('A' for Active; 'I' for Inactive)
REMARK    1  A    between atoms: C_1  and  C_2
REMARK    2  A    between atoms: C_2  and  C_4
REMARK    3  A    between atoms: C_8  and  N_9
REMARK    4  A    between atoms: C_10  and  C_12
REMARK    5  A    between atoms: C_12  and  C_13
REMARK                            x       y       z     vdW  Elec       q    Type
REMARK                         _______ _______ _______ _____ _____    ______ ____
ROOT
ATOM      1  N   UNL     1       6.258   4.177  15.887  0.00  0.00    +0.000 N 
ATOM      2  C   UNL     1       6.346   5.113  14.867  0.00  0.00    +0.000 C 
ATOM      3  O   UNL     1       5.818   6.227  14.879  0.00  0.00    +0.000 OA
ATOM      4  H   UNL     1       6.905   3.388  15.892  0.00  0.00    +0.000 HD
ENDROOT
BRANCH   1   9
ATOM      5  C   UNL     1       5.810   4.875  18.197  0.00  0.00    +0.000 A 
ATOM      6  S   UNL     1       4.537   4.861  19.348  0.00  0.00    +0.000 S 
ATOM      7  C   UNL     1       3.475   4.068  18.285  0.00  0.00    +0.000 A 
ATOM      8  C   UNL     1       4.068   3.814  17.074  0.00  0.00    +0.000 A 
ATOM      9  C   UNL     1       5.414   4.296  16.993  0.00  0.00    +0.000 A 
BRANCH   5  11
ATOM     10  C   UNL     1       7.449   6.848  17.939  0.00  0.00    +0.000 C 
ATOM     11  C   UNL     1       7.099   5.485  18.510  0.00  0.00    +0.000 C 
ATOM     12  O   UNL     1       7.884   4.959  19.304  0.00  0.00    +0.000 OA
ENDBRANCH   5  11
ENDBRANCH   1   9
BRANCH   2  13
ATOM     13  C   UNL     1       7.137   4.663  13.648  0.00  0.00    +0.000 C 
BRANCH  13  14
ATOM     14  C   UNL     1       6.327   3.752  12.749  0.00  0.00    +0.000 A 
ATOM     15  C   UNL     1       6.936   2.678  12.082  0.00  0.00    +0.000 A 
ATOM     16  C   UNL     1       6.205   1.884  11.195  0.00  0.00    +0.000 A 
ATOM     17  C   UNL     1       4.855   2.145  10.979  0.00  0.00    +0.000 A 
ATOM     18  C   UNL     1       4.230   3.183  11.667  0.00  0.00    +0.000 A 
ATOM     19  C   UNL     1       4.958   3.981  12.552  0.00  0.00    +0.000 A 
ENDBRANCH  13  14
ENDBRANCH   2  13
TORSDOF 4
ENDMDL
