MODEL 1
REMARK VINA RESULT:      -7.9      0.000      0.000
REMARK  Name = 
REMARK  8 active torsions:
REMARK  status: ('A' for Active; 'I' for Inactive)
REMARK    1  A    between atoms: C_1  and  C_2
REMARK    2  A    between atoms: C_2  and  C_3
REMARK    3  A    between atoms: N_5  and  C_6
REMARK    4  A    between atoms: C_6  and  C_7
REMARK    5  A    between atoms: N_17  and  C_18
REMARK    6  A    between atoms: C_18  and  C_19
REMARK    7  A    between atoms: C_19  and  O_20
REMARK    8  A    between atoms: O_20  and  C_21
REMARK                            x       y       z     vdW  Elec       q    Type
REMARK                         _______ _______ _______ _____ _____    ______ ____
ROOT
ATOM      1  C   UNL     1       7.753   4.383  17.778  0.00  0.00    +0.000 C 
ATOM      2  C   UNL     1       6.609   5.413  17.837  0.00  0.00    +0.000 C 
ATOM      3  C   UNL     1       7.250   6.816  17.717  0.00  0.00    +0.000 C 
ATOM      4  C   UNL     1       6.271   7.646  16.913  0.00  0.00    +0.000 C 
ATOM      5  C   UNL     1       5.563   6.616  16.073  0.00  0.00    +0.000 C 
ATOM      6  O   UNL     1       4.854   6.889  15.118  0.00  0.00    +0.000 OA
ATOM      7  N   UNL     1       5.743   5.355  16.641  0.00  0.00    +0.000 N 
ENDROOT
BRANCH   2   8
ATOM      8  C   UNL     1       5.927   5.303  19.266  0.00  0.00    +0.000 C 
ATOM      9  O   UNL     1       6.552   4.837  20.222  0.00  0.00    +0.000 OA
ATOM     10  N   UNL     1       4.714   5.884  19.548  0.00  0.00    +0.000 N 
ATOM     11  H   UNL     1       4.393   5.699  20.493  0.00  0.00    +0.000 HD
BRANCH  10  12
ATOM     12  C   UNL     1       3.729   6.153  18.554  0.00  0.00    +0.000 C 
BRANCH  12  13
ATOM     13  C   UNL     1       2.716   7.221  18.785  0.00  0.00    +0.000 A 
ATOM     14  C   UNL     1       2.116   7.334  20.048  0.00  0.00    +0.000 A 
ATOM     15  C   UNL     1       1.300   8.421  20.342  0.00  0.00    +0.000 A 
ATOM     16  C   UNL     1       1.086   9.405  19.381  0.00  0.00    +0.000 A 
ATOM     17  C   UNL     1       1.699   9.310  18.130  0.00  0.00    +0.000 A 
ATOM     18  C   UNL     1       2.515   8.224  17.833  0.00  0.00    +0.000 A 
ENDBRANCH  12  13
ENDBRANCH  10  12
ENDBRANCH   2   8
BRANCH   7  19
ATOM     19  C   UNL     1       5.184   4.100  16.064  0.00  0.00    +0.000 C 
BRANCH  19  20
ATOM     20  C   UNL     1       3.873   3.606  16.732  0.00  0.00    +0.000 C 
BRANCH  20  21
ATOM     21  O   UNL     1       4.070   2.608  17.744  0.00  0.00    +0.000 OA
BRANCH  21  22
ATOM     22  C   UNL     1       3.185   2.744  18.800  0.00  0.00    +0.000 A 
ATOM     23  C   UNL     1       1.859   3.029  18.469  0.00  0.00    +0.000 A 
ATOM     24  C   UNL     1       0.902   3.210  19.476  0.00  0.00    +0.000 A 
ATOM     25  C   UNL     1       1.258   3.093  20.821  0.00  0.00    +0.000 A 
ATOM     26  C   UNL     1       2.571   2.773  21.155  0.00  0.00    +0.000 A 
ATOM     27  C   UNL     1       3.524   2.590  20.151  0.00  0.00    +0.000 A 
ENDBRANCH  21  22
ENDBRANCH  20  21
ENDBRANCH  19  20
ENDBRANCH   7  19
TORSDOF 7
ENDMDL
MODEL 2
REMARK VINA RESULT:      -7.8      1.752      4.853
REMARK  Name = 
REMARK  8 active torsions:
REMARK  status: ('A' for Active; 'I' for Inactive)
REMARK    1  A    between atoms: C_1  and  C_2
REMARK    2  A    between atoms: C_2  and  C_3
REMARK    3  A    between atoms: N_5  and  C_6
REMARK    4  A    between atoms: C_6  and  C_7
REMARK    5  A    between atoms: N_17  and  C_18
REMARK    6  A    between atoms: C_18  and  C_19
REMARK    7  A    between atoms: C_19  and  O_20
REMARK    8  A    between atoms: O_20  and  C_21
REMARK                            x       y       z     vdW  Elec       q    Type
REMARK                         _______ _______ _______ _____ _____    ______ ____
ROOT
ATOM      1  C   UNL     1       1.426   4.835  17.630  0.00  0.00    +0.000 C 
ATOM      2  C   UNL     1       1.887   3.822  18.695  0.00  0.00    +0.000 C 
ATOM      3  C   UNL     1       0.945   2.599  18.601  0.00  0.00    +0.000 C 
ATOM      4  C   UNL     1       1.813   1.391  18.887  0.00  0.00    +0.000 C 
ATOM      5  C   UNL     1       3.180   1.843  18.443  0.00  0.00    +0.000 C 
ATOM      6  O   UNL     1       4.127   1.090  18.290  0.00  0.00    +0.000 OA
ATOM      7  N   UNL     1       3.205   3.235  18.375  0.00  0.00    +0.000 N 
ENDROOT
BRANCH   2   8
ATOM      8  C   UNL     1       1.687   4.490  20.121  0.00  0.00    +0.000 C 
ATOM      9  O   UNL     1       1.020   3.921  20.989  0.00  0.00    +0.000 OA
ATOM     10  N   UNL     1       2.388   5.605  20.516  0.00  0.00    +0.000 N 
ATOM     11  H   UNL     1       2.129   5.933  21.440  0.00  0.00    +0.000 HD
BRANCH  10  12
ATOM     12  C   UNL     1       2.916   6.558  19.597  0.00  0.00    +0.000 C 
BRANCH  12  13
ATOM     13  C   UNL     1       2.138   7.789  19.279  0.00  0.00    +0.000 A 
ATOM     14  C   UNL     1       1.423   8.431  20.302  0.00  0.00    +0.000 A 
ATOM     15  C   UNL     1       0.833   9.669  20.075  0.00  0.00    +0.000 A 
ATOM     16  C   UNL     1       0.960  10.277  18.829  0.00  0.00    +0.000 A 
ATOM     17  C   UNL     1       1.690   9.655  17.814  0.00  0.00    +0.000 A 
ATOM     18  C   UNL     1       2.281   8.416  18.039  0.00  0.00    +0.000 A 
ENDBRANCH  12  13
ENDBRANCH  10  12
ENDBRANCH   2   8
BRANCH   7  19
ATOM     19  C   UNL     1       4.400   4.022  17.961  0.00  0.00    +0.000 C 
BRANCH  19  20
ATOM     20  C   UNL     1       4.831   3.820  16.483  0.00  0.00    +0.000 C 
BRANCH  20  21
ATOM     21  O   UNL     1       6.245   3.934  16.263  0.00  0.00    +0.000 OA
BRANCH  21  22
ATOM     22  C   UNL     1       6.822   4.924  17.040  0.00  0.00    +0.000 A 
ATOM     23  C   UNL     1       6.588   6.243  16.645  0.00  0.00    +0.000 A 
ATOM     24  C   UNL     1       7.157   7.306  17.358  0.00  0.00    +0.000 A 
ATOM     25  C   UNL     1       7.951   7.061  18.480  0.00  0.00    +0.000 A 
ATOM     26  C   UNL     1       8.158   5.750  18.899  0.00  0.00    +0.000 A 
ATOM     27  C   UNL     1       7.589   4.691  18.189  0.00  0.00    +0.000 A 
ENDBRANCH  21  22
ENDBRANCH  20  21
ENDBRANCH  19  20
ENDBRANCH   7  19
TORSDOF 7
ENDMDL
MODEL 3
REMARK VINA RESULT:      -7.8      2.258      5.872
REMARK  Name = 
REMARK  8 active torsions:
REMARK  status: ('A' for Active; 'I' for Inactive)
REMARK    1  A    between atoms: C_1  and  C_2
REMARK    2  A    between atoms: C_2  and  C_3
REMARK    3  A    between atoms: N_5  and  C_6
REMARK    4  A    between atoms: C_6  and  C_7
REMARK    5  A    between atoms: N_17  and  C_18
REMARK    6  A    between atoms: C_18  and  C_19
REMARK    7  A    between atoms: C_19  and  O_20
REMARK    8  A    between atoms: O_20  and  C_21
REMARK                            x       y       z     vdW  Elec       q    Type
REMARK                         _______ _______ _______ _____ _____    ______ ____
ROOT
ATOM      1  C   UNL     1       2.411   3.123  21.744  0.00  0.00    +0.000 C 
ATOM      2  C   UNL     1       2.825   3.162  20.261  0.00  0.00    +0.000 C 
ATOM      3  C   UNL     1       1.918   2.163  19.506  0.00  0.00    +0.000 C 
ATOM      4  C   UNL     1       1.661   2.788  18.151  0.00  0.00    +0.000 C 
ATOM      5  C   UNL     1       1.786   4.263  18.427  0.00  0.00    +0.000 C 
ATOM      6  O   UNL     1       1.427   5.132  17.651  0.00  0.00    +0.000 OA
ATOM      7  N   UNL     1       2.485   4.450  19.619  0.00  0.00    +0.000 N 
ENDROOT
BRANCH   2   8
ATOM      8  C   UNL     1       4.322   2.644  20.160  0.00  0.00    +0.000 C 
ATOM      9  O   UNL     1       4.777   1.878  21.014  0.00  0.00    +0.000 OA
ATOM     10  N   UNL     1       5.100   2.856  19.047  0.00  0.00    +0.000 N 
ATOM     11  H   UNL     1       6.043   2.494  19.144  0.00  0.00    +0.000 HD
BRANCH  10  12
ATOM     12  C   UNL     1       4.896   3.946  18.151  0.00  0.00    +0.000 C 
BRANCH  12  13
ATOM     13  C   UNL     1       5.808   5.124  18.199  0.00  0.00    +0.000 A 
ATOM     14  C   UNL     1       6.942   5.079  19.022  0.00  0.00    +0.000 A 
ATOM     15  C   UNL     1       7.897   6.088  18.957  0.00  0.00    +0.000 A 
ATOM     16  C   UNL     1       7.729   7.141  18.063  0.00  0.00    +0.000 A 
ATOM     17  C   UNL     1       6.614   7.180  17.224  0.00  0.00    +0.000 A 
ATOM     18  C   UNL     1       5.657   6.172  17.288  0.00  0.00    +0.000 A 
ENDBRANCH  12  13
ENDBRANCH  10  12
ENDBRANCH   2   8
BRANCH   7  19
ATOM     19  C   UNL     1       2.784   5.788  20.202  0.00  0.00    +0.000 C 
BRANCH  19  20
ATOM     20  C   UNL     1       1.536   6.664  20.492  0.00  0.00    +0.000 C 
BRANCH  20  21
ATOM     21  O   UNL     1       1.691   8.045  20.130  0.00  0.00    +0.000 OA
BRANCH  21  22
ATOM     22  C   UNL     1       0.913   8.885  20.906  0.00  0.00    +0.000 A 
ATOM     23  C   UNL     1       0.206   9.883  20.231  0.00  0.00    +0.000 A 
ATOM     24  C   UNL     1      -0.584  10.795  20.942  0.00  0.00    +0.000 A 
ATOM     25  C   UNL     1      -0.688  10.708  22.332  0.00  0.00    +0.000 A 
ATOM     26  C   UNL     1      -0.015   9.694  23.006  0.00  0.00    +0.000 A 
ATOM     27  C   UNL     1       0.770   8.784  22.297  0.00  0.00    +0.000 A 
ENDBRANCH  21  22
ENDBRANCH  20  21
ENDBRANCH  19  20
ENDBRANCH   7  19
TORSDOF 7
ENDMDL
MODEL 4
REMARK VINA RESULT:      -7.7      1.428      2.058
REMARK  Name = 
REMARK  8 active torsions:
REMARK  status: ('A' for Active; 'I' for Inactive)
REMARK    1  A    between atoms: C_1  and  C_2
REMARK    2  A    between atoms: C_2  and  C_3
REMARK    3  A    between atoms: N_5  and  C_6
REMARK    4  A    between atoms: C_6  and  C_7
REMARK    5  A    between atoms: N_17  and  C_18
REMARK    6  A    between atoms: C_18  and  C_19
REMARK    7  A    between atoms: C_19  and  O_20
REMARK    8  A    between atoms: O_20  and  C_21
REMARK                            x       y       z     vdW  Elec       q    Type
REMARK                         _______ _______ _______ _____ _____    ______ ____
ROOT
ATOM      1  C   UNL     1       5.899   4.662  18.632  0.00  0.00    +0.000 C 
ATOM      2  C   UNL     1       6.002   5.220  17.200  0.00  0.00    +0.000 C 
ATOM      3  C   UNL     1       7.422   4.894  16.682  0.00  0.00    +0.000 C 
ATOM      4  C   UNL     1       7.261   4.593  15.207  0.00  0.00    +0.000 C 
ATOM      5  C   UNL     1       5.846   4.085  15.116  0.00  0.00    +0.000 C 
ATOM      6  O   UNL     1       5.389   3.517  14.138  0.00  0.00    +0.000 OA
ATOM      7  N   UNL     1       5.140   4.486  16.250  0.00  0.00    +0.000 N 
ENDROOT
BRANCH   2   8
ATOM      8  C   UNL     1       5.857   6.799  17.281  0.00  0.00    +0.000 C 
ATOM      9  O   UNL     1       6.832   7.527  17.075  0.00  0.00    +0.000 OA
ATOM     10  N   UNL     1       4.636   7.421  17.386  0.00  0.00    +0.000 N 
ATOM     11  H   UNL     1       4.707   8.431  17.460  0.00  0.00    +0.000 HD
BRANCH  10  12
ATOM     12  C   UNL     1       3.489   6.793  17.953  0.00  0.00    +0.000 C 
BRANCH  12  13
ATOM     13  C   UNL     1       2.434   7.624  18.599  0.00  0.00    +0.000 A 
ATOM     14  C   UNL     1       2.159   7.443  19.962  0.00  0.00    +0.000 A 
ATOM     15  C   UNL     1       1.306   8.316  20.629  0.00  0.00    +0.000 A 
ATOM     16  C   UNL     1       0.731   9.380  19.939  0.00  0.00    +0.000 A 
ATOM     17  C   UNL     1       1.019   9.580  18.588  0.00  0.00    +0.000 A 
ATOM     18  C   UNL     1       1.871   8.707  17.919  0.00  0.00    +0.000 A 
ENDBRANCH  12  13
ENDBRANCH  10  12
ENDBRANCH   2   8
BRANCH   7  19
ATOM     19  C   UNL     1       3.709   4.150  16.496  0.00  0.00    +0.000 C 
BRANCH  19  20
ATOM     20  C   UNL     1       3.454   2.685  16.941  0.00  0.00    +0.000 C 
BRANCH  20  21
ATOM     21  O   UNL     1       2.150   2.459  17.497  0.00  0.00    +0.000 OA
BRANCH  21  22
ATOM     22  C   UNL     1       2.064   2.855  18.820  0.00  0.00    +0.000 A 
ATOM     23  C   UNL     1       3.036   2.350  19.687  0.00  0.00    +0.000 A 
ATOM     24  C   UNL     1       3.008   2.677  21.049  0.00  0.00    +0.000 A 
ATOM     25  C   UNL     1       2.018   3.523  21.553  0.00  0.00    +0.000 A 
ATOM     26  C   UNL     1       1.068   4.058  20.688  0.00  0.00    +0.000 A 
ATOM     27  C   UNL     1       1.099   3.734  19.330  0.00  0.00    +0.000 A 
ENDBRANCH  21  22
ENDBRANCH  20  21
ENDBRANCH  19  20
ENDBRANCH   7  19
TORSDOF 7
ENDMDL
MODEL 5
REMARK VINA RESULT:      -7.7      1.998      5.835
REMARK  Name = 
REMARK  8 active torsions:
REMARK  status: ('A' for Active; 'I' for Inactive)
REMARK    1  A    between atoms: C_1  and  C_2
REMARK    2  A    between atoms: C_2  and  C_3
REMARK    3  A    between atoms: N_5  and  C_6
REMARK    4  A    between atoms: C_6  and  C_7
REMARK    5  A    between atoms: N_17  and  C_18
REMARK    6  A    between atoms: C_18  and  C_19
REMARK    7  A    between atoms: C_19  and  O_20
REMARK    8  A    between atoms: O_20  and  C_21
REMARK                            x       y       z     vdW  Elec       q    Type
REMARK                         _______ _______ _______ _____ _____    ______ ____
ROOT
ATOM      1  C   UNL     1       2.549   3.362  21.594  0.00  0.00    +0.000 C 
ATOM      2  C   UNL     1       2.848   3.170  20.096  0.00  0.00    +0.000 C 
ATOM      3  C   UNL     1       1.933   2.031  19.588  0.00  0.00    +0.000 C 
ATOM      4  C   UNL     1       1.546   2.415  18.175  0.00  0.00    +0.000 C 
ATOM      5  C   UNL     1       1.626   3.919  18.198  0.00  0.00    +0.000 C 
ATOM      6  O   UNL     1       1.170   4.637  17.324  0.00  0.00    +0.000 OA
ATOM      7  N   UNL     1       2.403   4.322  19.284  0.00  0.00    +0.000 N 
ENDROOT
BRANCH   2   8
ATOM      8  C   UNL     1       4.355   2.690  19.958  0.00  0.00    +0.000 C 
ATOM      9  O   UNL     1       4.818   1.853  20.737  0.00  0.00    +0.000 OA
ATOM     10  N   UNL     1       5.137   3.023  18.877  0.00  0.00    +0.000 N 
ATOM     11  H   UNL     1       6.086   2.669  18.947  0.00  0.00    +0.000 HD
BRANCH  10  12
ATOM     12  C   UNL     1       4.919   4.190  18.090  0.00  0.00    +0.000 C 
BRANCH  12  13
ATOM     13  C   UNL     1       5.876   5.331  18.177  0.00  0.00    +0.000 A 
ATOM     14  C   UNL     1       6.976   5.237  19.042  0.00  0.00    +0.000 A 
ATOM     15  C   UNL     1       7.973   6.206  19.017  0.00  0.00    +0.000 A 
ATOM     16  C   UNL     1       7.880   7.269  18.122  0.00  0.00    +0.000 A 
ATOM     17  C   UNL     1       6.800   7.356  17.243  0.00  0.00    +0.000 A 
ATOM     18  C   UNL     1       5.801   6.387  17.266  0.00  0.00    +0.000 A 
ENDBRANCH  12  13
ENDBRANCH  10  12
ENDBRANCH   2   8
BRANCH   7  19
ATOM     19  C   UNL     1       2.686   5.747  19.616  0.00  0.00    +0.000 C 
BRANCH  19  20
ATOM     20  C   UNL     1       1.559   6.465  20.407  0.00  0.00    +0.000 C 
BRANCH  20  21
ATOM     21  O   UNL     1       1.882   7.808  20.799  0.00  0.00    +0.000 OA
BRANCH  21  22
ATOM     22  C   UNL     1       1.170   8.752  20.080  0.00  0.00    +0.000 A 
ATOM     23  C   UNL     1       0.194   9.464  20.781  0.00  0.00    +0.000 A 
ATOM     24  C   UNL     1      -0.592  10.420  20.125  0.00  0.00    +0.000 A 
ATOM     25  C   UNL     1      -0.399  10.684  18.767  0.00  0.00    +0.000 A 
ATOM     26  C   UNL     1       0.597  10.003  18.072  0.00  0.00    +0.000 A 
ATOM     27  C   UNL     1       1.382   9.053  18.728  0.00  0.00    +0.000 A 
ENDBRANCH  21  22
ENDBRANCH  20  21
ENDBRANCH  19  20
ENDBRANCH   7  19
TORSDOF 7
ENDMDL
MODEL 6
REMARK VINA RESULT:      -7.6      1.425      2.138
REMARK  Name = 
REMARK  8 active torsions:
REMARK  status: ('A' for Active; 'I' for Inactive)
REMARK    1  A    between atoms: C_1  and  C_2
REMARK    2  A    between atoms: C_2  and  C_3
REMARK    3  A    between atoms: N_5  and  C_6
REMARK    4  A    between atoms: C_6  and  C_7
REMARK    5  A    between atoms: N_17  and  C_18
REMARK    6  A    between atoms: C_18  and  C_19
REMARK    7  A    between atoms: C_19  and  O_20
REMARK    8  A    between atoms: O_20  and  C_21
REMARK                            x       y       z     vdW  Elec       q    Type
REMARK                         _______ _______ _______ _____ _____    ______ ____
ROOT
ATOM      1  C   UNL     1       5.616   5.034  19.033  0.00  0.00    +0.000 C 
ATOM      2  C   UNL     1       5.895   5.395  17.562  0.00  0.00    +0.000 C 
ATOM      3  C   UNL     1       7.407   5.180  17.316  0.00  0.00    +0.000 C 
ATOM      4  C   UNL     1       7.522   4.658  15.900  0.00  0.00    +0.000 C 
ATOM      5  C   UNL     1       6.201   3.969  15.683  0.00  0.00    +0.000 C 
ATOM      6  O   UNL     1       5.971   3.216  14.751  0.00  0.00    +0.000 OA
ATOM      7  N   UNL     1       5.281   4.433  16.623  0.00  0.00    +0.000 N 
ENDROOT
BRANCH   2   8
ATOM      8  C   UNL     1       5.579   6.939  17.370  0.00  0.00    +0.000 C 
ATOM      9  O   UNL     1       6.473   7.724  17.045  0.00  0.00    +0.000 OA
ATOM     10  N   UNL     1       4.295   7.431  17.363  0.00  0.00    +0.000 N 
ATOM     11  H   UNL     1       4.255   8.440  17.263  0.00  0.00    +0.000 HD
BRANCH  10  12
ATOM     12  C   UNL     1       3.211   6.786  18.025  0.00  0.00    +0.000 C 
BRANCH  12  13
ATOM     13  C   UNL     1       2.436   7.521  19.065  0.00  0.00    +0.000 A 
ATOM     14  C   UNL     1       1.908   8.784  18.760  0.00  0.00    +0.000 A 
ATOM     15  C   UNL     1       1.040   9.415  19.645  0.00  0.00    +0.000 A 
ATOM     16  C   UNL     1       0.688   8.783  20.835  0.00  0.00    +0.000 A 
ATOM     17  C   UNL     1       1.191   7.516  21.134  0.00  0.00    +0.000 A 
ATOM     18  C   UNL     1       2.060   6.883  20.250  0.00  0.00    +0.000 A 
ENDBRANCH  12  13
ENDBRANCH  10  12
ENDBRANCH   2   8
BRANCH   7  19
ATOM     19  C   UNL     1       3.871   3.957  16.706  0.00  0.00    +0.000 C 
BRANCH  19  20
ATOM     20  C   UNL     1       3.710   2.479  17.153  0.00  0.00    +0.000 C 
BRANCH  20  21
ATOM     21  O   UNL     1       2.406   2.159  17.662  0.00  0.00    +0.000 OA
BRANCH  21  22
ATOM     22  C   UNL     1       2.264   2.493  18.998  0.00  0.00    +0.000 A 
ATOM     23  C   UNL     1       1.013   2.976  19.390  0.00  0.00    +0.000 A 
ATOM     24  C   UNL     1       0.790   3.364  20.717  0.00  0.00    +0.000 A 
ATOM     25  C   UNL     1       1.808   3.258  21.667  0.00  0.00    +0.000 A 
ATOM     26  C   UNL     1       3.045   2.742  21.289  0.00  0.00    +0.000 A 
ATOM     27  C   UNL     1       3.266   2.353  19.967  0.00  0.00    +0.000 A 
ENDBRANCH  21  22
ENDBRANCH  20  21
ENDBRANCH  19  20
ENDBRANCH   7  19
TORSDOF 7
ENDMDL
MODEL 7
REMARK VINA RESULT:      -7.5      2.148      6.021
REMARK  Name = 
REMARK  8 active torsions:
REMARK  status: ('A' for Active; 'I' for Inactive)
REMARK    1  A    between atoms: C_1  and  C_2
REMARK    2  A    between atoms: C_2  and  C_3
REMARK    3  A    between atoms: N_5  and  C_6
REMARK    4  A    between atoms: C_6  and  C_7
REMARK    5  A    between atoms: N_17  and  C_18
REMARK    6  A    between atoms: C_18  and  C_19
REMARK    7  A    between atoms: C_19  and  O_20
REMARK    8  A    between atoms: O_20  and  C_21
REMARK                            x       y       z     vdW  Elec       q    Type
REMARK                         _______ _______ _______ _____ _____    ______ ____
ROOT
ATOM      1  C   UNL     1       2.445   3.879  21.731  0.00  0.00    +0.000 C 
ATOM      2  C   UNL     1       2.656   3.384  20.288  0.00  0.00    +0.000 C 
ATOM      3  C   UNL     1       1.577   2.311  20.009  0.00  0.00    +0.000 C 
ATOM      4  C   UNL     1       1.189   2.489  18.556  0.00  0.00    +0.000 C 
ATOM      5  C   UNL     1       1.470   3.947  18.305  0.00  0.00    +0.000 C 
ATOM      6  O   UNL     1       1.080   4.554  17.322  0.00  0.00    +0.000 OA
ATOM      7  N   UNL     1       2.337   4.424  19.288  0.00  0.00    +0.000 N 
ENDROOT
BRANCH   2   8
ATOM      8  C   UNL     1       4.079   2.684  20.216  0.00  0.00    +0.000 C 
ATOM      9  O   UNL     1       4.431   1.895  21.097  0.00  0.00    +0.000 OA
ATOM     10  N   UNL     1       4.882   2.764  19.104  0.00  0.00    +0.000 N 
ATOM     11  H   UNL     1       5.773   2.292  19.221  0.00  0.00    +0.000 HD
BRANCH  10  12
ATOM     12  C   UNL     1       4.819   3.841  18.174  0.00  0.00    +0.000 C 
BRANCH  12  13
ATOM     13  C   UNL     1       5.943   4.817  18.093  0.00  0.00    +0.000 A 
ATOM     14  C   UNL     1       6.043   5.654  16.972  0.00  0.00    +0.000 A 
ATOM     15  C   UNL     1       6.975   6.686  16.947  0.00  0.00    +0.000 A 
ATOM     16  C   UNL     1       7.805   6.893  18.046  0.00  0.00    +0.000 A 
ATOM     17  C   UNL     1       7.694   6.078  19.174  0.00  0.00    +0.000 A 
ATOM     18  C   UNL     1       6.763   5.045  19.200  0.00  0.00    +0.000 A 
ENDBRANCH  12  13
ENDBRANCH  10  12
ENDBRANCH   2   8
BRANCH   7  19
ATOM     19  C   UNL     1       2.819   5.833  19.352  0.00  0.00    +0.000 C 
BRANCH  19  20
ATOM     20  C   UNL     1       1.912   6.794  20.165  0.00  0.00    +0.000 C 
BRANCH  20  21
ATOM     21  O   UNL     1       1.805   8.113  19.608  0.00  0.00    +0.000 OA
BRANCH  21  22
ATOM     22  C   UNL     1       1.076   8.969  20.415  0.00  0.00    +0.000 A 
ATOM     23  C   UNL     1       0.911   8.583  21.747  0.00  0.00    +0.000 A 
ATOM     24  C   UNL     1       0.164   9.377  22.626  0.00  0.00    +0.000 A 
ATOM     25  C   UNL     1      -0.411  10.571  22.187  0.00  0.00    +0.000 A 
ATOM     26  C   UNL     1      -0.219  10.979  20.870  0.00  0.00    +0.000 A 
ATOM     27  C   UNL     1       0.528  10.189  19.995  0.00  0.00    +0.000 A 
ENDBRANCH  21  22
ENDBRANCH  20  21
ENDBRANCH  19  20
ENDBRANCH   7  19
TORSDOF 7
ENDMDL
MODEL 8
REMARK VINA RESULT:      -7.5      2.522      6.303
REMARK  Name = 
REMARK  8 active torsions:
REMARK  status: ('A' for Active; 'I' for Inactive)
REMARK    1  A    between atoms: C_1  and  C_2
REMARK    2  A    between atoms: C_2  and  C_3
REMARK    3  A    between atoms: N_5  and  C_6
REMARK    4  A    between atoms: C_6  and  C_7
REMARK    5  A    between atoms: N_17  and  C_18
REMARK    6  A    between atoms: C_18  and  C_19
REMARK    7  A    between atoms: C_19  and  O_20
REMARK    8  A    between atoms: O_20  and  C_21
REMARK                            x       y       z     vdW  Elec       q    Type
REMARK                         _______ _______ _______ _____ _____    ______ ____
ROOT
ATOM      1  C   UNL     1       3.904   5.667  18.160  0.00  0.00    +0.000 C 
ATOM      2  C   UNL     1       5.220   5.013  17.700  0.00  0.00    +0.000 C 
ATOM      3  C   UNL     1       4.846   3.856  16.744  0.00  0.00    +0.000 C 
ATOM      4  C   UNL     1       5.930   3.833  15.686  0.00  0.00    +0.000 C 
ATOM      5  C   UNL     1       6.402   5.263  15.652  0.00  0.00    +0.000 C 
ATOM      6  O   UNL     1       7.111   5.724  14.773  0.00  0.00    +0.000 OA
ATOM      7  N   UNL     1       6.013   5.904  16.828  0.00  0.00    +0.000 N 
ENDROOT
BRANCH   2   8
ATOM      8  C   UNL     1       5.925   4.388  18.978  0.00  0.00    +0.000 C 
ATOM      9  O   UNL     1       6.923   4.926  19.465  0.00  0.00    +0.000 OA
ATOM     10  N   UNL     1       5.362   3.364  19.701  0.00  0.00    +0.000 N 
ATOM     11  H   UNL     1       5.946   3.051  20.470  0.00  0.00    +0.000 HD
BRANCH  10  12
ATOM     12  C   UNL     1       4.444   2.429  19.142  0.00  0.00    +0.000 C 
BRANCH  12  13
ATOM     13  C   UNL     1       2.995   2.523  19.480  0.00  0.00    +0.000 A 
ATOM     14  C   UNL     1       2.614   3.049  20.723  0.00  0.00    +0.000 A 
ATOM     15  C   UNL     1       1.275   3.307  20.995  0.00  0.00    +0.000 A 
ATOM     16  C   UNL     1       0.310   3.049  20.025  0.00  0.00    +0.000 A 
ATOM     17  C   UNL     1       0.685   2.548  18.777  0.00  0.00    +0.000 A 
ATOM     18  C   UNL     1       2.024   2.288  18.503  0.00  0.00    +0.000 A 
ENDBRANCH  12  13
ENDBRANCH  10  12
ENDBRANCH   2   8
BRANCH   7  19
ATOM     19  C   UNL     1       6.307   7.334  17.127  0.00  0.00    +0.000 C 
BRANCH  19  20
ATOM     20  C   UNL     1       7.817   7.683  17.213  0.00  0.00    +0.000 C 
BRANCH  20  21
ATOM     21  O   UNL     1       8.262   8.042  18.530  0.00  0.00    +0.000 OA
BRANCH  21  22
ATOM     22  C   UNL     1       8.640   9.370  18.615  0.00  0.00    +0.000 A 
ATOM     23  C   UNL     1       8.138  10.227  17.633  0.00  0.00    +0.000 A 
ATOM     24  C   UNL     1       8.492  11.582  17.627  0.00  0.00    +0.000 A 
ATOM     25  C   UNL     1       9.339  12.096  18.611  0.00  0.00    +0.000 A 
ATOM     26  C   UNL     1       9.813  11.255  19.614  0.00  0.00    +0.000 A 
ATOM     27  C   UNL     1       9.457   9.905  19.620  0.00  0.00    +0.000 A 
ENDBRANCH  21  22
ENDBRANCH  20  21
ENDBRANCH  19  20
ENDBRANCH   7  19
TORSDOF 7
ENDMDL
MODEL 9
REMARK VINA RESULT:      -7.5      2.054      5.967
REMARK  Name = 
REMARK  8 active torsions:
REMARK  status: ('A' for Active; 'I' for Inactive)
REMARK    1  A    between atoms: C_1  and  C_2
REMARK    2  A    between atoms: C_2  and  C_3
REMARK    3  A    between atoms: N_5  and  C_6
REMARK    4  A    between atoms: C_6  and  C_7
REMARK    5  A    between atoms: N_17  and  C_18
REMARK    6  A    between atoms: C_18  and  C_19
REMARK    7  A    between atoms: C_19  and  O_20
REMARK    8  A    between atoms: O_20  and  C_21
REMARK                            x       y       z     vdW  Elec       q    Type
REMARK                         _______ _______ _______ _____ _____    ______ ____
ROOT
ATOM      1  C   UNL     1       2.396   3.325  21.665  0.00  0.00    +0.000 C 
ATOM      2  C   UNL     1       2.842   3.100  20.208  0.00  0.00    +0.000 C 
ATOM      3  C   UNL     1       2.023   1.910  19.656  0.00  0.00    +0.000 C 
ATOM      4  C   UNL     1       1.757   2.236  18.201  0.00  0.00    +0.000 C 
ATOM      5  C   UNL     1       1.777   3.742  18.181  0.00  0.00    +0.000 C 
ATOM      6  O   UNL     1       1.378   4.414  17.245  0.00  0.00    +0.000 OA
ATOM      7  N   UNL     1       2.432   4.209  19.320  0.00  0.00    +0.000 N 
ENDROOT
BRANCH   2   8
ATOM      8  C   UNL     1       4.373   2.679  20.227  0.00  0.00    +0.000 C 
ATOM      9  O   UNL     1       4.780   1.844  21.038  0.00  0.00    +0.000 OA
ATOM     10  N   UNL     1       5.253   3.062  19.242  0.00  0.00    +0.000 N 
ATOM     11  H   UNL     1       6.202   2.742  19.409  0.00  0.00    +0.000 HD
BRANCH  10  12
ATOM     12  C   UNL     1       5.077   4.236  18.455  0.00  0.00    +0.000 C 
BRANCH  12  13
ATOM     13  C   UNL     1       5.663   4.304  17.086  0.00  0.00    +0.000 A 
ATOM     14  C   UNL     1       4.820   4.174  15.973  0.00  0.00    +0.000 A 
ATOM     15  C   UNL     1       5.309   4.404  14.691  0.00  0.00    +0.000 A 
ATOM     16  C   UNL     1       6.639   4.775  14.516  0.00  0.00    +0.000 A 
ATOM     17  C   UNL     1       7.477   4.930  15.621  0.00  0.00    +0.000 A 
ATOM     18  C   UNL     1       6.991   4.699  16.904  0.00  0.00    +0.000 A 
ENDBRANCH  12  13
ENDBRANCH  10  12
ENDBRANCH   2   8
BRANCH   7  19
ATOM     19  C   UNL     1       2.628   5.653  19.629  0.00  0.00    +0.000 C 
BRANCH  19  20
ATOM     20  C   UNL     1       2.372   6.613  18.437  0.00  0.00    +0.000 C 
BRANCH  20  21
ATOM     21  O   UNL     1       2.710   7.983  18.702  0.00  0.00    +0.000 OA
BRANCH  21  22
ATOM     22  C   UNL     1       1.606   8.740  19.054  0.00  0.00    +0.000 A 
ATOM     23  C   UNL     1       0.946   9.400  18.015  0.00  0.00    +0.000 A 
ATOM     24  C   UNL     1      -0.164  10.211  18.285  0.00  0.00    +0.000 A 
ATOM     25  C   UNL     1      -0.633  10.358  19.592  0.00  0.00    +0.000 A 
ATOM     26  C   UNL     1       0.000   9.674  20.626  0.00  0.00    +0.000 A 
ATOM     27  C   UNL     1       1.104   8.864  20.356  0.00  0.00    +0.000 A 
ENDBRANCH  21  22
ENDBRANCH  20  21
ENDBRANCH  19  20
ENDBRANCH   7  19
TORSDOF 7
ENDMDL
