MODEL 1
REMARK VINA RESULT:      -7.6      0.000      0.000
REMARK  Name = 
REMARK  6 active torsions:
REMARK  status: ('A' for Active; 'I' for Inactive)
REMARK    1  A    between atoms: N_3  and  C_4
REMARK    2  A    between atoms: C_7  and  C_8
REMARK    3  A    between atoms: C_8  and  C_9
REMARK    4  A    between atoms: C_12  and  N_13
REMARK    5  A    between atoms: N_16  and  C_17
REMARK    6  A    between atoms: N_27  and  C_28
REMARK                            x       y       z     vdW  Elec       q    Type
REMARK                         _______ _______ _______ _____ _____    ______ ____
ROOT
ATOM      1  C   UNL     1       1.173   6.196  20.898  0.00  0.00    +0.000 C 
ENDROOT
BRANCH   1   5
ATOM      2  C   UNL     1       0.810  10.396  19.874  0.00  0.00    +0.000 A 
ATOM      3  C   UNL     1       1.562   9.516  19.090  0.00  0.00    +0.000 A 
ATOM      4  C   UNL     1       1.689   8.169  19.433  0.00  0.00    +0.000 A 
ATOM      5  C   UNL     1       1.077   7.669  20.581  0.00  0.00    +0.000 A 
ATOM      6  C   UNL     1       0.363   8.555  21.401  0.00  0.00    +0.000 A 
ATOM      7  C   UNL     1       0.235   9.908  21.054  0.00  0.00    +0.000 A 
BRANCH   2  10
ATOM      8  O   UNL     1       2.178  12.727  20.900  0.00  0.00    +0.000 OA
ATOM      9  C   UNL     1       1.279  12.830  20.071  0.00  0.00    +0.000 C 
ATOM     10  N   UNL     1       0.591  11.750  19.526  0.00  0.00    +0.000 N 
ATOM     11  N   UNL     1       0.844  14.035  19.549  0.00  0.00    +0.000 N 
ATOM     12  H   UNL     1       0.055  11.920  18.695  0.00  0.00    +0.000 HD
ATOM     13  H   UNL     1       0.020  14.017  18.967  0.00  0.00    +0.000 HD
BRANCH  11  14
ATOM     14  C   UNL     1       1.397  15.310  19.832  0.00  0.00    +0.000 A 
ATOM     15  C   UNL     1       1.054  16.089  20.937  0.00  0.00    +0.000 A 
ATOM     16  C   UNL     1       1.650  17.333  21.134  0.00  0.00    +0.000 A 
ATOM     17  C   UNL     1       2.589  17.766  20.216  0.00  0.00    +0.000 A 
ATOM     18  N   UNL     1       2.962  17.046  19.138  0.00  0.00    +0.000 NA
ATOM     19  C   UNL     1       2.358  15.842  18.973  0.00  0.00    +0.000 A 
ENDBRANCH  11  14
ENDBRANCH   2  10
ENDBRANCH   1   5
BRANCH   1  20
ATOM     20  C   UNL     1       2.139   5.418  20.037  0.00  0.00    +0.000 A 
ATOM     21  C   UNL     1       1.652   4.545  19.062  0.00  0.00    +0.000 A 
ATOM     22  C   UNL     1       2.525   3.906  18.181  0.00  0.00    +0.000 A 
ATOM     23  C   UNL     1       3.903   4.129  18.248  0.00  0.00    +0.000 A 
ATOM     24  C   UNL     1       4.406   4.929  19.276  0.00  0.00    +0.000 A 
ATOM     25  C   UNL     1       3.528   5.576  20.159  0.00  0.00    +0.000 A 
BRANCH  23  26
ATOM     26  N   UNL     1       4.802   3.572  17.306  0.00  0.00    +0.000 N 
ATOM     27  C   UNL     1       5.252   4.249  16.183  0.00  0.00    +0.000 C 
ATOM     28  O   UNL     1       5.030   5.429  15.936  0.00  0.00    +0.000 OA
ATOM     29  N   UNL     1       5.977   3.422  15.339  0.00  0.00    +0.000 N 
ATOM     30  H   UNL     1       5.391   2.816  17.624  0.00  0.00    +0.000 HD
ATOM     31  H   UNL     1       5.644   2.469  15.308  0.00  0.00    +0.000 HD
BRANCH  29  32
ATOM     32  C   UNL     1       6.538   3.939  14.147  0.00  0.00    +0.000 A 
ATOM     33  C   UNL     1       6.143   3.416  12.919  0.00  0.00    +0.000 A 
ATOM     34  C   UNL     1       6.645   3.975  11.744  0.00  0.00    +0.000 A 
ATOM     35  C   UNL     1       7.569   5.004  11.840  0.00  0.00    +0.000 A 
ATOM     36  N   UNL     1       8.005   5.511  13.011  0.00  0.00    +0.000 NA
ATOM     37  C   UNL     1       7.465   4.982  14.138  0.00  0.00    +0.000 A 
ENDBRANCH  29  32
ENDBRANCH  23  26
ENDBRANCH   1  20
TORSDOF 6
ENDMDL
MODEL 2
REMARK VINA RESULT:      -7.4      0.584      1.210
REMARK  Name = 
REMARK  6 active torsions:
REMARK  status: ('A' for Active; 'I' for Inactive)
REMARK    1  A    between atoms: N_3  and  C_4
REMARK    2  A    between atoms: C_7  and  C_8
REMARK    3  A    between atoms: C_8  and  C_9
REMARK    4  A    between atoms: C_12  and  N_13
REMARK    5  A    between atoms: N_16  and  C_17
REMARK    6  A    between atoms: N_27  and  C_28
REMARK                            x       y       z     vdW  Elec       q    Type
REMARK                         _______ _______ _______ _____ _____    ______ ____
ROOT
ATOM      1  C   UNL     1       1.327   6.198  20.895  0.00  0.00    +0.000 C 
ENDROOT
BRANCH   1   5
ATOM      2  C   UNL     1       0.781  10.368  19.829  0.00  0.00    +0.000 A 
ATOM      3  C   UNL     1       0.168   9.817  20.959  0.00  0.00    +0.000 A 
ATOM      4  C   UNL     1       0.334   8.471  21.288  0.00  0.00    +0.000 A 
ATOM      5  C   UNL     1       1.109   7.634  20.485  0.00  0.00    +0.000 A 
ATOM      6  C   UNL     1       1.685   8.166  19.323  0.00  0.00    +0.000 A 
ATOM      7  C   UNL     1       1.519   9.520  18.993  0.00  0.00    +0.000 A 
BRANCH   2  10
ATOM      8  O   UNL     1       2.074  12.582  21.162  0.00  0.00    +0.000 OA
ATOM      9  C   UNL     1       1.343  12.762  20.193  0.00  0.00    +0.000 C 
ATOM     10  N   UNL     1       0.703  11.741  19.497  0.00  0.00    +0.000 N 
ATOM     11  N   UNL     1       1.076  14.005  19.647  0.00  0.00    +0.000 N 
ATOM     12  H   UNL     1       0.333  11.966  18.592  0.00  0.00    +0.000 HD
ATOM     13  H   UNL     1       0.368  14.053  18.930  0.00  0.00    +0.000 HD
BRANCH  11  14
ATOM     14  C   UNL     1       1.641  15.235  20.069  0.00  0.00    +0.000 A 
ATOM     15  C   UNL     1       2.688  15.886  19.416  0.00  0.00    +0.000 A 
ATOM     16  C   UNL     1       3.180  17.095  19.906  0.00  0.00    +0.000 A 
ATOM     17  C   UNL     1       2.601  17.629  21.042  0.00  0.00    +0.000 A 
ATOM     18  N   UNL     1       1.581  17.044  21.703  0.00  0.00    +0.000 NA
ATOM     19  C   UNL     1       1.130  15.866  21.203  0.00  0.00    +0.000 A 
ENDBRANCH  11  14
ENDBRANCH   2  10
ENDBRANCH   1   5
BRANCH   1  20
ATOM     20  C   UNL     1       2.276   5.419  20.016  0.00  0.00    +0.000 A 
ATOM     21  C   UNL     1       1.769   4.538  19.058  0.00  0.00    +0.000 A 
ATOM     22  C   UNL     1       2.624   3.898  18.160  0.00  0.00    +0.000 A 
ATOM     23  C   UNL     1       4.001   4.125  18.193  0.00  0.00    +0.000 A 
ATOM     24  C   UNL     1       4.526   4.933  19.205  0.00  0.00    +0.000 A 
ATOM     25  C   UNL     1       3.667   5.582  20.105  0.00  0.00    +0.000 A 
BRANCH  23  26
ATOM     26  N   UNL     1       4.880   3.566  17.234  0.00  0.00    +0.000 N 
ATOM     27  C   UNL     1       5.318   4.246  16.108  0.00  0.00    +0.000 C 
ATOM     28  O   UNL     1       5.103   5.429  15.871  0.00  0.00    +0.000 OA
ATOM     29  N   UNL     1       6.022   3.417  15.247  0.00  0.00    +0.000 N 
ATOM     30  H   UNL     1       5.467   2.803  17.538  0.00  0.00    +0.000 HD
ATOM     31  H   UNL     1       5.680   2.467  15.216  0.00  0.00    +0.000 HD
BRANCH  29  32
ATOM     32  C   UNL     1       6.568   3.937  14.049  0.00  0.00    +0.000 A 
ATOM     33  C   UNL     1       6.169   3.406  12.826  0.00  0.00    +0.000 A 
ATOM     34  C   UNL     1       6.656   3.967  11.646  0.00  0.00    +0.000 A 
ATOM     35  C   UNL     1       7.570   5.005  11.731  0.00  0.00    +0.000 A 
ATOM     36  N   UNL     1       8.011   5.519  12.897  0.00  0.00    +0.000 NA
ATOM     37  C   UNL     1       7.485   4.989  14.030  0.00  0.00    +0.000 A 
ENDBRANCH  29  32
ENDBRANCH  23  26
ENDBRANCH   1  20
TORSDOF 6
ENDMDL
MODEL 3
REMARK VINA RESULT:      -7.4      4.852      6.962
REMARK  Name = 
REMARK  6 active torsions:
REMARK  status: ('A' for Active; 'I' for Inactive)
REMARK    1  A    between atoms: N_3  and  C_4
REMARK    2  A    between atoms: C_7  and  C_8
REMARK    3  A    between atoms: C_8  and  C_9
REMARK    4  A    between atoms: C_12  and  N_13
REMARK    5  A    between atoms: N_16  and  C_17
REMARK    6  A    between atoms: N_27  and  C_28
REMARK                            x       y       z     vdW  Elec       q    Type
REMARK                         _______ _______ _______ _____ _____    ______ ____
ROOT
ATOM      1  C   UNL     1       9.824  14.099  18.728  0.00  0.00    +0.000 C 
ENDROOT
BRANCH   1   5
ATOM      2  C   UNL     1       6.214  16.331  19.621  0.00  0.00    +0.000 A 
ATOM      3  C   UNL     1       7.011  16.645  18.515  0.00  0.00    +0.000 A 
ATOM      4  C   UNL     1       8.180  15.933  18.242  0.00  0.00    +0.000 A 
ATOM      5  C   UNL     1       8.592  14.896  19.078  0.00  0.00    +0.000 A 
ATOM      6  C   UNL     1       7.826  14.610  20.217  0.00  0.00    +0.000 A 
ATOM      7  C   UNL     1       6.650  15.324  20.490  0.00  0.00    +0.000 A 
BRANCH   2  10
ATOM      8  O   UNL     1       3.723  16.064  18.180  0.00  0.00    +0.000 OA
ATOM      9  C   UNL     1       3.820  16.810  19.149  0.00  0.00    +0.000 C 
ATOM     10  N   UNL     1       4.983  16.974  19.895  0.00  0.00    +0.000 N 
ATOM     11  N   UNL     1       2.777  17.572  19.645  0.00  0.00    +0.000 N 
ATOM     12  H   UNL     1       4.893  17.410  20.794  0.00  0.00    +0.000 HD
ATOM     13  H   UNL     1       2.996  18.241  20.368  0.00  0.00    +0.000 HD
BRANCH  11  14
ATOM     14  C   UNL     1       1.443  17.565  19.165  0.00  0.00    +0.000 A 
ATOM     15  C   UNL     1       1.025  18.197  17.993  0.00  0.00    +0.000 A 
ATOM     16  C   UNL     1      -0.311  18.138  17.599  0.00  0.00    +0.000 A 
ATOM     17  C   UNL     1      -1.200  17.436  18.391  0.00  0.00    +0.000 A 
ATOM     18  N   UNL     1      -0.844  16.801  19.527  0.00  0.00    +0.000 NA
ATOM     19  C   UNL     1       0.463  16.883  19.884  0.00  0.00    +0.000 A 
ENDBRANCH  11  14
ENDBRANCH   2  10
ENDBRANCH   1   5
BRANCH   1  20
ATOM     20  C   UNL     1       9.637  12.600  18.720  0.00  0.00    +0.000 A 
ATOM     21  C   UNL     1      10.246  11.820  19.705  0.00  0.00    +0.000 A 
ATOM     22  C   UNL     1       9.991  10.450  19.783  0.00  0.00    +0.000 A 
ATOM     23  C   UNL     1       9.118   9.830  18.887  0.00  0.00    +0.000 A 
ATOM     24  C   UNL     1       8.575  10.585  17.845  0.00  0.00    +0.000 A 
ATOM     25  C   UNL     1       8.827  11.963  17.768  0.00  0.00    +0.000 A 
BRANCH  23  26
ATOM     26  N   UNL     1       8.766   8.463  19.003  0.00  0.00    +0.000 N 
ATOM     27  C   UNL     1       7.950   7.802  18.097  0.00  0.00    +0.000 C 
ATOM     28  O   UNL     1       7.543   8.275  17.042  0.00  0.00    +0.000 OA
ATOM     29  N   UNL     1       7.618   6.529  18.536  0.00  0.00    +0.000 N 
ATOM     30  H   UNL     1       9.381   7.874  19.546  0.00  0.00    +0.000 HD
ATOM     31  H   UNL     1       7.501   6.454  19.536  0.00  0.00    +0.000 HD
BRANCH  29  32
ATOM     32  C   UNL     1       6.808   5.691  17.734  0.00  0.00    +0.000 A 
ATOM     33  C   UNL     1       5.426   5.706  17.904  0.00  0.00    +0.000 A 
ATOM     34  C   UNL     1       4.625   4.932  17.065  0.00  0.00    +0.000 A 
ATOM     35  C   UNL     1       5.239   4.124  16.120  0.00  0.00    +0.000 A 
ATOM     36  N   UNL     1       6.575   4.052  15.953  0.00  0.00    +0.000 NA
ATOM     37  C   UNL     1       7.329   4.852  16.748  0.00  0.00    +0.000 A 
ENDBRANCH  29  32
ENDBRANCH  23  26
ENDBRANCH   1  20
TORSDOF 6
ENDMDL
MODEL 4
REMARK VINA RESULT:      -7.4      4.289     10.251
REMARK  Name = 
REMARK  6 active torsions:
REMARK  status: ('A' for Active; 'I' for Inactive)
REMARK    1  A    between atoms: N_3  and  C_4
REMARK    2  A    between atoms: C_7  and  C_8
REMARK    3  A    between atoms: C_8  and  C_9
REMARK    4  A    between atoms: C_12  and  N_13
REMARK    5  A    between atoms: N_16  and  C_17
REMARK    6  A    between atoms: N_27  and  C_28
REMARK                            x       y       z     vdW  Elec       q    Type
REMARK                         _______ _______ _______ _____ _____    ______ ____
ROOT
ATOM      1  C   UNL     1       0.774  12.833  19.309  0.00  0.00    +0.000 C 
ENDROOT
BRANCH   1   5
ATOM      2  C   UNL     1       1.483   8.638  20.157  0.00  0.00    +0.000 A 
ATOM      3  C   UNL     1       1.658   9.163  18.872  0.00  0.00    +0.000 A 
ATOM      4  C   UNL     1       1.413  10.510  18.602  0.00  0.00    +0.000 A 
ATOM      5  C   UNL     1       0.971  11.367  19.609  0.00  0.00    +0.000 A 
ATOM      6  C   UNL     1       0.743  10.837  20.887  0.00  0.00    +0.000 A 
ATOM      7  C   UNL     1       0.992   9.484  21.159  0.00  0.00    +0.000 A 
BRANCH   2  10
ATOM      8  O   UNL     1       2.082   6.455  18.359  0.00  0.00    +0.000 OA
ATOM      9  C   UNL     1       2.057   6.289  19.575  0.00  0.00    +0.000 C 
ATOM     10  N   UNL     1       1.791   7.298  20.495  0.00  0.00    +0.000 N 
ATOM     11  N   UNL     1       2.314   5.080  20.195  0.00  0.00    +0.000 N 
ATOM     12  H   UNL     1       2.029   7.120  21.453  0.00  0.00    +0.000 HD
ATOM     13  H   UNL     1       2.148   5.025  21.188  0.00  0.00    +0.000 HD
BRANCH  11  14
ATOM     14  C   UNL     1       2.701   3.880  19.545  0.00  0.00    +0.000 A 
ATOM     15  C   UNL     1       1.975   3.269  18.522  0.00  0.00    +0.000 A 
ATOM     16  C   UNL     1       2.434   2.087  17.943  0.00  0.00    +0.000 A 
ATOM     17  C   UNL     1       3.621   1.548  18.400  0.00  0.00    +0.000 A 
ATOM     18  N   UNL     1       4.364   2.105  19.378  0.00  0.00    +0.000 NA
ATOM     19  C   UNL     1       3.886   3.252  19.924  0.00  0.00    +0.000 A 
ENDBRANCH  11  14
ENDBRANCH   2  10
ENDBRANCH   1   5
BRANCH   1  20
ATOM     20  C   UNL     1       2.031  13.668  19.348  0.00  0.00    +0.000 A 
ATOM     21  C   UNL     1       2.727  13.820  20.550  0.00  0.00    +0.000 A 
ATOM     22  C   UNL     1       3.950  14.490  20.582  0.00  0.00    +0.000 A 
ATOM     23  C   UNL     1       4.510  15.019  19.416  0.00  0.00    +0.000 A 
ATOM     24  C   UNL     1       3.779  14.951  18.228  0.00  0.00    +0.000 A 
ATOM     25  C   UNL     1       2.551  14.272  18.193  0.00  0.00    +0.000 A 
BRANCH  23  26
ATOM     26  N   UNL     1       5.794  15.617  19.402  0.00  0.00    +0.000 N 
ATOM     27  C   UNL     1       6.867  15.110  18.686  0.00  0.00    +0.000 C 
ATOM     28  O   UNL     1       6.809  14.173  17.898  0.00  0.00    +0.000 OA
ATOM     29  N   UNL     1       8.046  15.778  18.983  0.00  0.00    +0.000 N 
ATOM     30  H   UNL     1       5.845  16.600  19.627  0.00  0.00    +0.000 HD
ATOM     31  H   UNL     1       8.120  16.077  19.945  0.00  0.00    +0.000 HD
BRANCH  29  32
ATOM     32  C   UNL     1       9.250  15.416  18.334  0.00  0.00    +0.000 A 
ATOM     33  C   UNL     1       9.871  14.213  18.661  0.00  0.00    +0.000 A 
ATOM     34  C   UNL     1      11.019  13.827  17.970  0.00  0.00    +0.000 A 
ATOM     35  C   UNL     1      11.539  14.684  17.013  0.00  0.00    +0.000 A 
ATOM     36  N   UNL     1      10.988  15.874  16.697  0.00  0.00    +0.000 NA
ATOM     37  C   UNL     1       9.845  16.204  17.349  0.00  0.00    +0.000 A 
ENDBRANCH  29  32
ENDBRANCH  23  26
ENDBRANCH   1  20
TORSDOF 6
ENDMDL
MODEL 5
REMARK VINA RESULT:      -7.2      4.450     10.293
REMARK  Name = 
REMARK  6 active torsions:
REMARK  status: ('A' for Active; 'I' for Inactive)
REMARK    1  A    between atoms: N_3  and  C_4
REMARK    2  A    between atoms: C_7  and  C_8
REMARK    3  A    between atoms: C_8  and  C_9
REMARK    4  A    between atoms: C_12  and  N_13
REMARK    5  A    between atoms: N_16  and  C_17
REMARK    6  A    between atoms: N_27  and  C_28
REMARK                            x       y       z     vdW  Elec       q    Type
REMARK                         _______ _______ _______ _____ _____    ______ ____
ROOT
ATOM      1  C   UNL     1       0.957  13.304  18.713  0.00  0.00    +0.000 C 
ENDROOT
BRANCH   1   5
ATOM      2  C   UNL     1       1.444   9.189  19.994  0.00  0.00    +0.000 A 
ATOM      3  C   UNL     1       1.814   9.602  18.710  0.00  0.00    +0.000 A 
ATOM      4  C   UNL     1       1.640  10.924  18.298  0.00  0.00    +0.000 A 
ATOM      5  C   UNL     1       1.076  11.867  19.157  0.00  0.00    +0.000 A 
ATOM      6  C   UNL     1       0.655  11.449  20.427  0.00  0.00    +0.000 A 
ATOM      7  C   UNL     1       0.832  10.120  20.842  0.00  0.00    +0.000 A 
BRANCH   2  10
ATOM      8  O   UNL     1       2.238   6.855  18.485  0.00  0.00    +0.000 OA
ATOM      9  C   UNL     1       2.039   6.793  19.694  0.00  0.00    +0.000 C 
ATOM     10  N   UNL     1       1.670   7.879  20.482  0.00  0.00    +0.000 N 
ATOM     11  N   UNL     1       2.179   5.638  20.442  0.00  0.00    +0.000 N 
ATOM     12  H   UNL     1       1.768   7.780  21.475  0.00  0.00    +0.000 HD
ATOM     13  H   UNL     1       1.874   5.669  21.403  0.00  0.00    +0.000 HD
BRANCH  11  14
ATOM     14  C   UNL     1       2.625   4.383  19.955  0.00  0.00    +0.000 A 
ATOM     15  C   UNL     1       1.791   3.291  19.710  0.00  0.00    +0.000 A 
ATOM     16  C   UNL     1       2.321   2.094  19.232  0.00  0.00    +0.000 A 
ATOM     17  C   UNL     1       3.681   2.022  19.001  0.00  0.00    +0.000 A 
ATOM     18  N   UNL     1       4.527   3.051  19.212  0.00  0.00    +0.000 NA
ATOM     19  C   UNL     1       3.980   4.200  19.683  0.00  0.00    +0.000 A 
ENDBRANCH  11  14
ENDBRANCH   2  10
ENDBRANCH   1   5
BRANCH   1  20
ATOM     20  C   UNL     1       2.228  14.114  18.818  0.00  0.00    +0.000 A 
ATOM     21  C   UNL     1       2.998  14.048  19.981  0.00  0.00    +0.000 A 
ATOM     22  C   UNL     1       4.232  14.697  20.053  0.00  0.00    +0.000 A 
ATOM     23  C   UNL     1       4.727  15.420  18.965  0.00  0.00    +0.000 A 
ATOM     24  C   UNL     1       3.923  15.566  17.832  0.00  0.00    +0.000 A 
ATOM     25  C   UNL     1       2.685  14.910  17.757  0.00  0.00    +0.000 A 
BRANCH  23  26
ATOM     26  N   UNL     1       6.016  16.006  18.974  0.00  0.00    +0.000 N 
ATOM     27  C   UNL     1       7.132  15.410  18.407  0.00  0.00    +0.000 C 
ATOM     28  O   UNL     1       7.118  14.385  17.735  0.00  0.00    +0.000 OA
ATOM     29  N   UNL     1       8.295  16.102  18.709  0.00  0.00    +0.000 N 
ATOM     30  H   UNL     1       6.065  17.009  19.083  0.00  0.00    +0.000 HD
ATOM     31  H   UNL     1       8.302  16.516  19.631  0.00  0.00    +0.000 HD
BRANCH  29  32
ATOM     32  C   UNL     1       9.539  15.659  18.200  0.00  0.00    +0.000 A 
ATOM     33  C   UNL     1      10.144  16.360  17.161  0.00  0.00    +0.000 A 
ATOM     34  C   UNL     1      11.402  15.961  16.709  0.00  0.00    +0.000 A 
ATOM     35  C   UNL     1      11.987  14.839  17.275  0.00  0.00    +0.000 A 
ATOM     36  N   UNL     1      11.414  14.111  18.255  0.00  0.00    +0.000 NA
ATOM     37  C   UNL     1      10.213  14.549  18.711  0.00  0.00    +0.000 A 
ENDBRANCH  29  32
ENDBRANCH  23  26
ENDBRANCH   1  20
TORSDOF 6
ENDMDL
MODEL 6
REMARK VINA RESULT:      -7.1      4.248     10.349
REMARK  Name = 
REMARK  6 active torsions:
REMARK  status: ('A' for Active; 'I' for Inactive)
REMARK    1  A    between atoms: N_3  and  C_4
REMARK    2  A    between atoms: C_7  and  C_8
REMARK    3  A    between atoms: C_8  and  C_9
REMARK    4  A    between atoms: C_12  and  N_13
REMARK    5  A    between atoms: N_16  and  C_17
REMARK    6  A    between atoms: N_27  and  C_28
REMARK                            x       y       z     vdW  Elec       q    Type
REMARK                         _______ _______ _______ _____ _____    ______ ____
ROOT
ATOM      1  C   UNL     1       0.714  14.303  19.403  0.00  0.00    +0.000 C 
ENDROOT
BRANCH   1   5
ATOM      2  C   UNL     1       1.179  10.009  19.809  0.00  0.00    +0.000 A 
ATOM      3  C   UNL     1       1.445  10.661  18.601  0.00  0.00    +0.000 A 
ATOM      4  C   UNL     1       1.279  12.040  18.471  0.00  0.00    +0.000 A 
ATOM      5  C   UNL     1       0.825  12.804  19.546  0.00  0.00    +0.000 A 
ATOM      6  C   UNL     1       0.506  12.151  20.745  0.00  0.00    +0.000 A 
ATOM      7  C   UNL     1       0.676  10.765  20.875  0.00  0.00    +0.000 A 
BRANCH   2  10
ATOM      8  O   UNL     1       2.574   8.176  18.064  0.00  0.00    +0.000 OA
ATOM      9  C   UNL     1       2.076   7.795  19.118  0.00  0.00    +0.000 C 
ATOM     10  N   UNL     1       1.405   8.626  20.010  0.00  0.00    +0.000 N 
ATOM     11  N   UNL     1       2.135   6.491  19.574  0.00  0.00    +0.000 N 
ATOM     12  H   UNL     1       1.251   8.275  20.937  0.00  0.00    +0.000 HD
ATOM     13  H   UNL     1       1.590   6.260  20.391  0.00  0.00    +0.000 HD
BRANCH  11  14
ATOM     14  C   UNL     1       2.820   5.421  18.942  0.00  0.00    +0.000 A 
ATOM     15  C   UNL     1       2.275   4.621  17.937  0.00  0.00    +0.000 A 
ATOM     16  C   UNL     1       3.024   3.590  17.375  0.00  0.00    +0.000 A 
ATOM     17  C   UNL     1       4.314   3.389  17.829  0.00  0.00    +0.000 A 
ATOM     18  N   UNL     1       4.889   4.141  18.790  0.00  0.00    +0.000 NA
ATOM     19  C   UNL     1       4.130   5.133  19.321  0.00  0.00    +0.000 A 
ENDBRANCH  11  14
ENDBRANCH   2  10
ENDBRANCH   1   5
BRANCH   1  20
ATOM     20  C   UNL     1       2.029  15.043  19.382  0.00  0.00    +0.000 A 
ATOM     21  C   UNL     1       2.960  14.834  20.402  0.00  0.00    +0.000 A 
ATOM     22  C   UNL     1       4.225  15.419  20.340  0.00  0.00    +0.000 A 
ATOM     23  C   UNL     1       4.593  16.220  19.257  0.00  0.00    +0.000 A 
ATOM     24  C   UNL     1       3.639  16.508  18.278  0.00  0.00    +0.000 A 
ATOM     25  C   UNL     1       2.368  15.916  18.337  0.00  0.00    +0.000 A 
BRANCH  23  26
ATOM     26  N   UNL     1       5.901  16.746  19.119  0.00  0.00    +0.000 N 
ATOM     27  C   UNL     1       6.969  16.021  18.616  0.00  0.00    +0.000 C 
ATOM     28  O   UNL     1       6.890  14.901  18.124  0.00  0.00    +0.000 OA
ATOM     29  N   UNL     1       8.167  16.705  18.754  0.00  0.00    +0.000 N 
ATOM     30  H   UNL     1       5.988  17.751  19.058  0.00  0.00    +0.000 HD
ATOM     31  H   UNL     1       8.230  17.264  19.593  0.00  0.00    +0.000 HD
BRANCH  29  32
ATOM     32  C   UNL     1       9.371  16.133  18.277  0.00  0.00    +0.000 A 
ATOM     33  C   UNL     1       9.959  16.637  17.121  0.00  0.00    +0.000 A 
ATOM     34  C   UNL     1      11.181  16.118  16.693  0.00  0.00    +0.000 A 
ATOM     35  C   UNL     1      11.746  15.073  17.408  0.00  0.00    +0.000 A 
ATOM     36  N   UNL     1      11.187  14.533  18.510  0.00  0.00    +0.000 NA
ATOM     37  C   UNL     1      10.023  15.088  18.933  0.00  0.00    +0.000 A 
ENDBRANCH  29  32
ENDBRANCH  23  26
ENDBRANCH   1  20
TORSDOF 6
ENDMDL
MODEL 7
REMARK VINA RESULT:      -7.1      4.256      7.068
REMARK  Name = 
REMARK  6 active torsions:
REMARK  status: ('A' for Active; 'I' for Inactive)
REMARK    1  A    between atoms: N_3  and  C_4
REMARK    2  A    between atoms: C_7  and  C_8
REMARK    3  A    between atoms: C_8  and  C_9
REMARK    4  A    between atoms: C_12  and  N_13
REMARK    5  A    between atoms: N_16  and  C_17
REMARK    6  A    between atoms: N_27  and  C_28
REMARK                            x       y       z     vdW  Elec       q    Type
REMARK                         _______ _______ _______ _____ _____    ______ ____
ROOT
ATOM      1  C   UNL     1       0.653  12.925  19.752  0.00  0.00    +0.000 C 
ENDROOT
BRANCH   1   5
ATOM      2  C   UNL     1       4.313  15.158  19.090  0.00  0.00    +0.000 A 
ATOM      3  C   UNL     1       3.430  14.875  18.042  0.00  0.00    +0.000 A 
ATOM      4  C   UNL     1       2.262  14.143  18.258  0.00  0.00    +0.000 A 
ATOM      5  C   UNL     1       1.952  13.659  19.529  0.00  0.00    +0.000 A 
ATOM      6  C   UNL     1       2.857  13.894  20.574  0.00  0.00    +0.000 A 
ATOM      7  C   UNL     1       4.030  14.632  20.357  0.00  0.00    +0.000 A 
BRANCH   2  10
ATOM      8  O   UNL     1       6.949  14.314  18.257  0.00  0.00    +0.000 OA
ATOM      9  C   UNL     1       6.716  15.485  18.541  0.00  0.00    +0.000 C 
ATOM     10  N   UNL     1       5.468  15.960  18.934  0.00  0.00    +0.000 N 
ATOM     11  N   UNL     1       7.659  16.495  18.487  0.00  0.00    +0.000 N 
ATOM     12  H   UNL     1       5.327  16.952  18.909  0.00  0.00    +0.000 HD
ATOM     13  H   UNL     1       7.394  17.396  18.857  0.00  0.00    +0.000 HD
BRANCH  11  14
ATOM     14  C   UNL     1       8.998  16.357  18.042  0.00  0.00    +0.000 A 
ATOM     15  C   UNL     1       9.788  17.412  17.581  0.00  0.00    +0.000 A 
ATOM     16  C   UNL     1      11.097  17.180  17.162  0.00  0.00    +0.000 A 
ATOM     17  C   UNL     1      11.589  15.890  17.223  0.00  0.00    +0.000 A 
ATOM     18  N   UNL     1      10.869  14.839  17.669  0.00  0.00    +0.000 NA
ATOM     19  C   UNL     1       9.597  15.099  18.064  0.00  0.00    +0.000 A 
ENDBRANCH  11  14
ENDBRANCH   2  10
ENDBRANCH   1   5
BRANCH   1  20
ATOM     20  C   UNL     1       0.794  11.460  20.087  0.00  0.00    +0.000 A 
ATOM     21  C   UNL     1       1.152  10.551  19.089  0.00  0.00    +0.000 A 
ATOM     22  C   UNL     1       1.400   9.214  19.402  0.00  0.00    +0.000 A 
ATOM     23  C   UNL     1       1.304   8.755  20.718  0.00  0.00    +0.000 A 
ATOM     24  C   UNL     1       0.860   9.636  21.707  0.00  0.00    +0.000 A 
ATOM     25  C   UNL     1       0.615  10.981  21.394  0.00  0.00    +0.000 A 
BRANCH  23  26
ATOM     26  N   UNL     1       1.645   7.429  21.080  0.00  0.00    +0.000 N 
ATOM     27  C   UNL     1       1.980   6.447  20.161  0.00  0.00    +0.000 C 
ATOM     28  O   UNL     1       2.139   6.631  18.959  0.00  0.00    +0.000 OA
ATOM     29  N   UNL     1       2.095   5.200  20.758  0.00  0.00    +0.000 N 
ATOM     30  H   UNL     1       1.985   7.282  22.019  0.00  0.00    +0.000 HD
ATOM     31  H   UNL     1       1.447   5.044  21.516  0.00  0.00    +0.000 HD
BRANCH  29  32
ATOM     32  C   UNL     1       2.453   4.072  19.983  0.00  0.00    +0.000 A 
ATOM     33  C   UNL     1       3.797   3.743  19.829  0.00  0.00    +0.000 A 
ATOM     34  C   UNL     1       4.142   2.591  19.123  0.00  0.00    +0.000 A 
ATOM     35  C   UNL     1       3.132   1.836  18.548  0.00  0.00    +0.000 A 
ATOM     36  N   UNL     1       1.823   2.144  18.641  0.00  0.00    +0.000 NA
ATOM     37  C   UNL     1       1.510   3.242  19.374  0.00  0.00    +0.000 A 
ENDBRANCH  29  32
ENDBRANCH  23  26
ENDBRANCH   1  20
TORSDOF 6
ENDMDL
MODEL 8
REMARK VINA RESULT:      -7.0      0.633     11.013
REMARK  Name = 
REMARK  6 active torsions:
REMARK  status: ('A' for Active; 'I' for Inactive)
REMARK    1  A    between atoms: N_3  and  C_4
REMARK    2  A    between atoms: C_7  and  C_8
REMARK    3  A    between atoms: C_8  and  C_9
REMARK    4  A    between atoms: C_12  and  N_13
REMARK    5  A    between atoms: N_16  and  C_17
REMARK    6  A    between atoms: N_27  and  C_28
REMARK                            x       y       z     vdW  Elec       q    Type
REMARK                         _______ _______ _______ _____ _____    ______ ____
ROOT
ATOM      1  C   UNL     1       1.152   6.573  21.174  0.00  0.00    +0.000 C 
ENDROOT
BRANCH   1   5
ATOM      2  C   UNL     1       3.559   4.447  18.258  0.00  0.00    +0.000 A 
ATOM      3  C   UNL     1       2.171   4.290  18.312  0.00  0.00    +0.000 A 
ATOM      4  C   UNL     1       1.403   4.964  19.262  0.00  0.00    +0.000 A 
ATOM      5  C   UNL     1       2.008   5.804  20.197  0.00  0.00    +0.000 A 
ATOM      6  C   UNL     1       3.404   5.928  20.182  0.00  0.00    +0.000 A 
ATOM      7  C   UNL     1       4.175   5.252  19.224  0.00  0.00    +0.000 A 
BRANCH   2  10
ATOM      8  O   UNL     1       4.706   5.695  15.916  0.00  0.00    +0.000 OA
ATOM      9  C   UNL     1       4.879   4.503  16.151  0.00  0.00    +0.000 C 
ATOM     10  N   UNL     1       4.369   3.845  17.265  0.00  0.00    +0.000 N 
ATOM     11  N   UNL     1       5.626   3.658  15.350  0.00  0.00    +0.000 N 
ATOM     12  H   UNL     1       4.762   2.949  17.488  0.00  0.00    +0.000 HD
ATOM     13  H   UNL     1       5.603   2.674  15.568  0.00  0.00    +0.000 HD
BRANCH  11  14
ATOM     14  C   UNL     1       6.348   4.038  14.189  0.00  0.00    +0.000 A 
ATOM     15  C   UNL     1       6.170   3.466  12.929  0.00  0.00    +0.000 A 
ATOM     16  C   UNL     1       6.928   3.904  11.844  0.00  0.00    +0.000 A 
ATOM     17  C   UNL     1       7.845   4.918  12.049  0.00  0.00    +0.000 A 
ATOM     18  N   UNL     1       8.047   5.509  13.244  0.00  0.00    +0.000 NA
ATOM     19  C   UNL     1       7.297   5.055  14.280  0.00  0.00    +0.000 A 
ENDBRANCH  11  14
ENDBRANCH   2  10
ENDBRANCH   1   5
BRANCH   1  20
ATOM     20  C   UNL     1       0.913   8.020  20.815  0.00  0.00    +0.000 A 
ATOM     21  C   UNL     1       1.477   8.549  19.652  0.00  0.00    +0.000 A 
ATOM     22  C   UNL     1       1.174   9.849  19.244  0.00  0.00    +0.000 A 
ATOM     23  C   UNL     1       0.296  10.646  19.981  0.00  0.00    +0.000 A 
ATOM     24  C   UNL     1      -0.202  10.158  21.191  0.00  0.00    +0.000 A 
ATOM     25  C   UNL     1       0.098   8.850  21.601  0.00  0.00    +0.000 A 
BRANCH  23  26
ATOM     26  N   UNL     1      -0.106  11.931  19.540  0.00  0.00    +0.000 N 
ATOM     27  C   UNL     1       0.586  13.094  19.837  0.00  0.00    +0.000 C 
ATOM     28  O   UNL     1       1.673  13.142  20.401  0.00  0.00    +0.000 OA
ATOM     29  N   UNL     1      -0.111  14.225  19.438  0.00  0.00    +0.000 N 
ATOM     30  H   UNL     1      -0.696  11.971  18.721  0.00  0.00    +0.000 HD
ATOM     31  H   UNL     1      -1.114  14.145  19.528  0.00  0.00    +0.000 HD
BRANCH  29  32
ATOM     32  C   UNL     1       0.446  15.510  19.638  0.00  0.00    +0.000 A 
ATOM     33  C   UNL     1       0.100  16.239  20.772  0.00  0.00    +0.000 A 
ATOM     34  C   UNL     1       0.704  17.475  21.002  0.00  0.00    +0.000 A 
ATOM     35  C   UNL     1       1.593  17.965  20.058  0.00  0.00    +0.000 A 
ATOM     36  N   UNL     1       1.924  17.306  18.929  0.00  0.00    +0.000 NA
ATOM     37  C   UNL     1       1.360  16.085  18.754  0.00  0.00    +0.000 A 
ENDBRANCH  29  32
ENDBRANCH  23  26
ENDBRANCH   1  20
TORSDOF 6
ENDMDL
MODEL 9
REMARK VINA RESULT:      -7.0      1.799      2.238
REMARK  Name = 
REMARK  6 active torsions:
REMARK  status: ('A' for Active; 'I' for Inactive)
REMARK    1  A    between atoms: N_3  and  C_4
REMARK    2  A    between atoms: C_7  and  C_8
REMARK    3  A    between atoms: C_8  and  C_9
REMARK    4  A    between atoms: C_12  and  N_13
REMARK    5  A    between atoms: N_16  and  C_17
REMARK    6  A    between atoms: N_27  and  C_28
REMARK                            x       y       z     vdW  Elec       q    Type
REMARK                         _______ _______ _______ _____ _____    ______ ____
ROOT
ATOM      1  C   UNL     1       0.745   7.635  20.933  0.00  0.00    +0.000 C 
ENDROOT
BRANCH   1   5
ATOM      2  C   UNL     1       0.205  11.905  20.390  0.00  0.00    +0.000 A 
ATOM      3  C   UNL     1      -0.454  10.977  19.578  0.00  0.00    +0.000 A 
ATOM      4  C   UNL     1      -0.265   9.605  19.746  0.00  0.00    +0.000 A 
ATOM      5  C   UNL     1       0.604   9.124  20.726  0.00  0.00    +0.000 A 
ATOM      6  C   UNL     1       1.308  10.049  21.510  0.00  0.00    +0.000 A 
ATOM      7  C   UNL     1       1.115  11.428  21.341  0.00  0.00    +0.000 A 
BRANCH   2  10
ATOM      8  O   UNL     1       1.093  13.711  18.316  0.00  0.00    +0.000 OA
ATOM      9  C   UNL     1       0.456  14.117  19.282  0.00  0.00    +0.000 C 
ATOM     10  N   UNL     1      -0.014  13.301  20.306  0.00  0.00    +0.000 N 
ATOM     11  N   UNL     1       0.098  15.440  19.471  0.00  0.00    +0.000 N 
ATOM     12  H   UNL     1      -0.718  13.683  20.911  0.00  0.00    +0.000 HD
ATOM     13  H   UNL     1      -0.319  15.684  20.357  0.00  0.00    +0.000 HD
BRANCH  11  14
ATOM     14  C   UNL     1       0.349  16.505  18.568  0.00  0.00    +0.000 A 
ATOM     15  C   UNL     1      -0.642  17.192  17.866  0.00  0.00    +0.000 A 
ATOM     16  C   UNL     1      -0.300  18.226  16.997  0.00  0.00    +0.000 A 
ATOM     17  C   UNL     1       1.035  18.555  16.858  0.00  0.00    +0.000 A 
ATOM     18  N   UNL     1       2.028  17.928  17.522  0.00  0.00    +0.000 NA
ATOM     19  C   UNL     1       1.661  16.922  18.355  0.00  0.00    +0.000 A 
ENDBRANCH  11  14
ENDBRANCH   2  10
ENDBRANCH   1   5
BRANCH   1  20
ATOM     20  C   UNL     1       1.785   6.964  20.068  0.00  0.00    +0.000 A 
ATOM     21  C   UNL     1       2.319   7.643  18.970  0.00  0.00    +0.000 A 
ATOM     22  C   UNL     1       3.362   7.086  18.230  0.00  0.00    +0.000 A 
ATOM     23  C   UNL     1       3.900   5.843  18.570  0.00  0.00    +0.000 A 
ATOM     24  C   UNL     1       3.314   5.117  19.609  0.00  0.00    +0.000 A 
ATOM     25  C   UNL     1       2.268   5.679  20.358  0.00  0.00    +0.000 A 
BRANCH  23  26
ATOM     26  N   UNL     1       5.021   5.299  17.898  0.00  0.00    +0.000 N 
ATOM     27  C   UNL     1       5.196   5.363  16.524  0.00  0.00    +0.000 C 
ATOM     28  O   UNL     1       4.481   5.991  15.752  0.00  0.00    +0.000 OA
ATOM     29  N   UNL     1       6.278   4.603  16.107  0.00  0.00    +0.000 N 
ATOM     30  H   UNL     1       5.864   5.170  18.439  0.00  0.00    +0.000 HD
ATOM     31  H   UNL     1       6.418   3.756  16.639  0.00  0.00    +0.000 HD
BRANCH  29  32
ATOM     32  C   UNL     1       6.630   4.560  14.736  0.00  0.00    +0.000 A 
ATOM     33  C   UNL     1       7.597   5.435  14.249  0.00  0.00    +0.000 A 
ATOM     34  C   UNL     1       7.991   5.343  12.914  0.00  0.00    +0.000 A 
ATOM     35  C   UNL     1       7.364   4.414  12.098  0.00  0.00    +0.000 A 
ATOM     36  N   UNL     1       6.396   3.577  12.525  0.00  0.00    +0.000 NA
ATOM     37  C   UNL     1       6.065   3.654  13.838  0.00  0.00    +0.000 A 
ENDBRANCH  29  32
ENDBRANCH  23  26
ENDBRANCH   1  20
TORSDOF 6
ENDMDL
