MODEL 1
REMARK VINA RESULT:      -8.6      0.000      0.000
REMARK  Name = 
REMARK  6 active torsions:
REMARK  status: ('A' for Active; 'I' for Inactive)
REMARK    1  A    between atoms: C_1  and  C_2
REMARK    2  A    between atoms: C_2  and  C_3
REMARK    3  A    between atoms: C_2  and  O_4
REMARK    4  A    between atoms: O_4  and  C_5
REMARK    5  A    between atoms: C_7  and  C_8
REMARK    6  A    between atoms: N_21  and  C_22
REMARK                            x       y       z     vdW  Elec       q    Type
REMARK                         _______ _______ _______ _____ _____    ______ ____
ROOT
ATOM      1  C   UNL     1       2.752   6.034  19.674  0.00  0.00    +0.000 A 
ATOM      2  N   UNL     1       3.770   5.455  19.018  0.00  0.00    +0.000 NA
ATOM      3  C   UNL     1       4.236   6.124  17.950  0.00  0.00    +0.000 A 
ATOM      4  N   UNL     1       3.731   7.289  17.495  0.00  0.00    +0.000 NA
ATOM      5  C   UNL     1       2.705   7.832  18.179  0.00  0.00    +0.000 A 
ATOM      6  C   UNL     1       2.172   7.233  19.301  0.00  0.00    +0.000 A 
ATOM      7  C   UNL     1       1.052   7.852  20.071  0.00  0.00    +0.000 C 
ATOM      8  N   UNL     1       0.851   9.274  19.765  0.00  0.00    +0.000 N 
ATOM      9  C   UNL     1       0.341  10.037  20.805  0.00  0.00    +0.000 C 
ATOM     10  O   UNL     1       0.105   9.506  21.888  0.00  0.00    +0.000 OA
ATOM     11  N   UNL     1       0.146  11.377  20.563  0.00  0.00    +0.000 N 
ATOM     12  C   UNL     1       0.927   9.620  18.346  0.00  0.00    +0.000 C 
ATOM     13  C   UNL     1       2.265   9.202  17.743  0.00  0.00    +0.000 C 
ATOM     14  H   UNL     1       0.022  11.673  19.611  0.00  0.00    +0.000 HD
ENDROOT
BRANCH   3  15
ATOM     15  C   UNL     1       5.462   5.635  17.301  0.00  0.00    +0.000 A 
ATOM     16  C   UNL     1       5.594   5.589  15.907  0.00  0.00    +0.000 A 
ATOM     17  C   UNL     1       6.740   5.040  15.354  0.00  0.00    +0.000 A 
ATOM     18  N   UNL     1       7.761   4.542  16.081  0.00  0.00    +0.000 NA
ATOM     19  C   UNL     1       7.635   4.604  17.421  0.00  0.00    +0.000 A 
ATOM     20  C   UNL     1       6.531   5.136  18.062  0.00  0.00    +0.000 A 
ENDBRANCH   3  15
BRANCH  11  21
ATOM     21  C   UNL     1      -0.240  12.316  21.555  0.00  0.00    +0.000 A 
ATOM     22  C   UNL     1      -1.246  12.061  22.493  0.00  0.00    +0.000 A 
ATOM     23  C   UNL     1      -1.660  13.043  23.393  0.00  0.00    +0.000 A 
ATOM     24  C   UNL     1      -1.046  14.290  23.387  0.00  0.00    +0.000 A 
ATOM     25  C   UNL     1      -0.000  14.540  22.499  0.00  0.00    +0.000 A 
ATOM     26  C   UNL     1       0.410  13.554  21.593  0.00  0.00    +0.000 A 
ENDBRANCH  11  21
BRANCH   1  27
ATOM     27  O   UNL     1       2.223   5.381  20.769  0.00  0.00    +0.000 OA
BRANCH  27  29
ATOM     28  C   UNL     1       2.180   3.331  21.982  0.00  0.00    +0.000 C 
ATOM     29  C   UNL     1       2.059   3.965  20.596  0.00  0.00    +0.000 C 
ATOM     30  C   UNL     1       0.683   3.660  20.011  0.00  0.00    +0.000 C 
ENDBRANCH  27  29
ENDBRANCH   1  27
TORSDOF 4
ENDMDL
MODEL 2
REMARK VINA RESULT:      -8.2      0.137      1.255
REMARK  Name = 
REMARK  6 active torsions:
REMARK  status: ('A' for Active; 'I' for Inactive)
REMARK    1  A    between atoms: C_1  and  C_2
REMARK    2  A    between atoms: C_2  and  C_3
REMARK    3  A    between atoms: C_2  and  O_4
REMARK    4  A    between atoms: O_4  and  C_5
REMARK    5  A    between atoms: C_7  and  C_8
REMARK    6  A    between atoms: N_21  and  C_22
REMARK                            x       y       z     vdW  Elec       q    Type
REMARK                         _______ _______ _______ _____ _____    ______ ____
ROOT
ATOM      1  C   UNL     1       2.670   6.024  19.654  0.00  0.00    +0.000 A 
ATOM      2  N   UNL     1       3.683   5.403  19.027  0.00  0.00    +0.000 NA
ATOM      3  C   UNL     1       4.184   6.037  17.955  0.00  0.00    +0.000 A 
ATOM      4  N   UNL     1       3.719   7.205  17.467  0.00  0.00    +0.000 NA
ATOM      5  C   UNL     1       2.698   7.790  18.123  0.00  0.00    +0.000 A 
ATOM      6  C   UNL     1       2.129   7.230  19.247  0.00  0.00    +0.000 A 
ATOM      7  C   UNL     1       1.015   7.895  19.985  0.00  0.00    +0.000 C 
ATOM      8  N   UNL     1       0.859   9.316  19.647  0.00  0.00    +0.000 N 
ATOM      9  C   UNL     1       0.353  10.113  20.662  0.00  0.00    +0.000 C 
ATOM     10  O   UNL     1       0.085   9.612  21.752  0.00  0.00    +0.000 OA
ATOM     11  N   UNL     1       0.199  11.454  20.389  0.00  0.00    +0.000 N 
ATOM     12  C   UNL     1       0.967   9.629  18.223  0.00  0.00    +0.000 C 
ATOM     13  C   UNL     1       2.303   9.162  17.650  0.00  0.00    +0.000 C 
ATOM     14  H   UNL     1       0.099  11.733  19.430  0.00  0.00    +0.000 HD
ENDROOT
BRANCH   3  15
ATOM     15  C   UNL     1       5.406   5.501  17.336  0.00  0.00    +0.000 A 
ATOM     16  C   UNL     1       6.474   5.018  18.105  0.00  0.00    +0.000 A 
ATOM     17  C   UNL     1       7.632   4.602  17.467  0.00  0.00    +0.000 A 
ATOM     18  N   UNL     1       7.803   4.624  16.129  0.00  0.00    +0.000 NA
ATOM     19  C   UNL     1       6.766   5.074  15.396  0.00  0.00    +0.000 A 
ATOM     20  C   UNL     1       5.572   5.507  15.942  0.00  0.00    +0.000 A 
ENDBRANCH   3  15
BRANCH  11  21
ATOM     21  C   UNL     1      -0.177  12.423  21.355  0.00  0.00    +0.000 A 
ATOM     22  C   UNL     1       0.448  13.670  21.466  0.00  0.00    +0.000 A 
ATOM     23  C   UNL     1       0.111  14.558  22.487  0.00  0.00    +0.000 A 
ATOM     24  C   UNL     1      -0.884  14.221  23.397  0.00  0.00    +0.000 A 
ATOM     25  C   UNL     1      -1.560  13.008  23.264  0.00  0.00    +0.000 A 
ATOM     26  C   UNL     1      -1.216  12.116  22.240  0.00  0.00    +0.000 A 
ENDBRANCH  11  21
BRANCH   1  27
ATOM     27  O   UNL     1       2.105   5.409  20.753  0.00  0.00    +0.000 OA
BRANCH  27  29
ATOM     28  C   UNL     1       2.180   3.405  22.040  0.00  0.00    +0.000 C 
ATOM     29  C   UNL     1       1.980   3.982  20.639  0.00  0.00    +0.000 C 
ATOM     30  C   UNL     1       0.591   3.613  20.126  0.00  0.00    +0.000 C 
ENDBRANCH  27  29
ENDBRANCH   1  27
TORSDOF 4
ENDMDL
MODEL 3
REMARK VINA RESULT:      -8.1      0.343      1.126
REMARK  Name = 
REMARK  6 active torsions:
REMARK  status: ('A' for Active; 'I' for Inactive)
REMARK    1  A    between atoms: C_1  and  C_2
REMARK    2  A    between atoms: C_2  and  C_3
REMARK    3  A    between atoms: C_2  and  O_4
REMARK    4  A    between atoms: O_4  and  C_5
REMARK    5  A    between atoms: C_7  and  C_8
REMARK    6  A    between atoms: N_21  and  C_22
REMARK                            x       y       z     vdW  Elec       q    Type
REMARK                         _______ _______ _______ _____ _____    ______ ____
ROOT
ATOM      1  C   UNL     1       2.819   6.057  19.901  0.00  0.00    +0.000 A 
ATOM      2  N   UNL     1       3.800   5.427  19.235  0.00  0.00    +0.000 NA
ATOM      3  C   UNL     1       4.209   6.016  18.100  0.00  0.00    +0.000 A 
ATOM      4  N   UNL     1       3.683   7.148  17.590  0.00  0.00    +0.000 NA
ATOM      5  C   UNL     1       2.696   7.744  18.287  0.00  0.00    +0.000 A 
ATOM      6  C   UNL     1       2.222   7.229  19.475  0.00  0.00    +0.000 A 
ATOM      7  C   UNL     1       1.145   7.908  20.257  0.00  0.00    +0.000 C 
ATOM      8  N   UNL     1       0.932   9.306  19.862  0.00  0.00    +0.000 N 
ATOM      9  C   UNL     1       0.479  10.143  20.870  0.00  0.00    +0.000 C 
ATOM     10  O   UNL     1       0.300   9.692  21.999  0.00  0.00    +0.000 OA
ATOM     11  N   UNL     1       0.274  11.464  20.543  0.00  0.00    +0.000 N 
ATOM     12  C   UNL     1       0.933   9.549  18.420  0.00  0.00    +0.000 C 
ATOM     13  C   UNL     1       2.236   9.082  17.777  0.00  0.00    +0.000 C 
ATOM     14  H   UNL     1       0.101  11.692  19.581  0.00  0.00    +0.000 HD
ENDROOT
BRANCH   3  15
ATOM     15  C   UNL     1       5.398   5.474  17.423  0.00  0.00    +0.000 A 
ATOM     16  C   UNL     1       6.490   4.965  18.139  0.00  0.00    +0.000 A 
ATOM     17  C   UNL     1       7.615   4.545  17.447  0.00  0.00    +0.000 A 
ATOM     18  N   UNL     1       7.732   4.588  16.105  0.00  0.00    +0.000 NA
ATOM     19  C   UNL     1       6.672   5.064  15.422  0.00  0.00    +0.000 A 
ATOM     20  C   UNL     1       5.507   5.502  16.024  0.00  0.00    +0.000 A 
ENDBRANCH   3  15
BRANCH  11  21
ATOM     21  C   UNL     1      -0.057  12.473  21.485  0.00  0.00    +0.000 A 
ATOM     22  C   UNL     1      -1.055  12.312  22.453  0.00  0.00    +0.000 A 
ATOM     23  C   UNL     1      -1.413  13.360  23.301  0.00  0.00    +0.000 A 
ATOM     24  C   UNL     1      -0.753  14.579  23.211  0.00  0.00    +0.000 A 
ATOM     25  C   UNL     1       0.285  14.737  22.293  0.00  0.00    +0.000 A 
ATOM     26  C   UNL     1       0.640  13.685  21.440  0.00  0.00    +0.000 A 
ENDBRANCH  11  21
BRANCH   1  27
ATOM     27  O   UNL     1       2.347   5.486  21.066  0.00  0.00    +0.000 OA
BRANCH  27  29
ATOM     28  C   UNL     1       1.397   4.121  19.360  0.00  0.00    +0.000 C 
ATOM     29  C   UNL     1       1.512   4.334  20.870  0.00  0.00    +0.000 C 
ATOM     30  C   UNL     1       2.148   3.105  21.514  0.00  0.00    +0.000 C 
ENDBRANCH  27  29
ENDBRANCH   1  27
TORSDOF 4
ENDMDL
MODEL 4
REMARK VINA RESULT:      -8.1      3.478      6.064
REMARK  Name = 
REMARK  6 active torsions:
REMARK  status: ('A' for Active; 'I' for Inactive)
REMARK    1  A    between atoms: C_1  and  C_2
REMARK    2  A    between atoms: C_2  and  C_3
REMARK    3  A    between atoms: C_2  and  O_4
REMARK    4  A    between atoms: O_4  and  C_5
REMARK    5  A    between atoms: C_7  and  C_8
REMARK    6  A    between atoms: N_21  and  C_22
REMARK                            x       y       z     vdW  Elec       q    Type
REMARK                         _______ _______ _______ _____ _____    ______ ____
ROOT
ATOM      1  C   UNL     1      -0.824  10.836  18.350  0.00  0.00    +0.000 A 
ATOM      2  N   UNL     1       0.115   9.908  18.106  0.00  0.00    +0.000 NA
ATOM      3  C   UNL     1       0.910   9.593  19.141  0.00  0.00    +0.000 A 
ATOM      4  N   UNL     1       0.844  10.164  20.361  0.00  0.00    +0.000 NA
ATOM      5  C   UNL     1      -0.108  11.095  20.561  0.00  0.00    +0.000 A 
ATOM      6  C   UNL     1      -0.988  11.472  19.568  0.00  0.00    +0.000 A 
ATOM      7  C   UNL     1      -2.058  12.486  19.802  0.00  0.00    +0.000 C 
ATOM      8  N   UNL     1      -2.321  12.737  21.225  0.00  0.00    +0.000 N 
ATOM      9  C   UNL     1      -3.621  13.113  21.529  0.00  0.00    +0.000 C 
ATOM     10  O   UNL     1      -4.454  13.200  20.630  0.00  0.00    +0.000 OA
ATOM     11  N   UNL     1      -3.911  13.350  22.854  0.00  0.00    +0.000 N 
ATOM     12  C   UNL     1      -1.129  12.852  22.064  0.00  0.00    +0.000 C 
ATOM     13  C   UNL     1      -0.259  11.602  21.969  0.00  0.00    +0.000 C 
ATOM     14  H   UNL     1      -3.156  13.601  23.466  0.00  0.00    +0.000 HD
ENDROOT
BRANCH   3  15
ATOM     15  C   UNL     1       1.835   8.459  18.990  0.00  0.00    +0.000 A 
ATOM     16  C   UNL     1       2.628   8.298  17.846  0.00  0.00    +0.000 A 
ATOM     17  C   UNL     1       3.418   7.166  17.724  0.00  0.00    +0.000 A 
ATOM     18  N   UNL     1       3.482   6.191  18.654  0.00  0.00    +0.000 NA
ATOM     19  C   UNL     1       2.729   6.359  19.758  0.00  0.00    +0.000 A 
ATOM     20  C   UNL     1       1.913   7.456  19.969  0.00  0.00    +0.000 A 
ENDBRANCH   3  15
BRANCH  11  21
ATOM     21  C   UNL     1      -5.216  13.611  23.346  0.00  0.00    +0.000 A 
ATOM     22  C   UNL     1      -6.107  12.598  23.714  0.00  0.00    +0.000 A 
ATOM     23  C   UNL     1      -7.413  12.892  24.107  0.00  0.00    +0.000 A 
ATOM     24  C   UNL     1      -7.836  14.214  24.167  0.00  0.00    +0.000 A 
ATOM     25  C   UNL     1      -6.942  15.240  23.862  0.00  0.00    +0.000 A 
ATOM     26  C   UNL     1      -5.633  14.942  23.464  0.00  0.00    +0.000 A 
ENDBRANCH  11  21
BRANCH   1  27
ATOM     27  O   UNL     1      -1.659  11.211  17.317  0.00  0.00    +0.000 OA
BRANCH  27  29
ATOM     28  C   UNL     1      -3.501   9.717  17.538  0.00  0.00    +0.000 C 
ATOM     29  C   UNL     1      -2.318  10.119  16.657  0.00  0.00    +0.000 C 
ATOM     30  C   UNL     1      -2.825  10.559  15.286  0.00  0.00    +0.000 C 
ENDBRANCH  27  29
ENDBRANCH   1  27
TORSDOF 4
ENDMDL
MODEL 5
REMARK VINA RESULT:      -7.9      3.446      6.081
REMARK  Name = 
REMARK  6 active torsions:
REMARK  status: ('A' for Active; 'I' for Inactive)
REMARK    1  A    between atoms: C_1  and  C_2
REMARK    2  A    between atoms: C_2  and  C_3
REMARK    3  A    between atoms: C_2  and  O_4
REMARK    4  A    between atoms: O_4  and  C_5
REMARK    5  A    between atoms: C_7  and  C_8
REMARK    6  A    between atoms: N_21  and  C_22
REMARK                            x       y       z     vdW  Elec       q    Type
REMARK                         _______ _______ _______ _____ _____    ______ ____
ROOT
ATOM      1  C   UNL     1      -0.777  10.704  18.283  0.00  0.00    +0.000 A 
ATOM      2  N   UNL     1       0.142   9.749  18.065  0.00  0.00    +0.000 NA
ATOM      3  C   UNL     1       0.908   9.421  19.118  0.00  0.00    +0.000 A 
ATOM      4  N   UNL     1       0.833  10.003  20.332  0.00  0.00    +0.000 NA
ATOM      5  C   UNL     1      -0.098  10.960  20.506  0.00  0.00    +0.000 A 
ATOM      6  C   UNL     1      -0.947  11.352  19.493  0.00  0.00    +0.000 A 
ATOM      7  C   UNL     1      -1.995  12.396  19.699  0.00  0.00    +0.000 C 
ATOM      8  N   UNL     1      -2.278  12.665  21.114  0.00  0.00    +0.000 N 
ATOM      9  C   UNL     1      -3.573  13.078  21.390  0.00  0.00    +0.000 C 
ATOM     10  O   UNL     1      -4.386  13.180  20.474  0.00  0.00    +0.000 OA
ATOM     11  N   UNL     1      -3.883  13.333  22.707  0.00  0.00    +0.000 N 
ATOM     12  C   UNL     1      -1.101  12.755  21.976  0.00  0.00    +0.000 C 
ATOM     13  C   UNL     1      -0.263  11.481  21.907  0.00  0.00    +0.000 C 
ATOM     14  H   UNL     1      -3.134  13.567  23.333  0.00  0.00    +0.000 HD
ENDROOT
BRANCH   3  15
ATOM     15  C   UNL     1       1.805   8.262  18.992  0.00  0.00    +0.000 A 
ATOM     16  C   UNL     1       1.923   7.303  20.008  0.00  0.00    +0.000 A 
ATOM     17  C   UNL     1       2.846   6.278  19.867  0.00  0.00    +0.000 A 
ATOM     18  N   UNL     1       3.650   6.134  18.794  0.00  0.00    +0.000 NA
ATOM     19  C   UNL     1       3.520   7.050  17.814  0.00  0.00    +0.000 A 
ATOM     20  C   UNL     1       2.626   8.104  17.865  0.00  0.00    +0.000 A 
ENDBRANCH   3  15
BRANCH  11  21
ATOM     21  C   UNL     1      -5.190  13.632  23.171  0.00  0.00    +0.000 A 
ATOM     22  C   UNL     1      -5.671  14.939  23.302  0.00  0.00    +0.000 A 
ATOM     23  C   UNL     1      -6.929  15.194  23.849  0.00  0.00    +0.000 A 
ATOM     24  C   UNL     1      -7.739  14.137  24.245  0.00  0.00    +0.000 A 
ATOM     25  C   UNL     1      -7.300  12.826  24.064  0.00  0.00    +0.000 A 
ATOM     26  C   UNL     1      -6.035  12.572  23.519  0.00  0.00    +0.000 A 
ENDBRANCH  11  21
BRANCH   1  27
ATOM     27  O   UNL     1      -1.580  11.093  17.231  0.00  0.00    +0.000 OA
BRANCH  27  29
ATOM     28  C   UNL     1      -3.463   9.664  17.532  0.00  0.00    +0.000 C 
ATOM     29  C   UNL     1      -2.302  10.021  16.604  0.00  0.00    +0.000 C 
ATOM     30  C   UNL     1      -2.847  10.471  15.251  0.00  0.00    +0.000 C 
ENDBRANCH  27  29
ENDBRANCH   1  27
TORSDOF 4
ENDMDL
MODEL 6
REMARK VINA RESULT:      -7.7      2.558      9.289
REMARK  Name = 
REMARK  6 active torsions:
REMARK  status: ('A' for Active; 'I' for Inactive)
REMARK    1  A    between atoms: C_1  and  C_2
REMARK    2  A    between atoms: C_2  and  C_3
REMARK    3  A    between atoms: C_2  and  O_4
REMARK    4  A    between atoms: O_4  and  C_5
REMARK    5  A    between atoms: C_7  and  C_8
REMARK    6  A    between atoms: N_21  and  C_22
REMARK                            x       y       z     vdW  Elec       q    Type
REMARK                         _______ _______ _______ _____ _____    ______ ____
ROOT
ATOM      1  C   UNL     1       2.704   5.420  19.607  0.00  0.00    +0.000 A 
ATOM      2  N   UNL     1       1.906   6.267  20.277  0.00  0.00    +0.000 NA
ATOM      3  C   UNL     1       1.945   7.549  19.879  0.00  0.00    +0.000 A 
ATOM      4  N   UNL     1       2.742   8.024  18.900  0.00  0.00    +0.000 NA
ATOM      5  C   UNL     1       3.531   7.141  18.258  0.00  0.00    +0.000 A 
ATOM      6  C   UNL     1       3.547   5.800  18.578  0.00  0.00    +0.000 A 
ATOM      7  C   UNL     1       4.405   4.822  17.846  0.00  0.00    +0.000 C 
ATOM      8  N   UNL     1       4.905   5.332  16.563  0.00  0.00    +0.000 N 
ATOM      9  C   UNL     1       5.125   4.370  15.589  0.00  0.00    +0.000 C 
ATOM     10  O   UNL     1       4.888   3.190  15.837  0.00  0.00    +0.000 OA
ATOM     11  N   UNL     1       5.586   4.807  14.368  0.00  0.00    +0.000 N 
ATOM     12  C   UNL     1       5.380   6.715  16.589  0.00  0.00    +0.000 C 
ATOM     13  C   UNL     1       4.292   7.668  17.072  0.00  0.00    +0.000 C 
ATOM     14  H   UNL     1       6.076   5.683  14.333  0.00  0.00    +0.000 HD
ENDROOT
BRANCH   3  15
ATOM     15  C   UNL     1       0.966   8.486  20.450  0.00  0.00    +0.000 A 
ATOM     16  C   UNL     1       0.552   9.635  19.762  0.00  0.00    +0.000 A 
ATOM     17  C   UNL     1      -0.310  10.523  20.386  0.00  0.00    +0.000 A 
ATOM     18  N   UNL     1      -0.793  10.350  21.633  0.00  0.00    +0.000 NA
ATOM     19  C   UNL     1      -0.404   9.236  22.283  0.00  0.00    +0.000 A 
ATOM     20  C   UNL     1       0.450   8.292  21.741  0.00  0.00    +0.000 A 
ENDBRANCH   3  15
BRANCH  11  21
ATOM     21  C   UNL     1       5.735   3.973  13.230  0.00  0.00    +0.000 A 
ATOM     22  C   UNL     1       4.647   3.471  12.507  0.00  0.00    +0.000 A 
ATOM     23  C   UNL     1       4.832   2.580  11.449  0.00  0.00    +0.000 A 
ATOM     24  C   UNL     1       6.117   2.202  11.080  0.00  0.00    +0.000 A 
ATOM     25  C   UNL     1       7.215   2.741  11.750  0.00  0.00    +0.000 A 
ATOM     26  C   UNL     1       7.026   3.632  12.814  0.00  0.00    +0.000 A 
ENDBRANCH  11  21
BRANCH   1  27
ATOM     27  O   UNL     1       2.717   4.093  19.986  0.00  0.00    +0.000 OA
BRANCH  27  29
ATOM     28  C   UNL     1       1.056   2.655  19.062  0.00  0.00    +0.000 C 
ATOM     29  C   UNL     1       1.419   3.538  20.256  0.00  0.00    +0.000 C 
ATOM     30  C   UNL     1       1.461   2.692  21.526  0.00  0.00    +0.000 C 
ENDBRANCH  27  29
ENDBRANCH   1  27
TORSDOF 4
ENDMDL
MODEL 7
REMARK VINA RESULT:      -7.7      2.757      9.573
REMARK  Name = 
REMARK  6 active torsions:
REMARK  status: ('A' for Active; 'I' for Inactive)
REMARK    1  A    between atoms: C_1  and  C_2
REMARK    2  A    between atoms: C_2  and  C_3
REMARK    3  A    between atoms: C_2  and  O_4
REMARK    4  A    between atoms: O_4  and  C_5
REMARK    5  A    between atoms: C_7  and  C_8
REMARK    6  A    between atoms: N_21  and  C_22
REMARK                            x       y       z     vdW  Elec       q    Type
REMARK                         _______ _______ _______ _____ _____    ______ ____
ROOT
ATOM      1  C   UNL     1       3.441   5.301  19.254  0.00  0.00    +0.000 A 
ATOM      2  N   UNL     1       2.617   6.129  19.916  0.00  0.00    +0.000 NA
ATOM      3  C   UNL     1       2.498   7.366  19.408  0.00  0.00    +0.000 A 
ATOM      4  N   UNL     1       3.165   7.820  18.327  0.00  0.00    +0.000 NA
ATOM      5  C   UNL     1       3.986   6.958  17.697  0.00  0.00    +0.000 A 
ATOM      6  C   UNL     1       4.160   5.660  18.128  0.00  0.00    +0.000 A 
ATOM      7  C   UNL     1       5.052   4.701  17.410  0.00  0.00    +0.000 C 
ATOM      8  N   UNL     1       5.398   5.133  16.050  0.00  0.00    +0.000 N 
ATOM      9  C   UNL     1       5.637   4.109  15.146  0.00  0.00    +0.000 C 
ATOM     10  O   UNL     1       5.539   2.940  15.514  0.00  0.00    +0.000 OA
ATOM     11  N   UNL     1       5.956   4.471  13.857  0.00  0.00    +0.000 N 
ATOM     12  C   UNL     1       5.734   6.550  15.917  0.00  0.00    +0.000 C 
ATOM     13  C   UNL     1       4.596   7.440  16.409  0.00  0.00    +0.000 C 
ATOM     14  H   UNL     1       6.352   5.382  13.706  0.00  0.00    +0.000 HD
ENDROOT
BRANCH   3  15
ATOM     15  C   UNL     1       1.477   8.258  19.978  0.00  0.00    +0.000 A 
ATOM     16  C   UNL     1       0.921   8.033  21.245  0.00  0.00    +0.000 A 
ATOM     17  C   UNL     1      -0.096   8.860  21.694  0.00  0.00    +0.000 A 
ATOM     18  N   UNL     1      -0.594   9.892  20.983  0.00  0.00    +0.000 NA
ATOM     19  C   UNL     1      -0.045  10.113  19.773  0.00  0.00    +0.000 A 
ATOM     20  C   UNL     1       0.975   9.344  19.243  0.00  0.00    +0.000 A 
ENDBRANCH   3  15
BRANCH  11  21
ATOM     21  C   UNL     1       6.098   3.552  12.786  0.00  0.00    +0.000 A 
ATOM     22  C   UNL     1       5.016   2.871  12.218  0.00  0.00    +0.000 A 
ATOM     23  C   UNL     1       5.208   1.907  11.228  0.00  0.00    +0.000 A 
ATOM     24  C   UNL     1       6.490   1.633  10.769  0.00  0.00    +0.000 A 
ATOM     25  C   UNL     1       7.574   2.346  11.281  0.00  0.00    +0.000 A 
ATOM     26  C   UNL     1       7.379   3.311  12.278  0.00  0.00    +0.000 A 
ENDBRANCH  11  21
BRANCH   1  27
ATOM     27  O   UNL     1       3.616   4.022  19.742  0.00  0.00    +0.000 OA
BRANCH  27  29
ATOM     28  C   UNL     1       2.293   2.149  19.093  0.00  0.00    +0.000 C 
ATOM     29  C   UNL     1       2.395   3.332  20.056  0.00  0.00    +0.000 C 
ATOM     30  C   UNL     1       2.432   2.822  21.493  0.00  0.00    +0.000 C 
ENDBRANCH  27  29
ENDBRANCH   1  27
TORSDOF 4
ENDMDL
MODEL 8
REMARK VINA RESULT:      -7.3      3.095      5.919
REMARK  Name = 
REMARK  6 active torsions:
REMARK  status: ('A' for Active; 'I' for Inactive)
REMARK    1  A    between atoms: C_1  and  C_2
REMARK    2  A    between atoms: C_2  and  C_3
REMARK    3  A    between atoms: C_2  and  O_4
REMARK    4  A    between atoms: O_4  and  C_5
REMARK    5  A    between atoms: C_7  and  C_8
REMARK    6  A    between atoms: N_21  and  C_22
REMARK                            x       y       z     vdW  Elec       q    Type
REMARK                         _______ _______ _______ _____ _____    ______ ____
ROOT
ATOM      1  C   UNL     1       0.705  10.661  19.519  0.00  0.00    +0.000 A 
ATOM      2  N   UNL     1       1.433   9.576  19.207  0.00  0.00    +0.000 NA
ATOM      3  C   UNL     1       1.420   8.582  20.109  0.00  0.00    +0.000 A 
ATOM      4  N   UNL     1       0.767   8.625  21.288  0.00  0.00    +0.000 NA
ATOM      5  C   UNL     1       0.054   9.734  21.565  0.00  0.00    +0.000 A 
ATOM      6  C   UNL     1      -0.013  10.800  20.693  0.00  0.00    +0.000 A 
ATOM      7  C   UNL     1      -0.826  12.016  20.993  0.00  0.00    +0.000 C 
ATOM      8  N   UNL     1      -1.808  11.811  22.065  0.00  0.00    +0.000 N 
ATOM      9  C   UNL     1      -2.956  12.583  21.971  0.00  0.00    +0.000 C 
ATOM     10  O   UNL     1      -3.091  13.357  21.027  0.00  0.00    +0.000 OA
ATOM     11  N   UNL     1      -3.907  12.415  22.952  0.00  0.00    +0.000 N 
ATOM     12  C   UNL     1      -1.316  11.063  23.221  0.00  0.00    +0.000 C 
ATOM     13  C   UNL     1      -0.786   9.692  22.811  0.00  0.00    +0.000 C 
ATOM     14  H   UNL     1      -3.610  12.055  23.842  0.00  0.00    +0.000 HD
ENDROOT
BRANCH   3  15
ATOM     15  C   UNL     1       2.047   7.302  19.745  0.00  0.00    +0.000 A 
ATOM     16  C   UNL     1       2.743   7.135  18.540  0.00  0.00    +0.000 A 
ATOM     17  C   UNL     1       3.241   5.883  18.215  0.00  0.00    +0.000 A 
ATOM     18  N   UNL     1       3.104   4.793  18.997  0.00  0.00    +0.000 NA
ATOM     19  C   UNL     1       2.448   4.964  20.161  0.00  0.00    +0.000 A 
ATOM     20  C   UNL     1       1.919   6.175  20.572  0.00  0.00    +0.000 A 
ENDBRANCH   3  15
BRANCH  11  21
ATOM     21  C   UNL     1      -5.188  13.025  22.930  0.00  0.00    +0.000 A 
ATOM     22  C   UNL     1      -6.226  12.587  22.101  0.00  0.00    +0.000 A 
ATOM     23  C   UNL     1      -7.441  13.271  22.042  0.00  0.00    +0.000 A 
ATOM     24  C   UNL     1      -7.644  14.390  22.840  0.00  0.00    +0.000 A 
ATOM     25  C   UNL     1      -6.641  14.805  23.716  0.00  0.00    +0.000 A 
ATOM     26  C   UNL     1      -5.421  14.119  23.771  0.00  0.00    +0.000 A 
ENDBRANCH  11  21
BRANCH   1  27
ATOM     27  O   UNL     1       0.696  11.720  18.635  0.00  0.00    +0.000 OA
BRANCH  27  29
ATOM     28  C   UNL     1       2.806  12.536  17.886  0.00  0.00    +0.000 C 
ATOM     29  C   UNL     1       1.683  12.729  18.905  0.00  0.00    +0.000 C 
ATOM     30  C   UNL     1       1.074  14.119  18.741  0.00  0.00    +0.000 C 
ENDBRANCH  27  29
ENDBRANCH   1  27
TORSDOF 4
ENDMDL
MODEL 9
REMARK VINA RESULT:      -7.3      2.603      9.407
REMARK  Name = 
REMARK  6 active torsions:
REMARK  status: ('A' for Active; 'I' for Inactive)
REMARK    1  A    between atoms: C_1  and  C_2
REMARK    2  A    between atoms: C_2  and  C_3
REMARK    3  A    between atoms: C_2  and  O_4
REMARK    4  A    between atoms: O_4  and  C_5
REMARK    5  A    between atoms: C_7  and  C_8
REMARK    6  A    between atoms: N_21  and  C_22
REMARK                            x       y       z     vdW  Elec       q    Type
REMARK                         _______ _______ _______ _____ _____    ______ ____
ROOT
ATOM      1  C   UNL     1       2.924   5.439  19.523  0.00  0.00    +0.000 A 
ATOM      2  N   UNL     1       2.142   6.314  20.177  0.00  0.00    +0.000 NA
ATOM      3  C   UNL     1       2.184   7.581  19.736  0.00  0.00    +0.000 A 
ATOM      4  N   UNL     1       2.969   8.018  18.730  0.00  0.00    +0.000 NA
ATOM      5  C   UNL     1       3.742   7.109  18.105  0.00  0.00    +0.000 A 
ATOM      6  C   UNL     1       3.753   5.779  18.469  0.00  0.00    +0.000 A 
ATOM      7  C   UNL     1       4.593   4.771  17.756  0.00  0.00    +0.000 C 
ATOM      8  N   UNL     1       5.076   5.235  16.450  0.00  0.00    +0.000 N 
ATOM      9  C   UNL     1       5.275   4.240  15.505  0.00  0.00    +0.000 C 
ATOM     10  O   UNL     1       5.033   3.070  15.795  0.00  0.00    +0.000 OA
ATOM     11  N   UNL     1       5.719   4.633  14.263  0.00  0.00    +0.000 N 
ATOM     12  C   UNL     1       5.561   6.614  16.422  0.00  0.00    +0.000 C 
ATOM     13  C   UNL     1       4.487   7.591  16.891  0.00  0.00    +0.000 C 
ATOM     14  H   UNL     1       6.214   5.504  14.192  0.00  0.00    +0.000 HD
ENDROOT
BRANCH   3  15
ATOM     15  C   UNL     1       1.220   8.544  20.291  0.00  0.00    +0.000 A 
ATOM     16  C   UNL     1       0.665   8.384  21.568  0.00  0.00    +0.000 A 
ATOM     17  C   UNL     1      -0.301   9.279  22.002  0.00  0.00    +0.000 A 
ATOM     18  N   UNL     1      -0.747  10.318  21.268  0.00  0.00    +0.000 NA
ATOM     19  C   UNL     1      -0.197  10.475  20.048  0.00  0.00    +0.000 A 
ATOM     20  C   UNL     1       0.773   9.636  19.531  0.00  0.00    +0.000 A 
ENDBRANCH   3  15
BRANCH  11  21
ATOM     21  C   UNL     1       5.844   3.761  13.151  0.00  0.00    +0.000 A 
ATOM     22  C   UNL     1       7.078   3.296  12.683  0.00  0.00    +0.000 A 
ATOM     23  C   UNL     1       7.165   2.513  11.531  0.00  0.00    +0.000 A 
ATOM     24  C   UNL     1       6.009   2.158  10.848  0.00  0.00    +0.000 A 
ATOM     25  C   UNL     1       4.766   2.562  11.335  0.00  0.00    +0.000 A 
ATOM     26  C   UNL     1       4.682   3.351  12.489  0.00  0.00    +0.000 A 
ENDBRANCH  11  21
BRANCH   1  27
ATOM     27  O   UNL     1       2.933   4.125  19.945  0.00  0.00    +0.000 OA
BRANCH  27  29
ATOM     28  C   UNL     1       1.163   2.724  19.185  0.00  0.00    +0.000 C 
ATOM     29  C   UNL     1       1.647   3.614  20.330  0.00  0.00    +0.000 C 
ATOM     30  C   UNL     1       1.769   2.786  21.607  0.00  0.00    +0.000 C 
ENDBRANCH  27  29
ENDBRANCH   1  27
TORSDOF 4
ENDMDL
