MODEL 1
REMARK VINA RESULT:      -7.5      0.000      0.000
REMARK  Name = 
REMARK  5 active torsions:
REMARK  status: ('A' for Active; 'I' for Inactive)
REMARK    1  A    between atoms: C_1  and  O_2
REMARK    2  A    between atoms: O_2  and  C_3
REMARK    3  A    between atoms: C_6  and  C_7
REMARK    4  A    between atoms: N_8  and  N_9
REMARK    5  A    between atoms: C_16  and  C_17
REMARK                            x       y       z     vdW  Elec       q    Type
REMARK                         _______ _______ _______ _____ _____    ______ ____
ROOT
ATOM      1  N   UNL     1       2.731   6.489  18.704  0.00  0.00    +0.000 N 
ATOM      2  C   UNL     1       2.077   7.544  19.262  0.00  0.00    +0.000 A 
ATOM      3  N   UNL     1       1.828   8.649  18.599  0.00  0.00    +0.000 NA
ATOM      4  C   UNL     1       1.186   9.563  19.420  0.00  0.00    +0.000 A 
ATOM      5  C   UNL     1       0.777  10.857  19.040  0.00  0.00    +0.000 A 
ATOM      6  C   UNL     1       0.134  11.681  19.969  0.00  0.00    +0.000 A 
ATOM      7  C   UNL     1      -0.100  11.233  21.266  0.00  0.00    +0.000 A 
ATOM      8  C   UNL     1       0.299   9.951  21.686  0.00  0.00    +0.000 A 
ATOM      9  C   UNL     1       0.046   9.496  23.095  0.00  0.00    +0.000 C 
ATOM     10  C   UNL     1       0.945   9.140  20.727  0.00  0.00    +0.000 A 
ATOM     11  S   UNL     1       1.564   7.544  20.903  0.00  0.00    +0.000 S 
ATOM     12  H   UNL     1       2.868   6.549  17.699  0.00  0.00    +0.000 HD
ENDROOT
BRANCH   1  14
ATOM     13  C   UNL     1       3.841   4.495  18.900  0.00  0.00    +0.000 C 
ATOM     14  N   UNL     1       2.904   5.290  19.316  0.00  0.00    +0.000 NA
BRANCH  13  18
ATOM     15  C   UNL     1       6.864   5.325  15.963  0.00  0.00    +0.000 A 
ATOM     16  C   UNL     1       5.960   4.272  15.756  0.00  0.00    +0.000 A 
ATOM     17  C   UNL     1       4.971   3.965  16.694  0.00  0.00    +0.000 A 
ATOM     18  C   UNL     1       4.893   4.694  17.878  0.00  0.00    +0.000 A 
ATOM     19  C   UNL     1       5.777   5.757  18.089  0.00  0.00    +0.000 A 
ATOM     20  C   UNL     1       6.748   6.088  17.132  0.00  0.00    +0.000 A 
ATOM     21 BR   UNL     1       7.734   7.669  17.502  0.00  0.00    +0.000 Br
BRANCH  15  23
ATOM     22  C   UNL     1       7.392   4.852  13.691  0.00  0.00    +0.000 C 
ATOM     23  O   UNL     1       7.699   5.533  14.901  0.00  0.00    +0.000 OA
ENDBRANCH  15  23
ENDBRANCH  13  18
ENDBRANCH   1  14
TORSDOF 3
ENDMDL
MODEL 2
REMARK VINA RESULT:      -7.3      3.079      4.124
REMARK  Name = 
REMARK  5 active torsions:
REMARK  status: ('A' for Active; 'I' for Inactive)
REMARK    1  A    between atoms: C_1  and  O_2
REMARK    2  A    between atoms: O_2  and  C_3
REMARK    3  A    between atoms: C_6  and  C_7
REMARK    4  A    between atoms: N_8  and  N_9
REMARK    5  A    between atoms: C_16  and  C_17
REMARK                            x       y       z     vdW  Elec       q    Type
REMARK                         _______ _______ _______ _____ _____    ______ ____
ROOT
ATOM      1  N   UNL     1       2.132   7.992  19.333  0.00  0.00    +0.000 N 
ATOM      2  C   UNL     1       1.323   8.856  20.004  0.00  0.00    +0.000 A 
ATOM      3  N   UNL     1       0.973   8.668  21.255  0.00  0.00    +0.000 NA
ATOM      4  C   UNL     1       0.119   9.679  21.669  0.00  0.00    +0.000 A 
ATOM      5  C   UNL     1      -0.457   9.790  22.950  0.00  0.00    +0.000 A 
ATOM      6  C   UNL     1      -1.302  10.865  23.238  0.00  0.00    +0.000 A 
ATOM      7  C   UNL     1      -1.581  11.823  22.268  0.00  0.00    +0.000 A 
ATOM      8  C   UNL     1      -1.031  11.745  20.976  0.00  0.00    +0.000 A 
ATOM      9  C   UNL     1      -1.358  12.785  19.943  0.00  0.00    +0.000 C 
ATOM     10  C   UNL     1      -0.180  10.649  20.712  0.00  0.00    +0.000 A 
ATOM     11  S   UNL     1       0.643  10.247  19.256  0.00  0.00    +0.000 S 
ATOM     12  H   UNL     1       2.577   7.283  19.910  0.00  0.00    +0.000 HD
ENDROOT
BRANCH   1  14
ATOM     13  C   UNL     1       3.288   7.275  17.491  0.00  0.00    +0.000 C 
ATOM     14  N   UNL     1       2.609   8.210  18.082  0.00  0.00    +0.000 NA
BRANCH  13  18
ATOM     15  C   UNL     1       3.925   3.244  18.830  0.00  0.00    +0.000 A 
ATOM     16  C   UNL     1       5.008   4.133  18.753  0.00  0.00    +0.000 A 
ATOM     17  C   UNL     1       4.841   5.448  18.311  0.00  0.00    +0.000 A 
ATOM     18  C   UNL     1       3.582   5.885  17.906  0.00  0.00    +0.000 A 
ATOM     19  C   UNL     1       2.492   5.015  17.994  0.00  0.00    +0.000 A 
ATOM     20  C   UNL     1       2.652   3.705  18.470  0.00  0.00    +0.000 A 
ATOM     21 BR   UNL     1       1.038   2.729  18.696  0.00  0.00    +0.000 Br
BRANCH  15  23
ATOM     22  C   UNL     1       4.443   1.976  20.777  0.00  0.00    +0.000 C 
ATOM     23  O   UNL     1       4.261   2.033  19.368  0.00  0.00    +0.000 OA
ENDBRANCH  15  23
ENDBRANCH  13  18
ENDBRANCH   1  14
TORSDOF 3
ENDMDL
MODEL 3
REMARK VINA RESULT:      -7.2      1.356      1.680
REMARK  Name = 
REMARK  5 active torsions:
REMARK  status: ('A' for Active; 'I' for Inactive)
REMARK    1  A    between atoms: C_1  and  O_2
REMARK    2  A    between atoms: O_2  and  C_3
REMARK    3  A    between atoms: C_6  and  C_7
REMARK    4  A    between atoms: N_8  and  N_9
REMARK    5  A    between atoms: C_16  and  C_17
REMARK                            x       y       z     vdW  Elec       q    Type
REMARK                         _______ _______ _______ _____ _____    ______ ____
ROOT
ATOM      1  N   UNL     1       2.194   7.019  19.897  0.00  0.00    +0.000 N 
ATOM      2  C   UNL     1       1.533   8.186  20.123  0.00  0.00    +0.000 A 
ATOM      3  N   UNL     1       1.533   9.176  19.260  0.00  0.00    +0.000 NA
ATOM      4  C   UNL     1       0.814  10.248  19.764  0.00  0.00    +0.000 A 
ATOM      5  C   UNL     1       0.614  11.479  19.108  0.00  0.00    +0.000 A 
ATOM      6  C   UNL     1      -0.137  12.481  19.729  0.00  0.00    +0.000 A 
ATOM      7  C   UNL     1      -0.685  12.272  20.991  0.00  0.00    +0.000 A 
ATOM      8  C   UNL     1      -0.503  11.060  21.682  0.00  0.00    +0.000 A 
ATOM      9  C   UNL     1      -1.094  10.864  23.049  0.00  0.00    +0.000 C 
ATOM     10  C   UNL     1       0.259  10.065  21.031  0.00  0.00    +0.000 A 
ATOM     11  S   UNL     1       0.680   8.492  21.584  0.00  0.00    +0.000 S 
ATOM     12  H   UNL     1       2.550   6.901  18.952  0.00  0.00    +0.000 HD
ENDROOT
BRANCH   1  14
ATOM     13  C   UNL     1       2.717   4.836  20.352  0.00  0.00    +0.000 C 
ATOM     14  N   UNL     1       2.122   5.934  20.708  0.00  0.00    +0.000 NA
BRANCH  13  18
ATOM     15  C   UNL     1       5.389   4.219  17.046  0.00  0.00    +0.000 A 
ATOM     16  C   UNL     1       4.046   3.826  16.941  0.00  0.00    +0.000 A 
ATOM     17  C   UNL     1       3.150   4.000  17.999  0.00  0.00    +0.000 A 
ATOM     18  C   UNL     1       3.599   4.546  19.200  0.00  0.00    +0.000 A 
ATOM     19  C   UNL     1       4.930   4.957  19.312  0.00  0.00    +0.000 A 
ATOM     20  C   UNL     1       5.821   4.814  18.237  0.00  0.00    +0.000 A 
ATOM     21 BR   UNL     1       7.533   5.595  18.505  0.00  0.00    +0.000 Br
BRANCH  15  23
ATOM     22  C   UNL     1       6.059   5.126  14.949  0.00  0.00    +0.000 C 
ATOM     23  O   UNL     1       6.089   4.054  15.884  0.00  0.00    +0.000 OA
ENDBRANCH  15  23
ENDBRANCH  13  18
ENDBRANCH   1  14
TORSDOF 3
ENDMDL
MODEL 4
REMARK VINA RESULT:      -7.1      3.817      8.083
REMARK  Name = 
REMARK  5 active torsions:
REMARK  status: ('A' for Active; 'I' for Inactive)
REMARK    1  A    between atoms: C_1  and  O_2
REMARK    2  A    between atoms: O_2  and  C_3
REMARK    3  A    between atoms: C_6  and  C_7
REMARK    4  A    between atoms: N_8  and  N_9
REMARK    5  A    between atoms: C_16  and  C_17
REMARK                            x       y       z     vdW  Elec       q    Type
REMARK                         _______ _______ _______ _____ _____    ______ ____
ROOT
ATOM      1  N   UNL     1       1.963   7.944  20.414  0.00  0.00    +0.000 N 
ATOM      2  C   UNL     1       2.311   6.777  19.806  0.00  0.00    +0.000 A 
ATOM      3  N   UNL     1       3.132   6.732  18.783  0.00  0.00    +0.000 NA
ATOM      4  C   UNL     1       3.277   5.425  18.344  0.00  0.00    +0.000 A 
ATOM      5  C   UNL     1       4.077   5.010  17.261  0.00  0.00    +0.000 A 
ATOM      6  C   UNL     1       4.136   3.655  16.923  0.00  0.00    +0.000 A 
ATOM      7  C   UNL     1       3.407   2.716  17.646  0.00  0.00    +0.000 A 
ATOM      8  C   UNL     1       2.592   3.090  18.729  0.00  0.00    +0.000 A 
ATOM      9  C   UNL     1       1.805   2.058  19.485  0.00  0.00    +0.000 C 
ATOM     10  C   UNL     1       2.551   4.465  19.049  0.00  0.00    +0.000 A 
ATOM     11  S   UNL     1       1.662   5.260  20.289  0.00  0.00    +0.000 S 
ATOM     12  H   UNL     1       2.506   8.755  20.131  0.00  0.00    +0.000 HD
ENDROOT
BRANCH   1  14
ATOM     13  C   UNL     1       0.463   9.061  21.734  0.00  0.00    +0.000 C 
ATOM     14  N   UNL     1       1.213   8.020  21.542  0.00  0.00    +0.000 NA
BRANCH  13  18
ATOM     15  C   UNL     1      -0.382  12.257  18.990  0.00  0.00    +0.000 A 
ATOM     16  C   UNL     1       0.522  12.462  20.045  0.00  0.00    +0.000 A 
ATOM     17  C   UNL     1       0.812  11.451  20.963  0.00  0.00    +0.000 A 
ATOM     18  C   UNL     1       0.172  10.218  20.857  0.00  0.00    +0.000 A 
ATOM     19  C   UNL     1      -0.717   9.995  19.801  0.00  0.00    +0.000 A 
ATOM     20  C   UNL     1      -0.982  10.999  18.858  0.00  0.00    +0.000 A 
ATOM     21 BR   UNL     1      -2.066  10.459  17.394  0.00  0.00    +0.000 Br
BRANCH  15  23
ATOM     22  C   UNL     1      -0.117  14.600  18.667  0.00  0.00    +0.000 C 
ATOM     23  O   UNL     1      -0.471  13.326  18.144  0.00  0.00    +0.000 OA
ENDBRANCH  15  23
ENDBRANCH  13  18
ENDBRANCH   1  14
TORSDOF 3
ENDMDL
MODEL 5
REMARK VINA RESULT:      -7.1      4.762      8.473
REMARK  Name = 
REMARK  5 active torsions:
REMARK  status: ('A' for Active; 'I' for Inactive)
REMARK    1  A    between atoms: C_1  and  O_2
REMARK    2  A    between atoms: O_2  and  C_3
REMARK    3  A    between atoms: C_6  and  C_7
REMARK    4  A    between atoms: N_8  and  N_9
REMARK    5  A    between atoms: C_16  and  C_17
REMARK                            x       y       z     vdW  Elec       q    Type
REMARK                         _______ _______ _______ _____ _____    ______ ____
ROOT
ATOM      1  N   UNL     1       2.208   8.080  19.334  0.00  0.00    +0.000 N 
ATOM      2  C   UNL     1       2.183   6.723  19.428  0.00  0.00    +0.000 A 
ATOM      3  N   UNL     1       1.754   6.097  20.500  0.00  0.00    +0.000 NA
ATOM      4  C   UNL     1       1.875   4.727  20.333  0.00  0.00    +0.000 A 
ATOM      5  C   UNL     1       1.517   3.752  21.286  0.00  0.00    +0.000 A 
ATOM      6  C   UNL     1       1.688   2.397  20.989  0.00  0.00    +0.000 A 
ATOM      7  C   UNL     1       2.213   2.005  19.760  0.00  0.00    +0.000 A 
ATOM      8  C   UNL     1       2.588   2.947  18.785  0.00  0.00    +0.000 A 
ATOM      9  C   UNL     1       3.164   2.498  17.472  0.00  0.00    +0.000 C 
ATOM     10  C   UNL     1       2.404   4.309  19.112  0.00  0.00    +0.000 A 
ATOM     11  S   UNL     1       2.759   5.703  18.169  0.00  0.00    +0.000 S 
ATOM     12  H   UNL     1       1.724   8.572  20.080  0.00  0.00    +0.000 HD
ENDROOT
BRANCH   1  14
ATOM     13  C   UNL     1       1.779   9.742  17.819  0.00  0.00    +0.000 C 
ATOM     14  N   UNL     1       2.532   8.759  18.205  0.00  0.00    +0.000 NA
BRANCH  13  18
ATOM     15  C   UNL     1      -1.731  11.591  19.468  0.00  0.00    +0.000 A 
ATOM     16  C   UNL     1      -0.463  11.939  19.959  0.00  0.00    +0.000 A 
ATOM     17  C   UNL     1       0.700  11.350  19.456  0.00  0.00    +0.000 A 
ATOM     18  C   UNL     1       0.606  10.373  18.467  0.00  0.00    +0.000 A 
ATOM     19  C   UNL     1      -0.650  10.030  17.957  0.00  0.00    +0.000 A 
ATOM     20  C   UNL     1      -1.815  10.647  18.438  0.00  0.00    +0.000 A 
ATOM     21 BR   UNL     1      -3.406  10.195  17.503  0.00  0.00    +0.000 Br
BRANCH  15  23
ATOM     22  C   UNL     1      -2.594  12.727  21.374  0.00  0.00    +0.000 C 
ATOM     23  O   UNL     1      -2.740  12.333  20.015  0.00  0.00    +0.000 OA
ENDBRANCH  15  23
ENDBRANCH  13  18
ENDBRANCH   1  14
TORSDOF 3
ENDMDL
MODEL 6
REMARK VINA RESULT:      -7.1      2.530      3.794
REMARK  Name = 
REMARK  5 active torsions:
REMARK  status: ('A' for Active; 'I' for Inactive)
REMARK    1  A    between atoms: C_1  and  O_2
REMARK    2  A    between atoms: O_2  and  C_3
REMARK    3  A    between atoms: C_6  and  C_7
REMARK    4  A    between atoms: N_8  and  N_9
REMARK    5  A    between atoms: C_16  and  C_17
REMARK                            x       y       z     vdW  Elec       q    Type
REMARK                         _______ _______ _______ _____ _____    ______ ____
ROOT
ATOM      1  N   UNL     1       1.685   8.634  19.330  0.00  0.00    +0.000 N 
ATOM      2  C   UNL     1       0.857   9.459  20.026  0.00  0.00    +0.000 A 
ATOM      3  N   UNL     1       0.567   9.264  21.291  0.00  0.00    +0.000 NA
ATOM      4  C   UNL     1      -0.324  10.230  21.731  0.00  0.00    +0.000 A 
ATOM      5  C   UNL     1      -0.855  10.321  23.033  0.00  0.00    +0.000 A 
ATOM      6  C   UNL     1      -1.746  11.351  23.347  0.00  0.00    +0.000 A 
ATOM      7  C   UNL     1      -2.115  12.284  22.382  0.00  0.00    +0.000 A 
ATOM      8  C   UNL     1      -1.613  12.224  21.070  0.00  0.00    +0.000 A 
ATOM      9  C   UNL     1      -2.037  13.235  20.043  0.00  0.00    +0.000 C 
ATOM     10  C   UNL     1      -0.714  11.173  20.780  0.00  0.00    +0.000 A 
ATOM     11  S   UNL     1       0.072  10.803  19.295  0.00  0.00    +0.000 S 
ATOM     12  H   UNL     1       2.191   7.956  19.894  0.00  0.00    +0.000 HD
ENDROOT
BRANCH   1  14
ATOM     13  C   UNL     1       2.809   7.966  17.449  0.00  0.00    +0.000 C 
ATOM     14  N   UNL     1       2.100   8.866  18.059  0.00  0.00    +0.000 NA
BRANCH  13  18
ATOM     15  C   UNL     1       4.123   4.006  18.473  0.00  0.00    +0.000 A 
ATOM     16  C   UNL     1       2.751   4.301  18.444  0.00  0.00    +0.000 A 
ATOM     17  C   UNL     1       2.286   5.580  18.127  0.00  0.00    +0.000 A 
ATOM     18  C   UNL     1       3.199   6.600  17.864  0.00  0.00    +0.000 A 
ATOM     19  C   UNL     1       4.567   6.315  17.873  0.00  0.00    +0.000 A 
ATOM     20  C   UNL     1       5.033   5.023  18.157  0.00  0.00    +0.000 A 
ATOM     21 BR   UNL     1       6.905   4.778  17.942  0.00  0.00    +0.000 Br
BRANCH  15  23
ATOM     22  C   UNL     1       4.372   2.259  20.070  0.00  0.00    +0.000 C 
ATOM     23  O   UNL     1       4.384   2.687  18.714  0.00  0.00    +0.000 OA
ENDBRANCH  15  23
ENDBRANCH  13  18
ENDBRANCH   1  14
TORSDOF 3
ENDMDL
MODEL 7
REMARK VINA RESULT:      -7.0      3.828      8.247
REMARK  Name = 
REMARK  5 active torsions:
REMARK  status: ('A' for Active; 'I' for Inactive)
REMARK    1  A    between atoms: C_1  and  O_2
REMARK    2  A    between atoms: O_2  and  C_3
REMARK    3  A    between atoms: C_6  and  C_7
REMARK    4  A    between atoms: N_8  and  N_9
REMARK    5  A    between atoms: C_16  and  C_17
REMARK                            x       y       z     vdW  Elec       q    Type
REMARK                         _______ _______ _______ _____ _____    ______ ____
ROOT
ATOM      1  N   UNL     1       2.110   8.131  19.435  0.00  0.00    +0.000 N 
ATOM      2  C   UNL     1       2.782   7.190  18.718  0.00  0.00    +0.000 A 
ATOM      3  N   UNL     1       3.619   7.499  17.755  0.00  0.00    +0.000 NA
ATOM      4  C   UNL     1       4.128   6.347  17.176  0.00  0.00    +0.000 A 
ATOM      5  C   UNL     1       5.047   6.306  16.109  0.00  0.00    +0.000 A 
ATOM      6  C   UNL     1       5.484   5.072  15.619  0.00  0.00    +0.000 A 
ATOM      7  C   UNL     1       5.014   3.886  16.175  0.00  0.00    +0.000 A 
ATOM      8  C   UNL     1       4.091   3.884  17.236  0.00  0.00    +0.000 A 
ATOM      9  C   UNL     1       3.589   2.590  17.811  0.00  0.00    +0.000 C 
ATOM     10  C   UNL     1       3.667   5.145  17.713  0.00  0.00    +0.000 A 
ATOM     11  S   UNL     1       2.555   5.505  18.975  0.00  0.00    +0.000 S 
ATOM     12  H   UNL     1       2.421   9.088  19.286  0.00  0.00    +0.000 HD
ENDROOT
BRANCH   1  14
ATOM     13  C   UNL     1       0.520   8.768  20.954  0.00  0.00    +0.000 C 
ATOM     14  N   UNL     1       1.330   7.857  20.510  0.00  0.00    +0.000 NA
BRANCH  13  18
ATOM     15  C   UNL     1      -0.462  12.553  19.174  0.00  0.00    +0.000 A 
ATOM     16  C   UNL     1       0.526  12.485  20.169  0.00  0.00    +0.000 A 
ATOM     17  C   UNL     1       0.864  11.274  20.779  0.00  0.00    +0.000 A 
ATOM     18  C   UNL     1       0.188  10.109  20.420  0.00  0.00    +0.000 A 
ATOM     19  C   UNL     1      -0.786  10.160  19.419  0.00  0.00    +0.000 A 
ATOM     20  C   UNL     1      -1.101  11.370  18.782  0.00  0.00    +0.000 A 
ATOM     21 BR   UNL     1      -2.309  11.218  17.323  0.00  0.00    +0.000 Br
BRANCH  15  23
ATOM     22  C   UNL     1       0.407  14.758  18.957  0.00  0.00    +0.000 C 
ATOM     23  O   UNL     1      -0.593  13.801  18.632  0.00  0.00    +0.000 OA
ENDBRANCH  15  23
ENDBRANCH  13  18
ENDBRANCH   1  14
TORSDOF 3
ENDMDL
MODEL 8
REMARK VINA RESULT:      -6.9      3.830      5.180
REMARK  Name = 
REMARK  5 active torsions:
REMARK  status: ('A' for Active; 'I' for Inactive)
REMARK    1  A    between atoms: C_1  and  O_2
REMARK    2  A    between atoms: O_2  and  C_3
REMARK    3  A    between atoms: C_6  and  C_7
REMARK    4  A    between atoms: N_8  and  N_9
REMARK    5  A    between atoms: C_16  and  C_17
REMARK                            x       y       z     vdW  Elec       q    Type
REMARK                         _______ _______ _______ _____ _____    ______ ____
ROOT
ATOM      1  N   UNL     1       0.761   9.346  18.731  0.00  0.00    +0.000 N 
ATOM      2  C   UNL     1      -0.451   9.840  18.362  0.00  0.00    +0.000 A 
ATOM      3  N   UNL     1      -0.936   9.689  17.151  0.00  0.00    +0.000 NA
ATOM      4  C   UNL     1      -2.164  10.322  17.046  0.00  0.00    +0.000 A 
ATOM      5  C   UNL     1      -2.964  10.368  15.886  0.00  0.00    +0.000 A 
ATOM      6  C   UNL     1      -4.188  11.041  15.916  0.00  0.00    +0.000 A 
ATOM      7  C   UNL     1      -4.621  11.668  17.081  0.00  0.00    +0.000 A 
ATOM      8  C   UNL     1      -3.849  11.650  18.257  0.00  0.00    +0.000 A 
ATOM      9  C   UNL     1      -4.332  12.346  19.497  0.00  0.00    +0.000 C 
ATOM     10  C   UNL     1      -2.617  10.963  18.199  0.00  0.00    +0.000 A 
ATOM     11  S   UNL     1      -1.437  10.755  19.433  0.00  0.00    +0.000 S 
ATOM     12  H   UNL     1       1.192   8.715  18.061  0.00  0.00    +0.000 HD
ENDROOT
BRANCH   1  14
ATOM     13  C   UNL     1       1.807   8.320  20.491  0.00  0.00    +0.000 C 
ATOM     14  N   UNL     1       1.243   9.380  19.999  0.00  0.00    +0.000 NA
BRANCH  13  18
ATOM     15  C   UNL     1       2.822   4.461  18.900  0.00  0.00    +0.000 A 
ATOM     16  C   UNL     1       3.173   5.622  18.194  0.00  0.00    +0.000 A 
ATOM     17  C   UNL     1       2.849   6.893  18.674  0.00  0.00    +0.000 A 
ATOM     18  C   UNL     1       2.135   7.020  19.863  0.00  0.00    +0.000 A 
ATOM     19  C   UNL     1       1.794   5.873  20.585  0.00  0.00    +0.000 A 
ATOM     20  C   UNL     1       2.149   4.597  20.121  0.00  0.00    +0.000 A 
ATOM     21 BR   UNL     1       1.769   3.172  21.318  0.00  0.00    +0.000 Br
BRANCH  15  23
ATOM     22  C   UNL     1       2.358   2.487  17.654  0.00  0.00    +0.000 C 
ATOM     23  O   UNL     1       3.298   3.317  18.324  0.00  0.00    +0.000 OA
ENDBRANCH  15  23
ENDBRANCH  13  18
ENDBRANCH   1  14
TORSDOF 3
ENDMDL
MODEL 9
REMARK VINA RESULT:      -6.9      1.448      1.742
REMARK  Name = 
REMARK  5 active torsions:
REMARK  status: ('A' for Active; 'I' for Inactive)
REMARK    1  A    between atoms: C_1  and  O_2
REMARK    2  A    between atoms: O_2  and  C_3
REMARK    3  A    between atoms: C_6  and  C_7
REMARK    4  A    between atoms: N_8  and  N_9
REMARK    5  A    between atoms: C_16  and  C_17
REMARK                            x       y       z     vdW  Elec       q    Type
REMARK                         _______ _______ _______ _____ _____    ______ ____
ROOT
ATOM      1  N   UNL     1       2.061   7.756  19.538  0.00  0.00    +0.000 N 
ATOM      2  C   UNL     1       1.351   8.858  19.903  0.00  0.00    +0.000 A 
ATOM      3  N   UNL     1       1.288   9.936  19.156  0.00  0.00    +0.000 NA
ATOM      4  C   UNL     1       0.531  10.910  19.788  0.00  0.00    +0.000 A 
ATOM      5  C   UNL     1       0.261  12.195  19.276  0.00  0.00    +0.000 A 
ATOM      6  C   UNL     1      -0.523  13.085  20.017  0.00  0.00    +0.000 A 
ATOM      7  C   UNL     1      -1.035  12.711  21.256  0.00  0.00    +0.000 A 
ATOM      8  C   UNL     1      -0.783  11.440  21.804  0.00  0.00    +0.000 A 
ATOM      9  C   UNL     1      -1.337  11.065  23.149  0.00  0.00    +0.000 C 
ATOM     10  C   UNL     1       0.011  10.561  21.034  0.00  0.00    +0.000 A 
ATOM     11  S   UNL     1       0.515   8.958  21.402  0.00  0.00    +0.000 S 
ATOM     12  H   UNL     1       2.402   7.762  18.581  0.00  0.00    +0.000 HD
ENDROOT
BRANCH   1  14
ATOM     13  C   UNL     1       2.850   5.630  19.851  0.00  0.00    +0.000 C 
ATOM     14  N   UNL     1       2.056   6.586  20.224  0.00  0.00    +0.000 NA
BRANCH  13  18
ATOM     15  C   UNL     1       6.047   5.689  16.981  0.00  0.00    +0.000 A 
ATOM     16  C   UNL     1       4.715   5.771  16.545  0.00  0.00    +0.000 A 
ATOM     17  C   UNL     1       3.649   5.742  17.448  0.00  0.00    +0.000 A 
ATOM     18  C   UNL     1       3.903   5.599  18.810  0.00  0.00    +0.000 A 
ATOM     19  C   UNL     1       5.225   5.534  19.259  0.00  0.00    +0.000 A 
ATOM     20  C   UNL     1       6.297   5.597  18.356  0.00  0.00    +0.000 A 
ATOM     21 BR   UNL     1       8.018   5.683  19.157  0.00  0.00    +0.000 Br
BRANCH  15  23
ATOM     22  C   UNL     1       7.082   4.732  15.063  0.00  0.00    +0.000 C 
ATOM     23  O   UNL     1       6.953   5.823  15.967  0.00  0.00    +0.000 OA
ENDBRANCH  15  23
ENDBRANCH  13  18
ENDBRANCH   1  14
TORSDOF 3
ENDMDL
