MODEL 1
REMARK VINA RESULT:      -9.4      0.000      0.000
REMARK  Name = 
REMARK  7 active torsions:
REMARK  status: ('A' for Active; 'I' for Inactive)
REMARK    1  A    between atoms: C_2  and  C_3
REMARK    2  A    between atoms: C_9  and  O_10
REMARK    3  A    between atoms: O_10  and  C_11
REMARK    4  A    between atoms: C_16  and  O_17
REMARK    5  A    between atoms: O_17  and  C_18
REMARK    6  A    between atoms: C_18  and  C_19
REMARK    7  A    between atoms: C_19  and  N_20
REMARK                            x       y       z     vdW  Elec       q    Type
REMARK                         _______ _______ _______ _____ _____    ______ ____
ROOT
ATOM      1  C   UNL     1       2.263   5.011  19.621  0.00  0.00    +0.000 A 
ATOM      2  C   UNL     1       1.311   4.519  20.532  0.00  0.00    +0.000 A 
ATOM      3  C   UNL     1       0.599   3.353  20.261  0.00  0.00    +0.000 A 
ATOM      4  C   UNL     1       0.863   2.645  19.095  0.00  0.00    +0.000 A 
ATOM      5  C   UNL     1       1.849   3.094  18.212  0.00  0.00    +0.000 A 
ATOM      6  C   UNL     1       2.579   4.263  18.471  0.00  0.00    +0.000 A 
ENDROOT
BRANCH   1   7
ATOM      7  O   UNL     1       2.922   6.190  19.880  0.00  0.00    +0.000 OA
BRANCH   7  14
ATOM      8  C   UNL     1      -0.718  11.026  21.004  0.00  0.00    +0.000 A 
ATOM      9  C   UNL     1      -0.790  11.438  19.674  0.00  0.00    +0.000 A 
ATOM     10  C   UNL     1      -0.027  10.787  18.701  0.00  0.00    +0.000 A 
ATOM     11  C   UNL     1       0.784   9.692  19.037  0.00  0.00    +0.000 A 
ATOM     12  C   UNL     1       1.544   9.026  18.064  0.00  0.00    +0.000 A 
ATOM     13  C   UNL     1       2.280   7.887  18.391  0.00  0.00    +0.000 A 
ATOM     14  C   UNL     1       2.280   7.398  19.696  0.00  0.00    +0.000 A 
ATOM     15  C   UNL     1       1.564   8.078  20.689  0.00  0.00    +0.000 A 
ATOM     16  C   UNL     1       0.818   9.233  20.375  0.00  0.00    +0.000 A 
ATOM     17  C   UNL     1       0.085   9.933  21.353  0.00  0.00    +0.000 A 
BRANCH   8  19
ATOM     18  N   UNL     1      -2.092  12.247  22.839  0.00  0.00    +0.000 NA
ATOM     19  C   UNL     1      -1.483  11.704  22.013  0.00  0.00    +0.000 C 
ENDBRANCH   8  19
ENDBRANCH   7  14
ENDBRANCH   1   7
BRANCH   6  20
ATOM     20  O   UNL     1       3.490   4.574  17.488  0.00  0.00    +0.000 OA
BRANCH  20  21
ATOM     21  C   UNL     1       4.164   3.475  16.861  0.00  0.00    +0.000 C 
BRANCH  21  22
ATOM     22  C   UNL     1       5.356   3.976  16.018  0.00  0.00    +0.000 C 
BRANCH  22  23
ATOM     23  N   UNL     1       6.196   4.987  16.674  0.00  0.00    +0.000 N 
ATOM     24  C   UNL     1       7.015   4.614  17.721  0.00  0.00    +0.000 A 
ATOM     25  C   UNL     1       7.777   5.496  18.372  0.00  0.00    +0.000 A 
ATOM     26  C   UNL     1       7.728   6.909  17.968  0.00  0.00    +0.000 A 
ATOM     27  O   UNL     1       8.315   7.771  18.610  0.00  0.00    +0.000 OA
ATOM     28  N   UNL     1       6.985   7.180  16.856  0.00  0.00    +0.000 N 
ATOM     29  C   UNL     1       6.161   6.296  16.207  0.00  0.00    +0.000 A 
ATOM     30  O   UNL     1       5.451   6.674  15.278  0.00  0.00    +0.000 OA
ATOM     31  H   UNL     1       6.944   8.142  16.557  0.00  0.00    +0.000 HD
ENDBRANCH  22  23
ENDBRANCH  21  22
ENDBRANCH  20  21
ENDBRANCH   6  20
TORSDOF 7
ENDMDL
MODEL 2
REMARK VINA RESULT:      -9.1      1.391      1.955
REMARK  Name = 
REMARK  7 active torsions:
REMARK  status: ('A' for Active; 'I' for Inactive)
REMARK    1  A    between atoms: C_2  and  C_3
REMARK    2  A    between atoms: C_9  and  O_10
REMARK    3  A    between atoms: O_10  and  C_11
REMARK    4  A    between atoms: C_16  and  O_17
REMARK    5  A    between atoms: O_17  and  C_18
REMARK    6  A    between atoms: C_18  and  C_19
REMARK    7  A    between atoms: C_19  and  N_20
REMARK                            x       y       z     vdW  Elec       q    Type
REMARK                         _______ _______ _______ _____ _____    ______ ____
ROOT
ATOM      1  C   UNL     1       2.538   4.935  19.866  0.00  0.00    +0.000 A 
ATOM      2  C   UNL     1       2.462   4.638  21.238  0.00  0.00    +0.000 A 
ATOM      3  C   UNL     1       1.779   3.510  21.689  0.00  0.00    +0.000 A 
ATOM      4  C   UNL     1       1.200   2.646  20.767  0.00  0.00    +0.000 A 
ATOM      5  C   UNL     1       1.321   2.902  19.397  0.00  0.00    +0.000 A 
ATOM      6  C   UNL     1       2.009   4.030  18.926  0.00  0.00    +0.000 A 
ENDROOT
BRANCH   1   7
ATOM      7  O   UNL     1       3.173   6.078  19.441  0.00  0.00    +0.000 OA
BRANCH   7  14
ATOM      8  C   UNL     1      -0.490  10.737  21.108  0.00  0.00    +0.000 A 
ATOM      9  C   UNL     1      -0.696  11.202  19.810  0.00  0.00    +0.000 A 
ATOM     10  C   UNL     1      -0.007  10.619  18.744  0.00  0.00    +0.000 A 
ATOM     11  C   UNL     1       0.864   9.538  18.955  0.00  0.00    +0.000 A 
ATOM     12  C   UNL     1       1.550   8.941  17.888  0.00  0.00    +0.000 A 
ATOM     13  C   UNL     1       2.347   7.814  18.095  0.00  0.00    +0.000 A 
ATOM     14  C   UNL     1       2.481   7.270  19.371  0.00  0.00    +0.000 A 
ATOM     15  C   UNL     1       1.840   7.883  20.454  0.00  0.00    +0.000 A 
ATOM     16  C   UNL     1       1.035   9.025  20.262  0.00  0.00    +0.000 A 
ATOM     17  C   UNL     1       0.374   9.657  21.333  0.00  0.00    +0.000 A 
BRANCH   8  19
ATOM     18  N   UNL     1      -1.747  11.831  23.099  0.00  0.00    +0.000 NA
ATOM     19  C   UNL     1      -1.179  11.345  22.212  0.00  0.00    +0.000 C 
ENDBRANCH   8  19
ENDBRANCH   7  14
ENDBRANCH   1   7
BRANCH   6  20
ATOM     20  O   UNL     1       2.009   4.143  17.555  0.00  0.00    +0.000 OA
BRANCH  20  21
ATOM     21  C   UNL     1       2.910   3.288  16.837  0.00  0.00    +0.000 C 
BRANCH  21  22
ATOM     22  C   UNL     1       4.329   3.366  17.439  0.00  0.00    +0.000 C 
BRANCH  22  23
ATOM     23  N   UNL     1       5.333   4.002  16.575  0.00  0.00    +0.000 N 
ATOM     24  C   UNL     1       5.081   4.135  15.224  0.00  0.00    +0.000 A 
ATOM     25  C   UNL     1       5.969   4.679  14.389  0.00  0.00    +0.000 A 
ATOM     26  C   UNL     1       7.260   5.135  14.927  0.00  0.00    +0.000 A 
ATOM     27  O   UNL     1       8.149   5.530  14.184  0.00  0.00    +0.000 OA
ATOM     28  N   UNL     1       7.389   5.077  16.284  0.00  0.00    +0.000 N 
ATOM     29  C   UNL     1       6.507   4.478  17.148  0.00  0.00    +0.000 A 
ATOM     30  O   UNL     1       6.774   4.385  18.343  0.00  0.00    +0.000 OA
ATOM     31  H   UNL     1       8.263   5.392  16.673  0.00  0.00    +0.000 HD
ENDBRANCH  22  23
ENDBRANCH  21  22
ENDBRANCH  20  21
ENDBRANCH   6  20
TORSDOF 7
ENDMDL
MODEL 3
REMARK VINA RESULT:      -8.9      1.429      2.196
REMARK  Name = 
REMARK  7 active torsions:
REMARK  status: ('A' for Active; 'I' for Inactive)
REMARK    1  A    between atoms: C_2  and  C_3
REMARK    2  A    between atoms: C_9  and  O_10
REMARK    3  A    between atoms: O_10  and  C_11
REMARK    4  A    between atoms: C_16  and  O_17
REMARK    5  A    between atoms: O_17  and  C_18
REMARK    6  A    between atoms: C_18  and  C_19
REMARK    7  A    between atoms: C_19  and  N_20
REMARK                            x       y       z     vdW  Elec       q    Type
REMARK                         _______ _______ _______ _____ _____    ______ ____
ROOT
ATOM      1  C   UNL     1       2.367   4.444  19.747  0.00  0.00    +0.000 A 
ATOM      2  C   UNL     1       1.043   4.135  20.106  0.00  0.00    +0.000 A 
ATOM      3  C   UNL     1       0.421   2.985  19.626  0.00  0.00    +0.000 A 
ATOM      4  C   UNL     1       1.133   2.110  18.814  0.00  0.00    +0.000 A 
ATOM      5  C   UNL     1       2.469   2.378  18.499  0.00  0.00    +0.000 A 
ATOM      6  C   UNL     1       3.111   3.529  18.978  0.00  0.00    +0.000 A 
ENDROOT
BRANCH   1   7
ATOM      7  O   UNL     1       2.949   5.608  20.190  0.00  0.00    +0.000 OA
BRANCH   7  14
ATOM      8  C   UNL     1      -0.327  10.818  20.311  0.00  0.00    +0.000 A 
ATOM      9  C   UNL     1      -0.219  11.064  18.943  0.00  0.00    +0.000 A 
ATOM     10  C   UNL     1       0.579  10.238  18.148  0.00  0.00    +0.000 A 
ATOM     11  C   UNL     1       1.246   9.133  18.702  0.00  0.00    +0.000 A 
ATOM     12  C   UNL     1       2.040   8.293  17.908  0.00  0.00    +0.000 A 
ATOM     13  C   UNL     1       2.629   7.149  18.449  0.00  0.00    +0.000 A 
ATOM     14  C   UNL     1       2.444   6.830  19.792  0.00  0.00    +0.000 A 
ATOM     15  C   UNL     1       1.693   7.684  20.609  0.00  0.00    +0.000 A 
ATOM     16  C   UNL     1       1.095   8.845  20.079  0.00  0.00    +0.000 A 
ATOM     17  C   UNL     1       0.330   9.718  20.876  0.00  0.00    +0.000 A 
BRANCH   8  19
ATOM     18  N   UNL     1      -1.767  12.379  21.806  0.00  0.00    +0.000 NA
ATOM     19  C   UNL     1      -1.130  11.676  21.139  0.00  0.00    +0.000 C 
ENDBRANCH   8  19
ENDBRANCH   7  14
ENDBRANCH   1   7
BRANCH   6  20
ATOM     20  O   UNL     1       4.414   3.651  18.552  0.00  0.00    +0.000 OA
BRANCH  20  21
ATOM     21  C   UNL     1       5.337   4.261  19.463  0.00  0.00    +0.000 C 
BRANCH  21  22
ATOM     22  C   UNL     1       6.058   5.450  18.794  0.00  0.00    +0.000 C 
BRANCH  22  23
ATOM     23  N   UNL     1       6.318   5.286  17.357  0.00  0.00    +0.000 N 
ATOM     24  C   UNL     1       5.427   5.807  16.441  0.00  0.00    +0.000 A 
ATOM     25  C   UNL     1       5.598   5.663  15.125  0.00  0.00    +0.000 A 
ATOM     26  C   UNL     1       6.767   4.911  14.642  0.00  0.00    +0.000 A 
ATOM     27  O   UNL     1       6.903   4.651  13.453  0.00  0.00    +0.000 OA
ATOM     28  N   UNL     1       7.660   4.527  15.599  0.00  0.00    +0.000 N 
ATOM     29  C   UNL     1       7.474   4.627  16.955  0.00  0.00    +0.000 A 
ATOM     30  O   UNL     1       8.297   4.148  17.732  0.00  0.00    +0.000 OA
ATOM     31  H   UNL     1       8.472   4.018  15.288  0.00  0.00    +0.000 HD
ENDBRANCH  22  23
ENDBRANCH  21  22
ENDBRANCH  20  21
ENDBRANCH   6  20
TORSDOF 7
ENDMDL
MODEL 4
REMARK VINA RESULT:      -8.9      2.315      4.989
REMARK  Name = 
REMARK  7 active torsions:
REMARK  status: ('A' for Active; 'I' for Inactive)
REMARK    1  A    between atoms: C_2  and  C_3
REMARK    2  A    between atoms: C_9  and  O_10
REMARK    3  A    between atoms: O_10  and  C_11
REMARK    4  A    between atoms: C_16  and  O_17
REMARK    5  A    between atoms: O_17  and  C_18
REMARK    6  A    between atoms: C_18  and  C_19
REMARK    7  A    between atoms: C_19  and  N_20
REMARK                            x       y       z     vdW  Elec       q    Type
REMARK                         _______ _______ _______ _____ _____    ______ ____
ROOT
ATOM      1  C   UNL     1       5.283   6.482  17.070  0.00  0.00    +0.000 A 
ATOM      2  C   UNL     1       6.299   7.333  17.540  0.00  0.00    +0.000 A 
ATOM      3  C   UNL     1       7.537   6.822  17.924  0.00  0.00    +0.000 A 
ATOM      4  C   UNL     1       7.784   5.460  17.802  0.00  0.00    +0.000 A 
ATOM      5  C   UNL     1       6.800   4.615  17.280  0.00  0.00    +0.000 A 
ATOM      6  C   UNL     1       5.550   5.113  16.885  0.00  0.00    +0.000 A 
ENDROOT
BRANCH   1   7
ATOM      7  O   UNL     1       4.050   6.995  16.741  0.00  0.00    +0.000 OA
BRANCH   7  14
ATOM      8  C   UNL     1       0.259  10.456  20.141  0.00  0.00    +0.000 A 
ATOM      9  C   UNL     1       0.262   9.599  21.240  0.00  0.00    +0.000 A 
ATOM     10  C   UNL     1       0.924   8.371  21.164  0.00  0.00    +0.000 A 
ATOM     11  C   UNL     1       1.625   8.002  20.005  0.00  0.00    +0.000 A 
ATOM     12  C   UNL     1       2.301   6.776  19.925  0.00  0.00    +0.000 A 
ATOM     13  C   UNL     1       3.065   6.455  18.802  0.00  0.00    +0.000 A 
ATOM     14  C   UNL     1       3.158   7.347  17.736  0.00  0.00    +0.000 A 
ATOM     15  C   UNL     1       2.451   8.554  17.780  0.00  0.00    +0.000 A 
ATOM     16  C   UNL     1       1.672   8.891  18.905  0.00  0.00    +0.000 A 
ATOM     17  C   UNL     1       0.956  10.101  18.978  0.00  0.00    +0.000 A 
BRANCH   8  19
ATOM     18  N   UNL     1      -0.998  12.726  20.241  0.00  0.00    +0.000 NA
ATOM     19  C   UNL     1      -0.438  11.711  20.204  0.00  0.00    +0.000 C 
ENDBRANCH   8  19
ENDBRANCH   7  14
ENDBRANCH   1   7
BRANCH   6  20
ATOM     20  O   UNL     1       4.692   4.142  16.419  0.00  0.00    +0.000 OA
BRANCH  20  21
ATOM     21  C   UNL     1       4.338   3.099  17.337  0.00  0.00    +0.000 C 
BRANCH  21  22
ATOM     22  C   UNL     1       2.805   3.007  17.490  0.00  0.00    +0.000 C 
BRANCH  22  23
ATOM     23  N   UNL     1       2.326   2.916  18.876  0.00  0.00    +0.000 N 
ATOM     24  C   UNL     1       3.238   2.937  19.913  0.00  0.00    +0.000 A 
ATOM     25  C   UNL     1       2.862   2.828  21.189  0.00  0.00    +0.000 A 
ATOM     26  C   UNL     1       1.432   2.666  21.494  0.00  0.00    +0.000 A 
ATOM     27  O   UNL     1       1.051   2.443  22.636  0.00  0.00    +0.000 OA
ATOM     28  N   UNL     1       0.585   2.770  20.429  0.00  0.00    +0.000 N 
ATOM     29  C   UNL     1       0.959   2.833  19.110  0.00  0.00    +0.000 A 
ATOM     30  O   UNL     1       0.110   2.814  18.222  0.00  0.00    +0.000 OA
ATOM     31  H   UNL     1      -0.400   2.669  20.618  0.00  0.00    +0.000 HD
ENDBRANCH  22  23
ENDBRANCH  21  22
ENDBRANCH  20  21
ENDBRANCH   6  20
TORSDOF 7
ENDMDL
MODEL 5
REMARK VINA RESULT:      -8.9      1.090      1.363
REMARK  Name = 
REMARK  7 active torsions:
REMARK  status: ('A' for Active; 'I' for Inactive)
REMARK    1  A    between atoms: C_2  and  C_3
REMARK    2  A    between atoms: C_9  and  O_10
REMARK    3  A    between atoms: O_10  and  C_11
REMARK    4  A    between atoms: C_16  and  O_17
REMARK    5  A    between atoms: O_17  and  C_18
REMARK    6  A    between atoms: C_18  and  C_19
REMARK    7  A    between atoms: C_19  and  N_20
REMARK                            x       y       z     vdW  Elec       q    Type
REMARK                         _______ _______ _______ _____ _____    ______ ____
ROOT
ATOM      1  C   UNL     1       2.502   4.511  19.633  0.00  0.00    +0.000 A 
ATOM      2  C   UNL     1       1.249   4.188  20.185  0.00  0.00    +0.000 A 
ATOM      3  C   UNL     1       0.579   3.028  19.806  0.00  0.00    +0.000 A 
ATOM      4  C   UNL     1       1.175   2.157  18.902  0.00  0.00    +0.000 A 
ATOM      5  C   UNL     1       2.447   2.439  18.393  0.00  0.00    +0.000 A 
ATOM      6  C   UNL     1       3.137   3.601  18.767  0.00  0.00    +0.000 A 
ENDROOT
BRANCH   1   7
ATOM      7  O   UNL     1       3.127   5.686  19.981  0.00  0.00    +0.000 OA
BRANCH   7  14
ATOM      8  C   UNL     1      -0.368  10.732  20.453  0.00  0.00    +0.000 A 
ATOM      9  C   UNL     1      -0.325  11.039  19.094  0.00  0.00    +0.000 A 
ATOM     10  C   UNL     1       0.476  10.284  18.234  0.00  0.00    +0.000 A 
ATOM     11  C   UNL     1       1.212   9.188  18.713  0.00  0.00    +0.000 A 
ATOM     12  C   UNL     1       2.010   8.418  17.854  0.00  0.00    +0.000 A 
ATOM     13  C   UNL     1       2.669   7.281  18.322  0.00  0.00    +0.000 A 
ATOM     14  C   UNL     1       2.553   6.899  19.656  0.00  0.00    +0.000 A 
ATOM     15  C   UNL     1       1.799   7.683  20.537  0.00  0.00    +0.000 A 
ATOM     16  C   UNL     1       1.129   8.837  20.081  0.00  0.00    +0.000 A 
ATOM     17  C   UNL     1       0.359   9.640  20.944  0.00  0.00    +0.000 A 
BRANCH   8  19
ATOM     18  N   UNL     1      -1.820  12.163  22.061  0.00  0.00    +0.000 NA
ATOM     19  C   UNL     1      -1.173  11.517  21.347  0.00  0.00    +0.000 C 
ENDBRANCH   8  19
ENDBRANCH   7  14
ENDBRANCH   1   7
BRANCH   6  20
ATOM     20  O   UNL     1       4.362   3.737  18.154  0.00  0.00    +0.000 OA
BRANCH  20  21
ATOM     21  C   UNL     1       4.387   3.605  16.727  0.00  0.00    +0.000 C 
BRANCH  21  22
ATOM     22  C   UNL     1       5.781   3.966  16.171  0.00  0.00    +0.000 C 
BRANCH  22  23
ATOM     23  N   UNL     1       6.366   5.196  16.720  0.00  0.00    +0.000 N 
ATOM     24  C   UNL     1       5.720   6.401  16.526  0.00  0.00    +0.000 A 
ATOM     25  C   UNL     1       6.220   7.554  16.977  0.00  0.00    +0.000 A 
ATOM     26  C   UNL     1       7.507   7.536  17.690  0.00  0.00    +0.000 A 
ATOM     27  O   UNL     1       8.062   8.577  18.017  0.00  0.00    +0.000 OA
ATOM     28  N   UNL     1       8.026   6.299  17.943  0.00  0.00    +0.000 N 
ATOM     29  C   UNL     1       7.549   5.113  17.445  0.00  0.00    +0.000 A 
ATOM     30  O   UNL     1       8.159   4.065  17.646  0.00  0.00    +0.000 OA
ATOM     31  H   UNL     1       8.903   6.265  18.437  0.00  0.00    +0.000 HD
ENDBRANCH  22  23
ENDBRANCH  21  22
ENDBRANCH  20  21
ENDBRANCH   6  20
TORSDOF 7
ENDMDL
MODEL 6
REMARK VINA RESULT:      -8.6      1.487      2.238
REMARK  Name = 
REMARK  7 active torsions:
REMARK  status: ('A' for Active; 'I' for Inactive)
REMARK    1  A    between atoms: C_2  and  C_3
REMARK    2  A    between atoms: C_9  and  O_10
REMARK    3  A    between atoms: O_10  and  C_11
REMARK    4  A    between atoms: C_16  and  O_17
REMARK    5  A    between atoms: O_17  and  C_18
REMARK    6  A    between atoms: C_18  and  C_19
REMARK    7  A    between atoms: C_19  and  N_20
REMARK                            x       y       z     vdW  Elec       q    Type
REMARK                         _______ _______ _______ _____ _____    ______ ____
ROOT
ATOM      1  C   UNL     1       2.232   5.447  19.660  0.00  0.00    +0.000 A 
ATOM      2  C   UNL     1       1.376   4.744  20.526  0.00  0.00    +0.000 A 
ATOM      3  C   UNL     1       0.769   3.556  20.122  0.00  0.00    +0.000 A 
ATOM      4  C   UNL     1       1.048   3.039  18.863  0.00  0.00    +0.000 A 
ATOM      5  C   UNL     1       1.944   3.700  18.018  0.00  0.00    +0.000 A 
ATOM      6  C   UNL     1       2.566   4.894  18.410  0.00  0.00    +0.000 A 
ENDROOT
BRANCH   1   7
ATOM      7  O   UNL     1       2.783   6.644  20.055  0.00  0.00    +0.000 OA
BRANCH   7  14
ATOM      8  C   UNL     1      -1.092  11.239  21.386  0.00  0.00    +0.000 A 
ATOM      9  C   UNL     1      -1.227  11.672  20.068  0.00  0.00    +0.000 A 
ATOM     10  C   UNL     1      -0.458  11.086  19.060  0.00  0.00    +0.000 A 
ATOM     11  C   UNL     1       0.424  10.032  19.349  0.00  0.00    +0.000 A 
ATOM     12  C   UNL     1       1.192   9.431  18.340  0.00  0.00    +0.000 A 
ATOM     13  C   UNL     1       2.001   8.329  18.622  0.00  0.00    +0.000 A 
ATOM     14  C   UNL     1       2.067   7.816  19.915  0.00  0.00    +0.000 A 
ATOM     15  C   UNL     1       1.344   8.434  20.942  0.00  0.00    +0.000 A 
ATOM     16  C   UNL     1       0.525   9.550  20.675  0.00  0.00    +0.000 A 
ATOM     17  C   UNL     1      -0.217  10.187  21.688  0.00  0.00    +0.000 A 
BRANCH   8  19
ATOM     18  N   UNL     1      -2.497  12.337  23.273  0.00  0.00    +0.000 NA
ATOM     19  C   UNL     1      -1.864  11.852  22.431  0.00  0.00    +0.000 C 
ENDBRANCH   8  19
ENDBRANCH   7  14
ENDBRANCH   1   7
BRANCH   6  20
ATOM     20  O   UNL     1       3.397   5.424  17.449  0.00  0.00    +0.000 OA
BRANCH  20  21
ATOM     21  C   UNL     1       4.786   5.533  17.785  0.00  0.00    +0.000 C 
BRANCH  21  22
ATOM     22  C   UNL     1       5.573   4.317  17.250  0.00  0.00    +0.000 C 
BRANCH  22  23
ATOM     23  N   UNL     1       6.084   4.466  15.881  0.00  0.00    +0.000 N 
ATOM     24  C   UNL     1       5.551   3.693  14.869  0.00  0.00    +0.000 A 
ATOM     25  C   UNL     1       5.997   3.765  13.613  0.00  0.00    +0.000 A 
ATOM     26  C   UNL     1       7.101   4.688  13.306  0.00  0.00    +0.000 A 
ATOM     27  O   UNL     1       7.622   4.702  12.198  0.00  0.00    +0.000 OA
ATOM     28  N   UNL     1       7.497   5.498  14.330  0.00  0.00    +0.000 N 
ATOM     29  C   UNL     1       7.082   5.402  15.634  0.00  0.00    +0.000 A 
ATOM     30  O   UNL     1       7.585   6.113  16.500  0.00  0.00    +0.000 OA
ATOM     31  H   UNL     1       8.247   6.142  14.138  0.00  0.00    +0.000 HD
ENDBRANCH  22  23
ENDBRANCH  21  22
ENDBRANCH  20  21
ENDBRANCH   6  20
TORSDOF 7
ENDMDL
MODEL 7
REMARK VINA RESULT:      -8.6      1.020      1.609
REMARK  Name = 
REMARK  7 active torsions:
REMARK  status: ('A' for Active; 'I' for Inactive)
REMARK    1  A    between atoms: C_2  and  C_3
REMARK    2  A    between atoms: C_9  and  O_10
REMARK    3  A    between atoms: O_10  and  C_11
REMARK    4  A    between atoms: C_16  and  O_17
REMARK    5  A    between atoms: O_17  and  C_18
REMARK    6  A    between atoms: C_18  and  C_19
REMARK    7  A    between atoms: C_19  and  N_20
REMARK                            x       y       z     vdW  Elec       q    Type
REMARK                         _______ _______ _______ _____ _____    ______ ____
ROOT
ATOM      1  C   UNL     1       2.537   5.168  19.282  0.00  0.00    +0.000 A 
ATOM      2  C   UNL     1       1.530   4.495  19.996  0.00  0.00    +0.000 A 
ATOM      3  C   UNL     1       0.956   3.329  19.494  0.00  0.00    +0.000 A 
ATOM      4  C   UNL     1       1.413   2.803  18.292  0.00  0.00    +0.000 A 
ATOM      5  C   UNL     1       2.455   3.432  17.604  0.00  0.00    +0.000 A 
ATOM      6  C   UNL     1       3.047   4.604  18.097  0.00  0.00    +0.000 A 
ENDROOT
BRANCH   1   7
ATOM      7  O   UNL     1       3.059   6.345  19.767  0.00  0.00    +0.000 OA
BRANCH   7  14
ATOM      8  C   UNL     1      -0.789  10.949  21.144  0.00  0.00    +0.000 A 
ATOM      9  C   UNL     1      -0.923  11.395  19.830  0.00  0.00    +0.000 A 
ATOM     10  C   UNL     1      -0.158  10.813  18.816  0.00  0.00    +0.000 A 
ATOM     11  C   UNL     1       0.718   9.752  19.094  0.00  0.00    +0.000 A 
ATOM     12  C   UNL     1       1.481   9.156  18.079  0.00  0.00    +0.000 A 
ATOM     13  C   UNL     1       2.284   8.048  18.350  0.00  0.00    +0.000 A 
ATOM     14  C   UNL     1       2.349   7.522  19.638  0.00  0.00    +0.000 A 
ATOM     15  C   UNL     1       1.631   8.135  20.672  0.00  0.00    +0.000 A 
ATOM     16  C   UNL     1       0.817   9.258  20.416  0.00  0.00    +0.000 A 
ATOM     17  C   UNL     1       0.080   9.889  21.435  0.00  0.00    +0.000 A 
BRANCH   8  19
ATOM     18  N   UNL     1      -2.170  12.060  23.042  0.00  0.00    +0.000 NA
ATOM     19  C   UNL     1      -1.557  11.556  22.196  0.00  0.00    +0.000 C 
ENDBRANCH   8  19
ENDBRANCH   7  14
ENDBRANCH   1   7
BRANCH   6  20
ATOM     20  O   UNL     1       4.038   5.106  17.283  0.00  0.00    +0.000 OA
BRANCH  20  21
ATOM     21  C   UNL     1       5.095   4.207  16.925  0.00  0.00    +0.000 C 
BRANCH  21  22
ATOM     22  C   UNL     1       6.274   4.331  17.914  0.00  0.00    +0.000 C 
BRANCH  22  23
ATOM     23  N   UNL     1       6.879   5.668  17.990  0.00  0.00    +0.000 N 
ATOM     24  C   UNL     1       6.490   6.642  17.092  0.00  0.00    +0.000 A 
ATOM     25  C   UNL     1       7.026   7.864  17.097  0.00  0.00    +0.000 A 
ATOM     26  C   UNL     1       8.075   8.173  18.081  0.00  0.00    +0.000 A 
ATOM     27  O   UNL     1       8.679   9.237  18.047  0.00  0.00    +0.000 OA
ATOM     28  N   UNL     1       8.323   7.200  19.005  0.00  0.00    +0.000 N 
ATOM     29  C   UNL     1       7.815   5.926  18.984  0.00  0.00    +0.000 A 
ATOM     30  O   UNL     1       8.191   5.093  19.806  0.00  0.00    +0.000 OA
ATOM     31  H   UNL     1       9.033   7.395  19.693  0.00  0.00    +0.000 HD
ENDBRANCH  22  23
ENDBRANCH  21  22
ENDBRANCH  20  21
ENDBRANCH   6  20
TORSDOF 7
ENDMDL
MODEL 8
REMARK VINA RESULT:      -8.4      1.603      2.429
REMARK  Name = 
REMARK  7 active torsions:
REMARK  status: ('A' for Active; 'I' for Inactive)
REMARK    1  A    between atoms: C_2  and  C_3
REMARK    2  A    between atoms: C_9  and  O_10
REMARK    3  A    between atoms: O_10  and  C_11
REMARK    4  A    between atoms: C_16  and  O_17
REMARK    5  A    between atoms: O_17  and  C_18
REMARK    6  A    between atoms: C_18  and  C_19
REMARK    7  A    between atoms: C_19  and  N_20
REMARK                            x       y       z     vdW  Elec       q    Type
REMARK                         _______ _______ _______ _____ _____    ______ ____
ROOT
ATOM      1  C   UNL     1       2.467   4.708  18.650  0.00  0.00    +0.000 A 
ATOM      2  C   UNL     1       1.248   4.131  18.251  0.00  0.00    +0.000 A 
ATOM      3  C   UNL     1       0.783   2.961  18.847  0.00  0.00    +0.000 A 
ATOM      4  C   UNL     1       1.512   2.381  19.878  0.00  0.00    +0.000 A 
ATOM      5  C   UNL     1       2.695   2.980  20.322  0.00  0.00    +0.000 A 
ATOM      6  C   UNL     1       3.176   4.160  19.735  0.00  0.00    +0.000 A 
ENDROOT
BRANCH   1   7
ATOM      7  O   UNL     1       2.937   5.835  18.017  0.00  0.00    +0.000 OA
BRANCH   7  14
ATOM      8  C   UNL     1       0.094  10.184  21.319  0.00  0.00    +0.000 A 
ATOM      9  C   UNL     1       0.115  11.141  20.306  0.00  0.00    +0.000 A 
ATOM     10  C   UNL     1       0.784  10.874  19.108  0.00  0.00    +0.000 A 
ATOM     11  C   UNL     1       1.403   9.633  18.892  0.00  0.00    +0.000 A 
ATOM     12  C   UNL     1       2.066   9.353  17.688  0.00  0.00    +0.000 A 
ATOM     13  C   UNL     1       2.604   8.087  17.449  0.00  0.00    +0.000 A 
ATOM     14  C   UNL     1       2.500   7.084  18.409  0.00  0.00    +0.000 A 
ATOM     15  C   UNL     1       1.882   7.362  19.635  0.00  0.00    +0.000 A 
ATOM     16  C   UNL     1       1.337   8.636  19.894  0.00  0.00    +0.000 A 
ATOM     17  C   UNL     1       0.706   8.940  21.115  0.00  0.00    +0.000 A 
BRANCH   8  19
ATOM     18  N   UNL     1      -1.098  10.683  23.571  0.00  0.00    +0.000 NA
ATOM     19  C   UNL     1      -0.573  10.460  22.561  0.00  0.00    +0.000 C 
ENDBRANCH   8  19
ENDBRANCH   7  14
ENDBRANCH   1   7
BRANCH   6  20
ATOM     20  O   UNL     1       4.364   4.598  20.274  0.00  0.00    +0.000 OA
BRANCH  20  21
ATOM     21  C   UNL     1       5.564   4.215  19.589  0.00  0.00    +0.000 C 
BRANCH  21  22
ATOM     22  C   UNL     1       6.206   5.434  18.893  0.00  0.00    +0.000 C 
BRANCH  22  23
ATOM     23  N   UNL     1       6.431   5.275  17.450  0.00  0.00    +0.000 N 
ATOM     24  C   UNL     1       5.517   5.800  16.558  0.00  0.00    +0.000 A 
ATOM     25  C   UNL     1       5.656   5.661  15.237  0.00  0.00    +0.000 A 
ATOM     26  C   UNL     1       6.812   4.910  14.723  0.00  0.00    +0.000 A 
ATOM     27  O   UNL     1       6.919   4.654  13.530  0.00  0.00    +0.000 OA
ATOM     28  N   UNL     1       7.729   4.523  15.657  0.00  0.00    +0.000 N 
ATOM     29  C   UNL     1       7.576   4.617  17.017  0.00  0.00    +0.000 A 
ATOM     30  O   UNL     1       8.418   4.135  17.771  0.00  0.00    +0.000 OA
ATOM     31  H   UNL     1       8.532   4.014  15.324  0.00  0.00    +0.000 HD
ENDBRANCH  22  23
ENDBRANCH  21  22
ENDBRANCH  20  21
ENDBRANCH   6  20
TORSDOF 7
ENDMDL
MODEL 9
REMARK VINA RESULT:      -8.4      2.243      4.926
REMARK  Name = 
REMARK  7 active torsions:
REMARK  status: ('A' for Active; 'I' for Inactive)
REMARK    1  A    between atoms: C_2  and  C_3
REMARK    2  A    between atoms: C_9  and  O_10
REMARK    3  A    between atoms: O_10  and  C_11
REMARK    4  A    between atoms: C_16  and  O_17
REMARK    5  A    between atoms: O_17  and  C_18
REMARK    6  A    between atoms: C_18  and  C_19
REMARK    7  A    between atoms: C_19  and  N_20
REMARK                            x       y       z     vdW  Elec       q    Type
REMARK                         _______ _______ _______ _____ _____    ______ ____
ROOT
ATOM      1  C   UNL     1       5.213   6.460  17.002  0.00  0.00    +0.000 A 
ATOM      2  C   UNL     1       6.300   7.139  17.581  0.00  0.00    +0.000 A 
ATOM      3  C   UNL     1       7.480   6.466  17.890  0.00  0.00    +0.000 A 
ATOM      4  C   UNL     1       7.599   5.116  17.584  0.00  0.00    +0.000 A 
ATOM      5  C   UNL     1       6.546   4.446  16.953  0.00  0.00    +0.000 A 
ATOM      6  C   UNL     1       5.353   5.109  16.631  0.00  0.00    +0.000 A 
ENDROOT
BRANCH   1   7
ATOM      7  O   UNL     1       4.038   7.127  16.748  0.00  0.00    +0.000 OA
BRANCH   7  14
ATOM      8  C   UNL     1       0.120  10.315  20.269  0.00  0.00    +0.000 A 
ATOM      9  C   UNL     1       0.267   9.496  21.388  0.00  0.00    +0.000 A 
ATOM     10  C   UNL     1       1.039   8.335  21.306  0.00  0.00    +0.000 A 
ATOM     11  C   UNL     1       1.708   7.999  20.118  0.00  0.00    +0.000 A 
ATOM     12  C   UNL     1       2.494   6.841  20.031  0.00  0.00    +0.000 A 
ATOM     13  C   UNL     1       3.223   6.560  18.875  0.00  0.00    +0.000 A 
ATOM     14  C   UNL     1       3.172   7.423  17.783  0.00  0.00    +0.000 A 
ATOM     15  C   UNL     1       2.355   8.558  17.836  0.00  0.00    +0.000 A 
ATOM     16  C   UNL     1       1.609   8.854  18.995  0.00  0.00    +0.000 A 
ATOM     17  C   UNL     1       0.784   9.992  19.078  0.00  0.00    +0.000 A 
BRANCH   8  19
ATOM     18  N   UNL     1      -1.356  12.447  20.393  0.00  0.00    +0.000 NA
ATOM     19  C   UNL     1      -0.690  11.499  20.340  0.00  0.00    +0.000 C 
ENDBRANCH   8  19
ENDBRANCH   7  14
ENDBRANCH   1   7
BRANCH   6  20
ATOM     20  O   UNL     1       4.413   4.296  16.040  0.00  0.00    +0.000 OA
BRANCH  20  21
ATOM     21  C   UNL     1       3.464   3.667  16.910  0.00  0.00    +0.000 C 
BRANCH  21  22
ATOM     22  C   UNL     1       4.166   3.102  18.164  0.00  0.00    +0.000 C 
BRANCH  22  23
ATOM     23  N   UNL     1       3.290   2.898  19.325  0.00  0.00    +0.000 N 
ATOM     24  C   UNL     1       1.952   3.228  19.232  0.00  0.00    +0.000 A 
ATOM     25  C   UNL     1       1.116   3.091  20.264  0.00  0.00    +0.000 A 
ATOM     26  C   UNL     1       1.645   2.588  21.542  0.00  0.00    +0.000 A 
ATOM     27  O   UNL     1       0.946   2.558  22.546  0.00  0.00    +0.000 OA
ATOM     28  N   UNL     1       2.946   2.176  21.522  0.00  0.00    +0.000 N 
ATOM     29  C   UNL     1       3.827   2.355  20.485  0.00  0.00    +0.000 A 
ATOM     30  O   UNL     1       5.009   2.044  20.615  0.00  0.00    +0.000 OA
ATOM     31  H   UNL     1       3.325   1.821  22.385  0.00  0.00    +0.000 HD
ENDBRANCH  22  23
ENDBRANCH  21  22
ENDBRANCH  20  21
ENDBRANCH   6  20
TORSDOF 7
ENDMDL
