MODEL 1
REMARK VINA RESULT:      -7.6      0.000      0.000
REMARK  Name = 
REMARK  6 active torsions:
REMARK  status: ('A' for Active; 'I' for Inactive)
REMARK    1  A    between atoms: C_1  and  O_2
REMARK    2  A    between atoms: O_2  and  C_3
REMARK    3  A    between atoms: C_5  and  C_6
REMARK    4  A    between atoms: C_9  and  C_10
REMARK    5  A    between atoms: C_20  and  C_21
REMARK    6  A    between atoms: C_23  and  O_24
REMARK                            x       y       z     vdW  Elec       q    Type
REMARK                         _______ _______ _______ _____ _____    ______ ____
ROOT
ATOM      1  C   UNL     1       2.489   7.331  19.101  0.00  0.00    +0.000 A 
ATOM      2  C   UNL     1       2.454   8.212  18.034  0.00  0.00    +0.000 A 
ATOM      3  C   UNL     1       1.657   9.363  18.293  0.00  0.00    +0.000 A 
ATOM      4  C   UNL     1       1.242   9.423  19.607  0.00  0.00    +0.000 A 
ATOM      5  S   UNL     1       1.573   7.951  20.415  0.00  0.00    +0.000 S 
ENDROOT
BRANCH   4   6
ATOM      6  C   UNL     1       0.580  10.493  20.338  0.00  0.00    +0.000 C 
ATOM      7  O   UNL     1       1.164  11.144  21.207  0.00  0.00    +0.000 OA
ATOM      8  N   UNL     1      -0.743  10.800  19.998  0.00  0.00    +0.000 N 
ATOM      9  C   UNL     1      -1.535  10.220  18.906  0.00  0.00    +0.000 C 
ATOM     10  C   UNL     1      -2.097  11.302  17.981  0.00  0.00    +0.000 C 
ATOM     11  O   UNL     1      -2.808  12.303  18.718  0.00  0.00    +0.000 OA
ATOM     12  C   UNL     1      -1.943  12.924  19.684  0.00  0.00    +0.000 C 
ATOM     13  C   UNL     1      -1.427  11.893  20.693  0.00  0.00    +0.000 C 
ENDBRANCH   4   6
BRANCH   1  16
ATOM     14  C   UNL     1       4.949   4.453  18.567  0.00  0.00    +0.000 A 
ATOM     15  C   UNL     1       4.327   5.713  18.478  0.00  0.00    +0.000 A 
ATOM     16  C   UNL     1       3.147   6.013  19.174  0.00  0.00    +0.000 A 
ATOM     17  C   UNL     1       2.576   5.008  19.963  0.00  0.00    +0.000 A 
ATOM     18  C   UNL     1       3.178   3.749  20.056  0.00  0.00    +0.000 A 
ATOM     19  C   UNL     1       4.365   3.463  19.364  0.00  0.00    +0.000 A 
BRANCH  14  21
ATOM     20  C   UNL     1       7.253   5.050  18.280  0.00  0.00    +0.000 C 
ATOM     21  O   UNL     1       6.091   4.379  17.815  0.00  0.00    +0.000 OA
ENDBRANCH  14  21
BRANCH  18  22
ATOM     22  C   UNL     1       2.513   2.746  20.908  0.00  0.00    +0.000 C 
ATOM     23  O   UNL     1       3.035   2.355  21.948  0.00  0.00    +0.000 OA
ENDBRANCH  18  22
BRANCH  19  24
ATOM     24  O   UNL     1       4.941   2.224  19.467  0.00  0.00    +0.000 OA
ATOM     25  H   UNL     1       4.949   1.952  20.412  0.00  0.00    +0.000 HD
ENDBRANCH  19  24
ENDBRANCH   1  16
TORSDOF 5
ENDMDL
MODEL 2
REMARK VINA RESULT:      -7.4      2.376      8.037
REMARK  Name = 
REMARK  6 active torsions:
REMARK  status: ('A' for Active; 'I' for Inactive)
REMARK    1  A    between atoms: C_1  and  O_2
REMARK    2  A    between atoms: O_2  and  C_3
REMARK    3  A    between atoms: C_5  and  C_6
REMARK    4  A    between atoms: C_9  and  C_10
REMARK    5  A    between atoms: C_20  and  C_21
REMARK    6  A    between atoms: C_23  and  O_24
REMARK                            x       y       z     vdW  Elec       q    Type
REMARK                         _______ _______ _______ _____ _____    ______ ____
ROOT
ATOM      1  C   UNL     1       1.699   8.606  18.995  0.00  0.00    +0.000 A 
ATOM      2  C   UNL     1       2.372   8.660  17.786  0.00  0.00    +0.000 A 
ATOM      3  C   UNL     1       3.322   7.610  17.635  0.00  0.00    +0.000 A 
ATOM      4  C   UNL     1       3.234   6.680  18.649  0.00  0.00    +0.000 A 
ATOM      5  S   UNL     1       2.219   7.247  19.906  0.00  0.00    +0.000 S 
ENDROOT
BRANCH   4   6
ATOM      6  C   UNL     1       3.871   5.378  18.792  0.00  0.00    +0.000 C 
ATOM      7  O   UNL     1       4.978   5.252  19.319  0.00  0.00    +0.000 OA
ATOM      8  N   UNL     1       3.167   4.252  18.350  0.00  0.00    +0.000 N 
ATOM      9  C   UNL     1       1.796   4.211  17.827  0.00  0.00    +0.000 C 
ATOM     10  C   UNL     1       0.928   3.215  18.601  0.00  0.00    +0.000 C 
ATOM     11  O   UNL     1       1.542   1.923  18.662  0.00  0.00    +0.000 OA
ATOM     12  C   UNL     1       2.827   2.008  19.300  0.00  0.00    +0.000 C 
ATOM     13  C   UNL     1       3.767   2.924  18.508  0.00  0.00    +0.000 C 
ENDBRANCH   4   6
BRANCH   1  16
ATOM     14  C   UNL     1      -0.977  11.327  19.232  0.00  0.00    +0.000 A 
ATOM     15  C   UNL     1      -0.022  10.434  18.709  0.00  0.00    +0.000 A 
ATOM     16  C   UNL     1       0.705   9.556  19.527  0.00  0.00    +0.000 A 
ATOM     17  C   UNL     1       0.470   9.598  20.906  0.00  0.00    +0.000 A 
ATOM     18  C   UNL     1      -0.469  10.484  21.441  0.00  0.00    +0.000 A 
ATOM     19  C   UNL     1      -1.199  11.351  20.612  0.00  0.00    +0.000 A 
BRANCH  14  21
ATOM     20  C   UNL     1      -2.329  11.423  17.255  0.00  0.00    +0.000 C 
ATOM     21  O   UNL     1      -1.573  12.084  18.259  0.00  0.00    +0.000 OA
ENDBRANCH  14  21
BRANCH  18  22
ATOM     22  C   UNL     1      -0.656  10.466  22.904  0.00  0.00    +0.000 C 
ATOM     23  O   UNL     1       0.154   9.908  23.637  0.00  0.00    +0.000 OA
ENDBRANCH  18  22
BRANCH  19  24
ATOM     24  O   UNL     1      -2.116  12.213  21.154  0.00  0.00    +0.000 OA
ATOM     25  H   UNL     1      -2.839  11.692  21.570  0.00  0.00    +0.000 HD
ENDBRANCH  19  24
ENDBRANCH   1  16
TORSDOF 5
ENDMDL
MODEL 3
REMARK VINA RESULT:      -7.4      1.564      2.685
REMARK  Name = 
REMARK  6 active torsions:
REMARK  status: ('A' for Active; 'I' for Inactive)
REMARK    1  A    between atoms: C_1  and  O_2
REMARK    2  A    between atoms: O_2  and  C_3
REMARK    3  A    between atoms: C_5  and  C_6
REMARK    4  A    between atoms: C_9  and  C_10
REMARK    5  A    between atoms: C_20  and  C_21
REMARK    6  A    between atoms: C_23  and  O_24
REMARK                            x       y       z     vdW  Elec       q    Type
REMARK                         _______ _______ _______ _____ _____    ______ ____
ROOT
ATOM      1  C   UNL     1       2.346   7.700  18.472  0.00  0.00    +0.000 A 
ATOM      2  C   UNL     1       2.267   8.827  17.671  0.00  0.00    +0.000 A 
ATOM      3  C   UNL     1       1.534   9.886  18.277  0.00  0.00    +0.000 A 
ATOM      4  C   UNL     1       1.218   9.614  19.592  0.00  0.00    +0.000 A 
ATOM      5  S   UNL     1       1.552   7.977  19.969  0.00  0.00    +0.000 S 
ENDROOT
BRANCH   4   6
ATOM      6  C   UNL     1       0.651  10.472  20.622  0.00  0.00    +0.000 C 
ATOM      7  O   UNL     1       1.316  10.855  21.587  0.00  0.00    +0.000 OA
ATOM      8  N   UNL     1      -0.676  10.892  20.469  0.00  0.00    +0.000 N 
ATOM      9  C   UNL     1      -1.559  10.640  19.324  0.00  0.00    +0.000 C 
ATOM     10  C   UNL     1      -2.128  11.943  18.755  0.00  0.00    +0.000 C 
ATOM     11  O   UNL     1      -2.748  12.733  19.776  0.00  0.00    +0.000 OA
ATOM     12  C   UNL     1      -1.797  13.056  20.806  0.00  0.00    +0.000 C 
ATOM     13  C   UNL     1      -1.266  11.782  21.472  0.00  0.00    +0.000 C 
ENDBRANCH   4   6
BRANCH   1  16
ATOM     14  C   UNL     1       2.803   3.993  17.658  0.00  0.00    +0.000 A 
ATOM     15  C   UNL     1       2.204   5.228  17.972  0.00  0.00    +0.000 A 
ATOM     16  C   UNL     1       2.958   6.397  18.155  0.00  0.00    +0.000 A 
ATOM     17  C   UNL     1       4.349   6.307  18.032  0.00  0.00    +0.000 A 
ATOM     18  C   UNL     1       4.959   5.086  17.727  0.00  0.00    +0.000 A 
ATOM     19  C   UNL     1       4.195   3.924  17.536  0.00  0.00    +0.000 A 
BRANCH  14  21
ATOM     20  C   UNL     1       1.415   2.329  18.683  0.00  0.00    +0.000 C 
ATOM     21  O   UNL     1       1.885   2.987  17.516  0.00  0.00    +0.000 OA
ENDBRANCH  14  21
BRANCH  18  22
ATOM     22  C   UNL     1       6.429   5.077  17.617  0.00  0.00    +0.000 C 
ATOM     23  O   UNL     1       7.113   4.372  18.352  0.00  0.00    +0.000 OA
ENDBRANCH  18  22
BRANCH  19  24
ATOM     24  O   UNL     1       4.809   2.737  17.238  0.00  0.00    +0.000 OA
ATOM     25  H   UNL     1       4.124   2.068  17.014  0.00  0.00    +0.000 HD
ENDBRANCH  19  24
ENDBRANCH   1  16
TORSDOF 5
ENDMDL
MODEL 4
REMARK VINA RESULT:      -7.4      2.941      8.023
REMARK  Name = 
REMARK  6 active torsions:
REMARK  status: ('A' for Active; 'I' for Inactive)
REMARK    1  A    between atoms: C_1  and  O_2
REMARK    2  A    between atoms: O_2  and  C_3
REMARK    3  A    between atoms: C_5  and  C_6
REMARK    4  A    between atoms: C_9  and  C_10
REMARK    5  A    between atoms: C_20  and  C_21
REMARK    6  A    between atoms: C_23  and  O_24
REMARK                            x       y       z     vdW  Elec       q    Type
REMARK                         _______ _______ _______ _____ _____    ______ ____
ROOT
ATOM      1  C   UNL     1       2.049   7.063  19.724  0.00  0.00    +0.000 A 
ATOM      2  C   UNL     1       2.187   5.925  20.500  0.00  0.00    +0.000 A 
ATOM      3  C   UNL     1       2.748   4.831  19.782  0.00  0.00    +0.000 A 
ATOM      4  C   UNL     1       3.187   5.202  18.529  0.00  0.00    +0.000 A 
ATOM      5  S   UNL     1       2.646   6.779  18.139  0.00  0.00    +0.000 S 
ENDROOT
BRANCH   4   6
ATOM      6  C   UNL     1       3.974   4.467  17.549  0.00  0.00    +0.000 C 
ATOM      7  O   UNL     1       3.468   3.612  16.819  0.00  0.00    +0.000 OA
ATOM      8  N   UNL     1       5.332   4.787  17.424  0.00  0.00    +0.000 N 
ATOM      9  C   UNL     1       6.056   5.861  18.115  0.00  0.00    +0.000 C 
ATOM     10  C   UNL     1       6.772   6.784  17.125  0.00  0.00    +0.000 C 
ATOM     11  O   UNL     1       7.599   6.042  16.221  0.00  0.00    +0.000 OA
ATOM     12  C   UNL     1       6.809   5.095  15.481  0.00  0.00    +0.000 C 
ATOM     13  C   UNL     1       6.144   4.087  16.426  0.00  0.00    +0.000 C 
ENDBRANCH   4   6
BRANCH   1  16
ATOM     14  C   UNL     1       0.835  10.687  19.610  0.00  0.00    +0.000 A 
ATOM     15  C   UNL     1       1.423   9.462  19.239  0.00  0.00    +0.000 A 
ATOM     16  C   UNL     1       1.448   8.355  20.101  0.00  0.00    +0.000 A 
ATOM     17  C   UNL     1       0.879   8.499  21.371  0.00  0.00    +0.000 A 
ATOM     18  C   UNL     1       0.297   9.711  21.757  0.00  0.00    +0.000 A 
ATOM     19  C   UNL     1       0.269  10.809  20.883  0.00  0.00    +0.000 A 
BRANCH  14  21
ATOM     20  C   UNL     1       2.098  12.405  18.516  0.00  0.00    +0.000 C 
ATOM     21  O   UNL     1       0.914  11.628  18.619  0.00  0.00    +0.000 OA
ENDBRANCH  14  21
BRANCH  18  22
ATOM     22  C   UNL     1      -0.280   9.780  23.112  0.00  0.00    +0.000 C 
ATOM     23  O   UNL     1       0.417   9.597  24.105  0.00  0.00    +0.000 OA
ENDBRANCH  18  22
BRANCH  19  24
ATOM     24  O   UNL     1      -0.306  11.989  21.278  0.00  0.00    +0.000 OA
ATOM     25  H   UNL     1      -0.864  11.824  22.071  0.00  0.00    +0.000 HD
ENDBRANCH  19  24
ENDBRANCH   1  16
TORSDOF 5
ENDMDL
MODEL 5
REMARK VINA RESULT:      -7.4      0.618      2.522
REMARK  Name = 
REMARK  6 active torsions:
REMARK  status: ('A' for Active; 'I' for Inactive)
REMARK    1  A    between atoms: C_1  and  O_2
REMARK    2  A    between atoms: O_2  and  C_3
REMARK    3  A    between atoms: C_5  and  C_6
REMARK    4  A    between atoms: C_9  and  C_10
REMARK    5  A    between atoms: C_20  and  C_21
REMARK    6  A    between atoms: C_23  and  O_24
REMARK                            x       y       z     vdW  Elec       q    Type
REMARK                         _______ _______ _______ _____ _____    ______ ____
ROOT
ATOM      1  C   UNL     1       2.409   7.278  19.182  0.00  0.00    +0.000 A 
ATOM      2  C   UNL     1       2.359   8.155  18.112  0.00  0.00    +0.000 A 
ATOM      3  C   UNL     1       1.569   9.309  18.379  0.00  0.00    +0.000 A 
ATOM      4  C   UNL     1       1.176   9.375  19.700  0.00  0.00    +0.000 A 
ATOM      5  S   UNL     1       1.517   7.906  20.509  0.00  0.00    +0.000 S 
ENDROOT
BRANCH   4   6
ATOM      6  C   UNL     1       0.529  10.451  20.438  0.00  0.00    +0.000 C 
ATOM      7  O   UNL     1       1.118  11.078  21.321  0.00  0.00    +0.000 OA
ATOM      8  N   UNL     1      -0.783  10.791  20.086  0.00  0.00    +0.000 N 
ATOM      9  C   UNL     1      -1.574  10.242  18.979  0.00  0.00    +0.000 C 
ATOM     10  C   UNL     1      -2.102  11.348  18.061  0.00  0.00    +0.000 C 
ATOM     11  O   UNL     1      -2.800  12.355  18.803  0.00  0.00    +0.000 OA
ATOM     12  C   UNL     1      -1.933  12.945  19.787  0.00  0.00    +0.000 C 
ATOM     13  C   UNL     1      -1.451  11.889  20.789  0.00  0.00    +0.000 C 
ENDBRANCH   4   6
BRANCH   1  16
ATOM     14  C   UNL     1       3.066   3.566  19.819  0.00  0.00    +0.000 A 
ATOM     15  C   UNL     1       2.430   4.821  19.772  0.00  0.00    +0.000 A 
ATOM     16  C   UNL     1       3.064   5.959  19.250  0.00  0.00    +0.000 A 
ATOM     17  C   UNL     1       4.375   5.823  18.781  0.00  0.00    +0.000 A 
ATOM     18  C   UNL     1       5.023   4.584  18.827  0.00  0.00    +0.000 A 
ATOM     19  C   UNL     1       4.376   3.450  19.343  0.00  0.00    +0.000 A 
BRANCH  14  21
ATOM     20  C   UNL     1       1.793   2.766  21.686  0.00  0.00    +0.000 C 
ATOM     21  O   UNL     1       2.266   2.594  20.359  0.00  0.00    +0.000 OA
ENDBRANCH  14  21
BRANCH  18  22
ATOM     22  C   UNL     1       6.404   4.526  18.314  0.00  0.00    +0.000 C 
ATOM     23  O   UNL     1       7.352   4.870  19.013  0.00  0.00    +0.000 OA
ENDBRANCH  18  22
BRANCH  19  24
ATOM     24  O   UNL     1       5.025   2.244  19.380  0.00  0.00    +0.000 OA
ATOM     25  H   UNL     1       4.383   1.541  19.628  0.00  0.00    +0.000 HD
ENDBRANCH  19  24
ENDBRANCH   1  16
TORSDOF 5
ENDMDL
MODEL 6
REMARK VINA RESULT:      -7.3      2.186      2.832
REMARK  Name = 
REMARK  6 active torsions:
REMARK  status: ('A' for Active; 'I' for Inactive)
REMARK    1  A    between atoms: C_1  and  O_2
REMARK    2  A    between atoms: O_2  and  C_3
REMARK    3  A    between atoms: C_5  and  C_6
REMARK    4  A    between atoms: C_9  and  C_10
REMARK    5  A    between atoms: C_20  and  C_21
REMARK    6  A    between atoms: C_23  and  O_24
REMARK                            x       y       z     vdW  Elec       q    Type
REMARK                         _______ _______ _______ _____ _____    ______ ____
ROOT
ATOM      1  C   UNL     1       2.282   7.682  18.695  0.00  0.00    +0.000 A 
ATOM      2  C   UNL     1       1.898   7.805  20.020  0.00  0.00    +0.000 A 
ATOM      3  C   UNL     1       1.152   8.991  20.271  0.00  0.00    +0.000 A 
ATOM      4  C   UNL     1       0.833   9.661  19.108  0.00  0.00    +0.000 A 
ATOM      5  S   UNL     1       1.687   9.006  17.777  0.00  0.00    +0.000 S 
ENDROOT
BRANCH   4   6
ATOM      6  C   UNL     1      -0.056  10.792  18.885  0.00  0.00    +0.000 C 
ATOM      7  O   UNL     1      -1.280  10.657  18.835  0.00  0.00    +0.000 OA
ATOM      8  N   UNL     1       0.518  12.064  18.770  0.00  0.00    +0.000 N 
ATOM      9  C   UNL     1       1.933  12.417  18.938  0.00  0.00    +0.000 C 
ATOM     10  C   UNL     1       2.118  13.522  19.981  0.00  0.00    +0.000 C 
ATOM     11  O   UNL     1       1.288  14.654  19.696  0.00  0.00    +0.000 OA
ATOM     12  C   UNL     1      -0.097  14.269  19.673  0.00  0.00    +0.000 C 
ATOM     13  C   UNL     1      -0.351  13.228  18.577  0.00  0.00    +0.000 C 
ENDBRANCH   4   6
BRANCH   1  16
ATOM     14  C   UNL     1       5.150   5.884  16.917  0.00  0.00    +0.000 A 
ATOM     15  C   UNL     1       4.360   6.900  17.488  0.00  0.00    +0.000 A 
ATOM     16  C   UNL     1       3.117   6.633  18.082  0.00  0.00    +0.000 A 
ATOM     17  C   UNL     1       2.659   5.310  18.081  0.00  0.00    +0.000 A 
ATOM     18  C   UNL     1       3.429   4.291  17.512  0.00  0.00    +0.000 A 
ATOM     19  C   UNL     1       4.676   4.568  16.929  0.00  0.00    +0.000 A 
BRANCH  14  21
ATOM     20  C   UNL     1       7.334   6.794  17.303  0.00  0.00    +0.000 C 
ATOM     21  O   UNL     1       6.325   6.362  16.401  0.00  0.00    +0.000 OA
ENDBRANCH  14  21
BRANCH  18  22
ATOM     22  C   UNL     1       2.875   2.925  17.551  0.00  0.00    +0.000 C 
ATOM     23  O   UNL     1       3.564   1.975  17.908  0.00  0.00    +0.000 OA
ENDBRANCH  18  22
BRANCH  19  24
ATOM     24  O   UNL     1       5.417   3.557  16.376  0.00  0.00    +0.000 OA
ATOM     25  H   UNL     1       4.861   2.748  16.314  0.00  0.00    +0.000 HD
ENDBRANCH  19  24
ENDBRANCH   1  16
TORSDOF 5
ENDMDL
MODEL 7
REMARK VINA RESULT:      -7.3      2.247      3.682
REMARK  Name = 
REMARK  6 active torsions:
REMARK  status: ('A' for Active; 'I' for Inactive)
REMARK    1  A    between atoms: C_1  and  O_2
REMARK    2  A    between atoms: O_2  and  C_3
REMARK    3  A    between atoms: C_5  and  C_6
REMARK    4  A    between atoms: C_9  and  C_10
REMARK    5  A    between atoms: C_20  and  C_21
REMARK    6  A    between atoms: C_23  and  O_24
REMARK                            x       y       z     vdW  Elec       q    Type
REMARK                         _______ _______ _______ _____ _____    ______ ____
ROOT
ATOM      1  C   UNL     1       2.377   7.521  18.724  0.00  0.00    +0.000 A 
ATOM      2  C   UNL     1       1.983   7.667  20.043  0.00  0.00    +0.000 A 
ATOM      3  C   UNL     1       1.231   8.855  20.267  0.00  0.00    +0.000 A 
ATOM      4  C   UNL     1       0.918   9.502  19.090  0.00  0.00    +0.000 A 
ATOM      5  S   UNL     1       1.785   8.826  17.778  0.00  0.00    +0.000 S 
ENDROOT
BRANCH   4   6
ATOM      6  C   UNL     1       0.028  10.627  18.841  0.00  0.00    +0.000 C 
ATOM      7  O   UNL     1      -1.194  10.483  18.766  0.00  0.00    +0.000 OA
ATOM      8  N   UNL     1       0.596  11.901  18.727  0.00  0.00    +0.000 N 
ATOM      9  C   UNL     1       2.005  12.264  18.922  0.00  0.00    +0.000 C 
ATOM     10  C   UNL     1       2.161  13.378  19.961  0.00  0.00    +0.000 C 
ATOM     11  O   UNL     1       1.331  14.503  19.651  0.00  0.00    +0.000 OA
ATOM     12  C   UNL     1      -0.051  14.108  19.601  0.00  0.00    +0.000 C 
ATOM     13  C   UNL     1      -0.276  13.058  18.508  0.00  0.00    +0.000 C 
ENDBRANCH   4   6
BRANCH   1  16
ATOM     14  C   UNL     1       3.569   4.164  17.337  0.00  0.00    +0.000 A 
ATOM     15  C   UNL     1       2.755   5.159  17.910  0.00  0.00    +0.000 A 
ATOM     16  C   UNL     1       3.220   6.464  18.136  0.00  0.00    +0.000 A 
ATOM     17  C   UNL     1       4.543   6.758  17.790  0.00  0.00    +0.000 A 
ATOM     18  C   UNL     1       5.366   5.779  17.226  0.00  0.00    +0.000 A 
ATOM     19  C   UNL     1       4.888   4.479  16.994  0.00  0.00    +0.000 A 
BRANCH  14  21
ATOM     20  C   UNL     1       2.488   2.290  18.370  0.00  0.00    +0.000 C 
ATOM     21  O   UNL     1       2.916   2.968  17.198  0.00  0.00    +0.000 OA
ENDBRANCH  14  21
BRANCH  18  22
ATOM     22  C   UNL     1       6.747   6.171  16.890  0.00  0.00    +0.000 C 
ATOM     23  O   UNL     1       7.267   5.814  15.838  0.00  0.00    +0.000 OA
ENDBRANCH  18  22
BRANCH  19  24
ATOM     24  O   UNL     1       5.709   3.532  16.442  0.00  0.00    +0.000 OA
ATOM     25  H   UNL     1       6.641   3.838  16.505  0.00  0.00    +0.000 HD
ENDBRANCH  19  24
ENDBRANCH   1  16
TORSDOF 5
ENDMDL
MODEL 8
REMARK VINA RESULT:      -7.3      1.461      2.200
REMARK  Name = 
REMARK  6 active torsions:
REMARK  status: ('A' for Active; 'I' for Inactive)
REMARK    1  A    between atoms: C_1  and  O_2
REMARK    2  A    between atoms: O_2  and  C_3
REMARK    3  A    between atoms: C_5  and  C_6
REMARK    4  A    between atoms: C_9  and  C_10
REMARK    5  A    between atoms: C_20  and  C_21
REMARK    6  A    between atoms: C_23  and  O_24
REMARK                            x       y       z     vdW  Elec       q    Type
REMARK                         _______ _______ _______ _____ _____    ______ ____
ROOT
ATOM      1  C   UNL     1       2.676   7.179  18.867  0.00  0.00    +0.000 A 
ATOM      2  C   UNL     1       2.828   7.983  17.750  0.00  0.00    +0.000 A 
ATOM      3  C   UNL     1       2.001   9.141  17.786  0.00  0.00    +0.000 A 
ATOM      4  C   UNL     1       1.365   9.288  19.001  0.00  0.00    +0.000 A 
ATOM      5  S   UNL     1       1.548   7.879  19.956  0.00  0.00    +0.000 S 
ENDROOT
BRANCH   4   6
ATOM      6  C   UNL     1       0.589  10.401  19.530  0.00  0.00    +0.000 C 
ATOM      7  O   UNL     1      -0.104  11.114  18.801  0.00  0.00    +0.000 OA
ATOM      8  N   UNL     1       0.615  10.620  20.913  0.00  0.00    +0.000 N 
ATOM      9  C   UNL     1       1.274   9.791  21.929  0.00  0.00    +0.000 C 
ATOM     10  C   UNL     1       0.294   9.355  23.022  0.00  0.00    +0.000 C 
ATOM     11  O   UNL     1      -0.402  10.476  23.579  0.00  0.00    +0.000 OA
ATOM     12  C   UNL     1      -1.132  11.172  22.555  0.00  0.00    +0.000 C 
ATOM     13  C   UNL     1      -0.181  11.711  21.480  0.00  0.00    +0.000 C 
ENDBRANCH   4   6
BRANCH   1  16
ATOM     14  C   UNL     1       5.186   4.296  18.970  0.00  0.00    +0.000 A 
ATOM     15  C   UNL     1       4.592   5.541  18.687  0.00  0.00    +0.000 A 
ATOM     16  C   UNL     1       3.308   5.876  19.144  0.00  0.00    +0.000 A 
ATOM     17  C   UNL     1       2.607   4.922  19.889  0.00  0.00    +0.000 A 
ATOM     18  C   UNL     1       3.180   3.679  20.174  0.00  0.00    +0.000 A 
ATOM     19  C   UNL     1       4.470   3.357  19.720  0.00  0.00    +0.000 A 
BRANCH  14  21
ATOM     20  C   UNL     1       6.655   4.629  17.106  0.00  0.00    +0.000 C 
ATOM     21  O   UNL     1       6.441   4.182  18.436  0.00  0.00    +0.000 OA
ENDBRANCH  14  21
BRANCH  18  22
ATOM     22  C   UNL     1       2.375   2.730  20.964  0.00  0.00    +0.000 C 
ATOM     23  O   UNL     1       2.004   3.010  22.100  0.00  0.00    +0.000 OA
ENDBRANCH  18  22
BRANCH  19  24
ATOM     24  O   UNL     1       5.016   2.135  20.008  0.00  0.00    +0.000 OA
ATOM     25  H   UNL     1       4.514   1.725  20.748  0.00  0.00    +0.000 HD
ENDBRANCH  19  24
ENDBRANCH   1  16
TORSDOF 5
ENDMDL
MODEL 9
REMARK VINA RESULT:      -7.3      2.295      8.300
REMARK  Name = 
REMARK  6 active torsions:
REMARK  status: ('A' for Active; 'I' for Inactive)
REMARK    1  A    between atoms: C_1  and  O_2
REMARK    2  A    between atoms: O_2  and  C_3
REMARK    3  A    between atoms: C_5  and  C_6
REMARK    4  A    between atoms: C_9  and  C_10
REMARK    5  A    between atoms: C_20  and  C_21
REMARK    6  A    between atoms: C_23  and  O_24
REMARK                            x       y       z     vdW  Elec       q    Type
REMARK                         _______ _______ _______ _____ _____    ______ ____
ROOT
ATOM      1  C   UNL     1       1.749   8.624  18.812  0.00  0.00    +0.000 A 
ATOM      2  C   UNL     1       2.466   8.609  17.628  0.00  0.00    +0.000 A 
ATOM      3  C   UNL     1       3.409   7.545  17.566  0.00  0.00    +0.000 A 
ATOM      4  C   UNL     1       3.274   6.669  18.623  0.00  0.00    +0.000 A 
ATOM      5  S   UNL     1       2.220   7.308  19.810  0.00  0.00    +0.000 S 
ENDROOT
BRANCH   4   6
ATOM      6  C   UNL     1       3.891   5.371  18.856  0.00  0.00    +0.000 C 
ATOM      7  O   UNL     1       4.964   5.259  19.453  0.00  0.00    +0.000 OA
ATOM      8  N   UNL     1       3.208   4.231  18.416  0.00  0.00    +0.000 N 
ATOM      9  C   UNL     1       1.870   4.176  17.813  0.00  0.00    +0.000 C 
ATOM     10  C   UNL     1       0.949   3.217  18.572  0.00  0.00    +0.000 C 
ATOM     11  O   UNL     1       1.549   1.925  18.721  0.00  0.00    +0.000 OA
ATOM     12  C   UNL     1       2.794   2.029  19.433  0.00  0.00    +0.000 C 
ATOM     13  C   UNL     1       3.787   2.908  18.664  0.00  0.00    +0.000 C 
ENDBRANCH   4   6
BRANCH   1  16
ATOM     14  C   UNL     1      -0.315  10.987  20.997  0.00  0.00    +0.000 A 
ATOM     15  C   UNL     1       0.641  10.038  20.589  0.00  0.00    +0.000 A 
ATOM     16  C   UNL     1       0.746   9.608  19.258  0.00  0.00    +0.000 A 
ATOM     17  C   UNL     1      -0.150  10.141  18.324  0.00  0.00    +0.000 A 
ATOM     18  C   UNL     1      -1.110  11.080  18.714  0.00  0.00    +0.000 A 
ATOM     19  C   UNL     1      -1.199  11.510  20.048  0.00  0.00    +0.000 A 
BRANCH  14  21
ATOM     20  C   UNL     1      -0.930  10.427  23.245  0.00  0.00    +0.000 C 
ATOM     21  O   UNL     1      -0.237  11.268  22.335  0.00  0.00    +0.000 OA
ENDBRANCH  14  21
BRANCH  18  22
ATOM     22  C   UNL     1      -2.016  11.591  17.669  0.00  0.00    +0.000 C 
ATOM     23  O   UNL     1      -3.231  11.606  17.839  0.00  0.00    +0.000 OA
ENDBRANCH  18  22
BRANCH  19  24
ATOM     24  O   UNL     1      -2.146  12.431  20.412  0.00  0.00    +0.000 OA
ATOM     25  H   UNL     1      -3.036  12.092  20.165  0.00  0.00    +0.000 HD
ENDBRANCH  19  24
ENDBRANCH   1  16
TORSDOF 5
ENDMDL
