MODEL 1
REMARK VINA RESULT:      -7.0      0.000      0.000
REMARK  Name = 
REMARK  5 active torsions:
REMARK  status: ('A' for Active; 'I' for Inactive)
REMARK    1  A    between atoms: C_1  and  N_2
REMARK    2  A    between atoms: N_2  and  N_3
REMARK    3  A    between atoms: C_4  and  C_5
REMARK    4  A    between atoms: N_6  and  N_7
REMARK    5  A    between atoms: N_7  and  C_8
REMARK                            x       y       z     vdW  Elec       q    Type
REMARK                         _______ _______ _______ _____ _____    ______ ____
ROOT
ATOM      1  N   UNL     1       2.420   7.332  18.324  0.00  0.00    +0.000 NA
ATOM      2  C   UNL     1       2.576   8.486  17.755  0.00  0.00    +0.000 C 
ENDROOT
BRANCH   1   4
ATOM      3  C   UNL     1       4.387   6.244  17.248  0.00  0.00    +0.000 C 
ATOM      4  N   UNL     1       3.183   6.200  18.074  0.00  0.00    +0.000 N 
ATOM      5  C   UNL     1       2.871   4.979  18.772  0.00  0.00    +0.000 C 
ATOM      6  N   UNL     1       3.683   3.968  18.646  0.00  0.00    +0.000 NA
ATOM      7  C   UNL     1       3.589   2.600  19.149  0.00  0.00    +0.000 C 
ATOM      8  C   UNL     1       2.158   2.123  19.398  0.00  0.00    +0.000 C 
ATOM      9  C   UNL     1       1.523   2.692  20.663  0.00  0.00    +0.000 C 
ATOM     10  C   UNL     1       1.766   4.183  20.862  0.00  0.00    +0.000 C 
ATOM     11  N   UNL     1       1.723   4.938  19.632  0.00  0.00    +0.000 N 
ATOM     12  H   UNL     1       1.023   5.691  19.572  0.00  0.00    +0.000 HD
ENDBRANCH   1   4
BRANCH   2  13
ATOM     13  C   UNL     1       1.753   9.627  18.208  0.00  0.00    +0.000 C 
ATOM     14  N   UNL     1       0.698   9.439  18.939  0.00  0.00    +0.000 NA
BRANCH  14  15
ATOM     15  N   UNL     1      -0.192  10.427  19.355  0.00  0.00    +0.000 N 
ATOM     16  C   UNL     1       0.109  11.378  20.426  0.00  0.00    +0.000 C 
ATOM     17  C   UNL     1      -1.422  10.618  18.627  0.00  0.00    +0.000 C 
ATOM     18  N   UNL     1      -2.191  11.616  18.960  0.00  0.00    +0.000 NA
ATOM     19  C   UNL     1      -3.510  12.015  18.472  0.00  0.00    +0.000 C 
ATOM     20  C   UNL     1      -4.328  10.875  17.865  0.00  0.00    +0.000 C 
ATOM     21  C   UNL     1      -3.866  10.446  16.474  0.00  0.00    +0.000 C 
ATOM     22  C   UNL     1      -2.354  10.335  16.340  0.00  0.00    +0.000 C 
ATOM     23  N   UNL     1      -1.721   9.769  17.510  0.00  0.00    +0.000 N 
ATOM     24  H   UNL     1      -1.177   8.906  17.373  0.00  0.00    +0.000 HD
ENDBRANCH  14  15
ENDBRANCH   2  13
TORSDOF 3
ENDMDL
MODEL 2
REMARK VINA RESULT:      -6.9      0.363      8.172
REMARK  Name = 
REMARK  5 active torsions:
REMARK  status: ('A' for Active; 'I' for Inactive)
REMARK    1  A    between atoms: C_1  and  N_2
REMARK    2  A    between atoms: N_2  and  N_3
REMARK    3  A    between atoms: C_4  and  C_5
REMARK    4  A    between atoms: N_6  and  N_7
REMARK    5  A    between atoms: N_7  and  C_8
REMARK                            x       y       z     vdW  Elec       q    Type
REMARK                         _______ _______ _______ _____ _____    ______ ____
ROOT
ATOM      1  N   UNL     1       0.498   9.538  18.984  0.00  0.00    +0.000 NA
ATOM      2  C   UNL     1       1.500   9.771  18.196  0.00  0.00    +0.000 C 
ENDROOT
BRANCH   1   4
ATOM      3  C   UNL     1      -0.227  11.371  20.510  0.00  0.00    +0.000 C 
ATOM      4  N   UNL     1      -0.450  10.472  19.381  0.00  0.00    +0.000 N 
ATOM      5  C   UNL     1      -1.621  10.669  18.566  0.00  0.00    +0.000 C 
ATOM      6  N   UNL     1      -2.426  11.650  18.863  0.00  0.00    +0.000 NA
ATOM      7  C   UNL     1      -3.711  12.037  18.288  0.00  0.00    +0.000 C 
ATOM      8  C   UNL     1      -4.472  10.886  17.628  0.00  0.00    +0.000 C 
ATOM      9  C   UNL     1      -3.922  10.476  16.265  0.00  0.00    +0.000 C 
ATOM     10  C   UNL     1      -2.403  10.378  16.214  0.00  0.00    +0.000 C 
ATOM     11  N   UNL     1      -1.825   9.830  17.419  0.00  0.00    +0.000 N 
ATOM     12  H   UNL     1      -1.265   8.972  17.318  0.00  0.00    +0.000 HD
ENDBRANCH   1   4
BRANCH   2  13
ATOM     13  C   UNL     1       2.360   8.645  17.778  0.00  0.00    +0.000 C 
ATOM     14  N   UNL     1       2.483   7.589  18.521  0.00  0.00    +0.000 NA
BRANCH  14  15
ATOM     15  N   UNL     1       3.324   6.507  18.268  0.00  0.00    +0.000 N 
ATOM     16  C   UNL     1       4.514   6.598  17.421  0.00  0.00    +0.000 C 
ATOM     17  C   UNL     1       3.100   5.263  18.963  0.00  0.00    +0.000 C 
ATOM     18  N   UNL     1       3.959   4.297  18.799  0.00  0.00    +0.000 NA
ATOM     19  C   UNL     1       3.964   2.923  19.295  0.00  0.00    +0.000 C 
ATOM     20  C   UNL     1       2.578   2.368  19.627  0.00  0.00    +0.000 C 
ATOM     21  C   UNL     1       1.984   2.909  20.925  0.00  0.00    +0.000 C 
ATOM     22  C   UNL     1       2.169   4.409  21.104  0.00  0.00    +0.000 C 
ATOM     23  N   UNL     1       1.998   5.152  19.876  0.00  0.00    +0.000 N 
ATOM     24  H   UNL     1       1.260   5.869  19.864  0.00  0.00    +0.000 HD
ENDBRANCH  14  15
ENDBRANCH   2  13
TORSDOF 3
ENDMDL
MODEL 3
REMARK VINA RESULT:      -6.7      6.383      8.955
REMARK  Name = 
REMARK  5 active torsions:
REMARK  status: ('A' for Active; 'I' for Inactive)
REMARK    1  A    between atoms: C_1  and  N_2
REMARK    2  A    between atoms: N_2  and  N_3
REMARK    3  A    between atoms: C_4  and  C_5
REMARK    4  A    between atoms: N_6  and  N_7
REMARK    5  A    between atoms: N_7  and  C_8
REMARK                            x       y       z     vdW  Elec       q    Type
REMARK                         _______ _______ _______ _____ _____    ______ ____
ROOT
ATOM      1  N   UNL     1       6.684   7.507  17.218  0.00  0.00    +0.000 NA
ATOM      2  C   UNL     1       7.871   7.862  17.597  0.00  0.00    +0.000 C 
ENDROOT
BRANCH   1   4
ATOM      3  C   UNL     1       7.187   5.470  15.874  0.00  0.00    +0.000 C 
ATOM      4  N   UNL     1       6.326   6.246  16.763  0.00  0.00    +0.000 N 
ATOM      5  C   UNL     1       5.148   5.616  17.302  0.00  0.00    +0.000 C 
ATOM      6  N   UNL     1       4.906   4.376  16.982  0.00  0.00    +0.000 NA
ATOM      7  C   UNL     1       3.768   3.515  17.293  0.00  0.00    +0.000 C 
ATOM      8  C   UNL     1       2.468   4.273  17.567  0.00  0.00    +0.000 C 
ATOM      9  C   UNL     1       2.411   4.938  18.938  0.00  0.00    +0.000 C 
ATOM     10  C   UNL     1       3.693   5.665  19.328  0.00  0.00    +0.000 C 
ATOM     11  N   UNL     1       4.322   6.346  18.221  0.00  0.00    +0.000 N 
ATOM     12  H   UNL     1       4.452   7.364  18.314  0.00  0.00    +0.000 HD
ENDBRANCH   1   4
BRANCH   2  13
ATOM     13  C   UNL     1       8.071   9.213  18.162  0.00  0.00    +0.000 C 
ATOM     14  N   UNL     1       9.089   9.474  18.921  0.00  0.00    +0.000 NA
BRANCH  14  15
ATOM     15  N   UNL     1       9.334  10.683  19.570  0.00  0.00    +0.000 N 
ATOM     16  C   UNL     1       9.000  10.920  20.975  0.00  0.00    +0.000 C 
ATOM     17  C   UNL     1      10.062  11.719  18.879  0.00  0.00    +0.000 C 
ATOM     18  N   UNL     1      10.377  12.799  19.536  0.00  0.00    +0.000 NA
ATOM     19  C   UNL     1      11.030  14.031  19.099  0.00  0.00    +0.000 C 
ATOM     20  C   UNL     1      10.885  14.325  17.605  0.00  0.00    +0.000 C 
ATOM     21  C   UNL     1      11.767  13.457  16.710  0.00  0.00    +0.000 C 
ATOM     22  C   UNL     1      11.785  11.988  17.109  0.00  0.00    +0.000 C 
ATOM     23  N   UNL     1      10.492  11.499  17.528  0.00  0.00    +0.000 N 
ATOM     24  H   UNL     1      10.097  10.711  16.996  0.00  0.00    +0.000 HD
ENDBRANCH  14  15
ENDBRANCH   2  13
TORSDOF 3
ENDMDL
MODEL 4
REMARK VINA RESULT:      -6.6      2.966      4.059
REMARK  Name = 
REMARK  5 active torsions:
REMARK  status: ('A' for Active; 'I' for Inactive)
REMARK    1  A    between atoms: C_1  and  N_2
REMARK    2  A    between atoms: N_2  and  N_3
REMARK    3  A    between atoms: C_4  and  C_5
REMARK    4  A    between atoms: N_6  and  N_7
REMARK    5  A    between atoms: N_7  and  C_8
REMARK                            x       y       z     vdW  Elec       q    Type
REMARK                         _______ _______ _______ _____ _____    ______ ____
ROOT
ATOM      1  N   UNL     1       2.617   7.457  18.283  0.00  0.00    +0.000 NA
ATOM      2  C   UNL     1       2.443   8.580  17.660  0.00  0.00    +0.000 C 
ENDROOT
BRANCH   1   4
ATOM      3  C   UNL     1       4.707   6.619  17.215  0.00  0.00    +0.000 C 
ATOM      4  N   UNL     1       3.405   6.403  17.841  0.00  0.00    +0.000 N 
ATOM      5  C   UNL     1       3.004   5.054  18.147  0.00  0.00    +0.000 C 
ATOM      6  N   UNL     1       3.826   4.084  17.862  0.00  0.00    +0.000 NA
ATOM      7  C   UNL     1       3.666   2.636  17.970  0.00  0.00    +0.000 C 
ATOM      8  C   UNL     1       2.214   2.161  17.903  0.00  0.00    +0.000 C 
ATOM      9  C   UNL     1       1.419   2.401  19.183  0.00  0.00    +0.000 C 
ATOM     10  C   UNL     1       1.635   3.778  19.797  0.00  0.00    +0.000 C 
ATOM     11  N   UNL     1       1.754   4.830  18.814  0.00  0.00    +0.000 N 
ATOM     12  H   UNL     1       1.068   5.597  18.868  0.00  0.00    +0.000 HD
ENDBRANCH   1   4
BRANCH   2  13
ATOM     13  C   UNL     1       1.660   9.649  18.312  0.00  0.00    +0.000 C 
ATOM     14  N   UNL     1       1.967  10.898  18.144  0.00  0.00    +0.000 NA
BRANCH  14  15
ATOM     15  N   UNL     1       1.352  11.981  18.770  0.00  0.00    +0.000 N 
ATOM     16  C   UNL     1       0.214  11.840  19.680  0.00  0.00    +0.000 C 
ATOM     17  C   UNL     1       1.927  13.296  18.626  0.00  0.00    +0.000 C 
ATOM     18  N   UNL     1       1.405  14.278  19.306  0.00  0.00    +0.000 NA
ATOM     19  C   UNL     1       1.708  15.708  19.313  0.00  0.00    +0.000 C 
ATOM     20  C   UNL     1       2.357  16.220  18.027  0.00  0.00    +0.000 C 
ATOM     21  C   UNL     1       3.828  15.837  17.874  0.00  0.00    +0.000 C 
ATOM     22  C   UNL     1       4.125  14.392  18.249  0.00  0.00    +0.000 C 
ATOM     23  N   UNL     1       3.098  13.471  17.817  0.00  0.00    +0.000 N 
ATOM     24  H   UNL     1       3.387  12.716  17.179  0.00  0.00    +0.000 HD
ENDBRANCH  14  15
ENDBRANCH   2  13
TORSDOF 3
ENDMDL
MODEL 5
REMARK VINA RESULT:      -6.6      2.908      8.932
REMARK  Name = 
REMARK  5 active torsions:
REMARK  status: ('A' for Active; 'I' for Inactive)
REMARK    1  A    between atoms: C_1  and  N_2
REMARK    2  A    between atoms: N_2  and  N_3
REMARK    3  A    between atoms: C_4  and  C_5
REMARK    4  A    between atoms: N_6  and  N_7
REMARK    5  A    between atoms: N_7  and  C_8
REMARK                            x       y       z     vdW  Elec       q    Type
REMARK                         _______ _______ _______ _____ _____    ______ ____
ROOT
ATOM      1  N   UNL     1       1.771  10.880  18.216  0.00  0.00    +0.000 NA
ATOM      2  C   UNL     1       1.499   9.636  18.454  0.00  0.00    +0.000 C 
ENDROOT
BRANCH   1   4
ATOM      3  C   UNL     1       0.095  11.819  19.803  0.00  0.00    +0.000 C 
ATOM      4  N   UNL     1       1.204  11.968  18.864  0.00  0.00    +0.000 N 
ATOM      5  C   UNL     1       1.822  13.262  18.729  0.00  0.00    +0.000 C 
ATOM      6  N   UNL     1       1.373  14.243  19.460  0.00  0.00    +0.000 NA
ATOM      7  C   UNL     1       1.730  15.659  19.481  0.00  0.00    +0.000 C 
ATOM      8  C   UNL     1       2.301  16.178  18.160  0.00  0.00    +0.000 C 
ATOM      9  C   UNL     1       3.744  15.761  17.898  0.00  0.00    +0.000 C 
ATOM     10  C   UNL     1       4.032  14.298  18.211  0.00  0.00    +0.000 C 
ATOM     11  N   UNL     1       2.949  13.413  17.853  0.00  0.00    +0.000 N 
ATOM     12  H   UNL     1       3.162  12.666  17.176  0.00  0.00    +0.000 HD
ENDBRANCH   1   4
BRANCH   2  13
ATOM     13  C   UNL     1       2.268   8.586  17.755  0.00  0.00    +0.000 C 
ATOM     14  N   UNL     1       2.636   7.506  18.373  0.00  0.00    +0.000 NA
BRANCH  14  15
ATOM     15  N   UNL     1       3.429   6.491  17.840  0.00  0.00    +0.000 N 
ATOM     16  C   UNL     1       4.676   6.745  17.117  0.00  0.00    +0.000 C 
ATOM     17  C   UNL     1       3.087   5.116  18.109  0.00  0.00    +0.000 C 
ATOM     18  N   UNL     1       3.899   4.184  17.697  0.00  0.00    +0.000 NA
ATOM     19  C   UNL     1       3.792   2.727  17.748  0.00  0.00    +0.000 C 
ATOM     20  C   UNL     1       2.357   2.204  17.829  0.00  0.00    +0.000 C 
ATOM     21  C   UNL     1       1.709   2.370  19.201  0.00  0.00    +0.000 C 
ATOM     22  C   UNL     1       1.967   3.728  19.839  0.00  0.00    +0.000 C 
ATOM     23  N   UNL     1       1.922   4.817  18.891  0.00  0.00    +0.000 N 
ATOM     24  H   UNL     1       1.229   5.558  19.065  0.00  0.00    +0.000 HD
ENDBRANCH  14  15
ENDBRANCH   2  13
TORSDOF 3
ENDMDL
MODEL 6
REMARK VINA RESULT:      -6.6      6.441     10.093
REMARK  Name = 
REMARK  5 active torsions:
REMARK  status: ('A' for Active; 'I' for Inactive)
REMARK    1  A    between atoms: C_1  and  N_2
REMARK    2  A    between atoms: N_2  and  N_3
REMARK    3  A    between atoms: C_4  and  C_5
REMARK    4  A    between atoms: N_6  and  N_7
REMARK    5  A    between atoms: N_7  and  C_8
REMARK                            x       y       z     vdW  Elec       q    Type
REMARK                         _______ _______ _______ _____ _____    ______ ____
ROOT
ATOM      1  N   UNL     1       9.148   9.506  18.969  0.00  0.00    +0.000 NA
ATOM      2  C   UNL     1       8.128   9.266  18.206  0.00  0.00    +0.000 C 
ENDROOT
BRANCH   1   4
ATOM      3  C   UNL     1       9.100  10.925  21.017  0.00  0.00    +0.000 C 
ATOM      4  N   UNL     1       9.412  10.711  19.606  0.00  0.00    +0.000 N 
ATOM      5  C   UNL     1      10.154  11.725  18.903  0.00  0.00    +0.000 C 
ATOM      6  N   UNL     1      10.527  12.788  19.560  0.00  0.00    +0.000 NA
ATOM      7  C   UNL     1      11.199  14.002  19.107  0.00  0.00    +0.000 C 
ATOM      8  C   UNL     1      10.981  14.322  17.627  0.00  0.00    +0.000 C 
ATOM      9  C   UNL     1      11.792  13.450  16.674  0.00  0.00    +0.000 C 
ATOM     10  C   UNL     1      11.791  11.970  17.036  0.00  0.00    +0.000 C 
ATOM     11  N   UNL     1      10.517  11.505  17.533  0.00  0.00    +0.000 N 
ATOM     12  H   UNL     1      10.064  10.741  17.010  0.00  0.00    +0.000 HD
ENDBRANCH   1   4
BRANCH   2  13
ATOM     13  C   UNL     1       7.927   7.897  17.687  0.00  0.00    +0.000 C 
ATOM     14  N   UNL     1       6.775   7.523  17.223  0.00  0.00    +0.000 NA
BRANCH  14  15
ATOM     15  N   UNL     1       6.450   6.240  16.785  0.00  0.00    +0.000 N 
ATOM     16  C   UNL     1       7.324   5.443  15.923  0.00  0.00    +0.000 C 
ATOM     17  C   UNL     1       5.261   5.603  17.294  0.00  0.00    +0.000 C 
ATOM     18  N   UNL     1       5.030   4.365  16.960  0.00  0.00    +0.000 NA
ATOM     19  C   UNL     1       3.895   3.490  17.245  0.00  0.00    +0.000 C 
ATOM     20  C   UNL     1       2.588   4.229  17.535  0.00  0.00    +0.000 C 
ATOM     21  C   UNL     1       2.529   4.874  18.918  0.00  0.00    +0.000 C 
ATOM     22  C   UNL     1       3.811   5.593  19.312  0.00  0.00    +0.000 C 
ATOM     23  N   UNL     1       4.418   6.311  18.215  0.00  0.00    +0.000 N 
ATOM     24  H   UNL     1       4.543   7.325  18.333  0.00  0.00    +0.000 HD
ENDBRANCH  14  15
ENDBRANCH   2  13
TORSDOF 3
ENDMDL
MODEL 7
REMARK VINA RESULT:      -6.5      1.401      8.147
REMARK  Name = 
REMARK  5 active torsions:
REMARK  status: ('A' for Active; 'I' for Inactive)
REMARK    1  A    between atoms: C_1  and  N_2
REMARK    2  A    between atoms: N_2  and  N_3
REMARK    3  A    between atoms: C_4  and  C_5
REMARK    4  A    between atoms: N_6  and  N_7
REMARK    5  A    between atoms: N_7  and  C_8
REMARK                            x       y       z     vdW  Elec       q    Type
REMARK                         _______ _______ _______ _____ _____    ______ ____
ROOT
ATOM      1  N   UNL     1       0.541   9.662  18.969  0.00  0.00    +0.000 NA
ATOM      2  C   UNL     1       1.367   9.414  18.001  0.00  0.00    +0.000 C 
ENDROOT
BRANCH   1   4
ATOM      3  C   UNL     1      -1.432  10.495  17.695  0.00  0.00    +0.000 C 
ATOM      4  N   UNL     1      -0.582  10.473  18.883  0.00  0.00    +0.000 N 
ATOM      5  C   UNL     1      -1.013  11.196  20.051  0.00  0.00    +0.000 C 
ATOM      6  N   UNL     1      -2.150  11.832  20.003  0.00  0.00    +0.000 NA
ATOM      7  C   UNL     1      -2.795  12.708  20.977  0.00  0.00    +0.000 C 
ATOM      8  C   UNL     1      -1.824  13.396  21.938  0.00  0.00    +0.000 C 
ATOM      9  C   UNL     1      -1.280  12.485  23.034  0.00  0.00    +0.000 C 
ATOM     10  C   UNL     1      -0.855  11.108  22.540  0.00  0.00    +0.000 C 
ATOM     11  N   UNL     1      -0.217  11.138  21.244  0.00  0.00    +0.000 N 
ATOM     12  H   UNL     1       0.744  10.771  21.189  0.00  0.00    +0.000 HD
ENDBRANCH   1   4
BRANCH   2  13
ATOM     13  C   UNL     1       2.457   8.441  18.219  0.00  0.00    +0.000 C 
ATOM     14  N   UNL     1       2.360   7.223  17.783  0.00  0.00    +0.000 NA
BRANCH  14  15
ATOM     15  N   UNL     1       3.286   6.203  17.999  0.00  0.00    +0.000 N 
ATOM     16  C   UNL     1       4.682   6.284  17.567  0.00  0.00    +0.000 C 
ATOM     17  C   UNL     1       2.902   5.062  18.793  0.00  0.00    +0.000 C 
ATOM     18  N   UNL     1       3.810   4.172  19.077  0.00  0.00    +0.000 NA
ATOM     19  C   UNL     1       3.715   2.894  19.780  0.00  0.00    +0.000 C 
ATOM     20  C   UNL     1       2.323   2.262  19.750  0.00  0.00    +0.000 C 
ATOM     21  C   UNL     1       1.313   2.930  20.681  0.00  0.00    +0.000 C 
ATOM     22  C   UNL     1       1.363   4.451  20.645  0.00  0.00    +0.000 C 
ATOM     23  N   UNL     1       1.569   4.980  19.317  0.00  0.00    +0.000 N 
ATOM     24  H   UNL     1       0.844   5.612  18.949  0.00  0.00    +0.000 HD
ENDBRANCH  14  15
ENDBRANCH   2  13
TORSDOF 3
ENDMDL
MODEL 8
REMARK VINA RESULT:      -6.5      1.487      2.896
REMARK  Name = 
REMARK  5 active torsions:
REMARK  status: ('A' for Active; 'I' for Inactive)
REMARK    1  A    between atoms: C_1  and  N_2
REMARK    2  A    between atoms: N_2  and  N_3
REMARK    3  A    between atoms: C_4  and  C_5
REMARK    4  A    between atoms: N_6  and  N_7
REMARK    5  A    between atoms: N_7  and  C_8
REMARK                            x       y       z     vdW  Elec       q    Type
REMARK                         _______ _______ _______ _____ _____    ______ ____
ROOT
ATOM      1  N   UNL     1       2.675   7.481  18.229  0.00  0.00    +0.000 NA
ATOM      2  C   UNL     1       2.522   8.588  17.572  0.00  0.00    +0.000 C 
ENDROOT
BRANCH   1   4
ATOM      3  C   UNL     1       4.841   6.641  17.326  0.00  0.00    +0.000 C 
ATOM      4  N   UNL     1       3.495   6.426  17.853  0.00  0.00    +0.000 N 
ATOM      5  C   UNL     1       3.072   5.078  18.132  0.00  0.00    +0.000 C 
ATOM      6  N   UNL     1       3.913   4.107  17.914  0.00  0.00    +0.000 NA
ATOM      7  C   UNL     1       3.746   2.660  18.014  0.00  0.00    +0.000 C 
ATOM      8  C   UNL     1       2.304   2.184  17.838  0.00  0.00    +0.000 C 
ATOM      9  C   UNL     1       1.414   2.427  19.053  0.00  0.00    +0.000 C 
ATOM     10  C   UNL     1       1.582   3.807  19.677  0.00  0.00    +0.000 C 
ATOM     11  N   UNL     1       1.775   4.855  18.702  0.00  0.00    +0.000 N 
ATOM     12  H   UNL     1       1.087   5.622  18.701  0.00  0.00    +0.000 HD
ENDBRANCH   1   4
BRANCH   2  13
ATOM     13  C   UNL     1       1.696   9.663  18.159  0.00  0.00    +0.000 C 
ATOM     14  N   UNL     1       0.401   9.591  18.145  0.00  0.00    +0.000 NA
BRANCH  14  15
ATOM     15  N   UNL     1      -0.476  10.577  18.595  0.00  0.00    +0.000 N 
ATOM     16  C   UNL     1      -1.291  11.395  17.696  0.00  0.00    +0.000 C 
ATOM     17  C   UNL     1      -0.696  10.730  20.012  0.00  0.00    +0.000 C 
ATOM     18  N   UNL     1      -1.599  11.580  20.410  0.00  0.00    +0.000 NA
ATOM     19  C   UNL     1      -1.990  12.007  21.753  0.00  0.00    +0.000 C 
ATOM     20  C   UNL     1      -0.898  11.835  22.810  0.00  0.00    +0.000 C 
ATOM     21  C   UNL     1      -0.681  10.391  23.255  0.00  0.00    +0.000 C 
ATOM     22  C   UNL     1      -0.668   9.393  22.106  0.00  0.00    +0.000 C 
ATOM     23  N   UNL     1       0.013   9.888  20.932  0.00  0.00    +0.000 N 
ATOM     24  H   UNL     1       0.821   9.344  20.598  0.00  0.00    +0.000 HD
ENDBRANCH  14  15
ENDBRANCH   2  13
TORSDOF 3
ENDMDL
MODEL 9
REMARK VINA RESULT:      -6.5      1.419      2.782
REMARK  Name = 
REMARK  5 active torsions:
REMARK  status: ('A' for Active; 'I' for Inactive)
REMARK    1  A    between atoms: C_1  and  N_2
REMARK    2  A    between atoms: N_2  and  N_3
REMARK    3  A    between atoms: C_4  and  C_5
REMARK    4  A    between atoms: N_6  and  N_7
REMARK    5  A    between atoms: N_7  and  C_8
REMARK                            x       y       z     vdW  Elec       q    Type
REMARK                         _______ _______ _______ _____ _____    ______ ____
ROOT
ATOM      1  N   UNL     1       2.532   7.122  17.654  0.00  0.00    +0.000 NA
ATOM      2  C   UNL     1       2.567   8.337  18.104  0.00  0.00    +0.000 C 
ENDROOT
BRANCH   1   4
ATOM      3  C   UNL     1       4.934   6.460  17.700  0.00  0.00    +0.000 C 
ATOM      4  N   UNL     1       3.513   6.160  17.854  0.00  0.00    +0.000 N 
ATOM      5  C   UNL     1       3.133   4.873  18.377  0.00  0.00    +0.000 C 
ATOM      6  N   UNL     1       4.075   4.034  18.703  0.00  0.00    +0.000 NA
ATOM      7  C   UNL     1       4.003   2.651  19.166  0.00  0.00    +0.000 C 
ATOM      8  C   UNL     1       2.739   1.910  18.726  0.00  0.00    +0.000 C 
ATOM      9  C   UNL     1       1.487   2.296  19.507  0.00  0.00    +0.000 C 
ATOM     10  C   UNL     1       1.331   3.796  19.725  0.00  0.00    +0.000 C 
ATOM     11  N   UNL     1       1.743   4.585  18.587  0.00  0.00    +0.000 N 
ATOM     12  H   UNL     1       1.033   5.200  18.165  0.00  0.00    +0.000 HD
ENDBRANCH   1   4
BRANCH   2  13
ATOM     13  C   UNL     1       1.393   9.211  17.900  0.00  0.00    +0.000 C 
ATOM     14  N   UNL     1       0.701   9.644  18.909  0.00  0.00    +0.000 NA
BRANCH  14  15
ATOM     15  N   UNL     1      -0.465  10.404  18.832  0.00  0.00    +0.000 N 
ATOM     16  C   UNL     1      -1.371  10.366  17.684  0.00  0.00    +0.000 C 
ATOM     17  C   UNL     1      -0.880  11.173  19.979  0.00  0.00    +0.000 C 
ATOM     18  N   UNL     1      -2.027  11.789  19.930  0.00  0.00    +0.000 NA
ATOM     19  C   UNL     1      -2.674  12.691  20.881  0.00  0.00    +0.000 C 
ATOM     20  C   UNL     1      -1.706  13.415  21.819  0.00  0.00    +0.000 C 
ATOM     21  C   UNL     1      -1.140  12.535  22.931  0.00  0.00    +0.000 C 
ATOM     22  C   UNL     1      -0.712  11.153  22.458  0.00  0.00    +0.000 C 
ATOM     23  N   UNL     1      -0.071  11.170  21.164  0.00  0.00    +0.000 N 
ATOM     24  H   UNL     1       0.891  10.806  21.115  0.00  0.00    +0.000 HD
ENDBRANCH  14  15
ENDBRANCH   2  13
TORSDOF 3
ENDMDL
