MODEL 1
REMARK VINA RESULT:      -6.6      0.000      0.000
REMARK  Name = 
REMARK  2 active torsions:
REMARK  status: ('A' for Active; 'I' for Inactive)
REMARK    1  A    between atoms: C_1  and  C_2
REMARK    2  A    between atoms: C_5  and  C_6
REMARK                            x       y       z     vdW  Elec       q    Type
REMARK                         _______ _______ _______ _____ _____    ______ ____
ROOT
ATOM      1  C   UNL     1       4.503   3.851  18.256  0.00  0.00    +0.000 A 
ATOM      2  N   UNL     1       4.742   3.268  19.424  0.00  0.00    +0.000 NA
ATOM      3  C   UNL     1       3.505   3.149  20.002  0.00  0.00    +0.000 A 
ATOM      4  C   UNL     1       3.109   2.629  21.242  0.00  0.00    +0.000 A 
ATOM      5  C   UNL     1       1.742   2.655  21.563  0.00  0.00    +0.000 A 
ATOM      6  C   UNL     1       0.798   3.179  20.670  0.00  0.00    +0.000 A 
ATOM      7  C   UNL     1       1.179   3.699  19.427  0.00  0.00    +0.000 A 
ATOM      8  C   UNL     1       2.539   3.659  19.152  0.00  0.00    +0.000 A 
ATOM      9  O   UNL     1       3.166   4.107  18.032  0.00  0.00    +0.000 OA
ENDROOT
BRANCH   1  14
ATOM     10  C   UNL     1       7.301   4.945  13.897  0.00  0.00    +0.000 C 
ATOM     11  C   UNL     1       6.871   4.724  15.307  0.00  0.00    +0.000 A 
ATOM     12  C   UNL     1       7.591   4.920  16.467  0.00  0.00    +0.000 A 
ATOM     13  C   UNL     1       6.825   4.620  17.632  0.00  0.00    +0.000 A 
ATOM     14  C   UNL     1       5.542   4.204  17.329  0.00  0.00    +0.000 A 
ATOM     15  S   UNL     1       5.289   4.163  15.635  0.00  0.00    +0.000 S 
ENDBRANCH   1  14
TORSDOF 1
ENDMDL
MODEL 2
REMARK VINA RESULT:      -6.5      0.840      1.515
REMARK  Name = 
REMARK  2 active torsions:
REMARK  status: ('A' for Active; 'I' for Inactive)
REMARK    1  A    between atoms: C_1  and  C_2
REMARK    2  A    between atoms: C_5  and  C_6
REMARK                            x       y       z     vdW  Elec       q    Type
REMARK                         _______ _______ _______ _____ _____    ______ ____
ROOT
ATOM      1  C   UNL     1       4.456   4.006  18.211  0.00  0.00    +0.000 A 
ATOM      2  N   UNL     1       3.199   4.405  18.062  0.00  0.00    +0.000 NA
ATOM      3  C   UNL     1       2.550   3.894  19.155  0.00  0.00    +0.000 A 
ATOM      4  C   UNL     1       1.207   3.963  19.550  0.00  0.00    +0.000 A 
ATOM      5  C   UNL     1       0.834   3.318  20.740  0.00  0.00    +0.000 A 
ATOM      6  C   UNL     1       1.776   2.630  21.517  0.00  0.00    +0.000 A 
ATOM      7  C   UNL     1       3.121   2.557  21.136  0.00  0.00    +0.000 A 
ATOM      8  C   UNL     1       3.445   3.203  19.951  0.00  0.00    +0.000 A 
ATOM      9  O   UNL     1       4.668   3.272  19.358  0.00  0.00    +0.000 OA
ENDROOT
BRANCH   1  14
ATOM     10  C   UNL     1       7.206   4.854  13.767  0.00  0.00    +0.000 C 
ATOM     11  C   UNL     1       6.795   4.697  15.191  0.00  0.00    +0.000 A 
ATOM     12  C   UNL     1       7.542   4.910  16.330  0.00  0.00    +0.000 A 
ATOM     13  C   UNL     1       6.789   4.677  17.518  0.00  0.00    +0.000 A 
ATOM     14  C   UNL     1       5.488   4.293  17.253  0.00  0.00    +0.000 A 
ATOM     15  S   UNL     1       5.202   4.200  15.567  0.00  0.00    +0.000 S 
ENDBRANCH   1  14
TORSDOF 1
ENDMDL
MODEL 3
REMARK VINA RESULT:      -6.4      2.338      2.546
REMARK  Name = 
REMARK  2 active torsions:
REMARK  status: ('A' for Active; 'I' for Inactive)
REMARK    1  A    between atoms: C_1  and  C_2
REMARK    2  A    between atoms: C_5  and  C_6
REMARK                            x       y       z     vdW  Elec       q    Type
REMARK                         _______ _______ _______ _____ _____    ______ ____
ROOT
ATOM      1  C   UNL     1       4.478   4.870  18.775  0.00  0.00    +0.000 A 
ATOM      2  N   UNL     1       4.106   3.891  17.960  0.00  0.00    +0.000 NA
ATOM      3  C   UNL     1       2.924   3.442  18.487  0.00  0.00    +0.000 A 
ATOM      4  C   UNL     1       2.060   2.415  18.082  0.00  0.00    +0.000 A 
ATOM      5  C   UNL     1       0.907   2.181  18.848  0.00  0.00    +0.000 A 
ATOM      6  C   UNL     1       0.621   2.953  19.982  0.00  0.00    +0.000 A 
ATOM      7  C   UNL     1       1.473   3.984  20.396  0.00  0.00    +0.000 A 
ATOM      8  C   UNL     1       2.604   4.178  19.614  0.00  0.00    +0.000 A 
ATOM      9  O   UNL     1       3.589   5.096  19.804  0.00  0.00    +0.000 OA
ENDROOT
BRANCH   1  14
ATOM     10  C   UNL     1       8.181   8.371  17.341  0.00  0.00    +0.000 C 
ATOM     11  C   UNL     1       7.451   7.229  17.960  0.00  0.00    +0.000 A 
ATOM     12  C   UNL     1       7.911   6.313  18.882  0.00  0.00    +0.000 A 
ATOM     13  C   UNL     1       6.904   5.376  19.257  0.00  0.00    +0.000 A 
ATOM     14  C   UNL     1       5.703   5.603  18.612  0.00  0.00    +0.000 A 
ATOM     15  S   UNL     1       5.818   6.937  17.543  0.00  0.00    +0.000 S 
ENDBRANCH   1  14
TORSDOF 1
ENDMDL
MODEL 4
REMARK VINA RESULT:      -6.3      2.339      2.520
REMARK  Name = 
REMARK  2 active torsions:
REMARK  status: ('A' for Active; 'I' for Inactive)
REMARK    1  A    between atoms: C_1  and  C_2
REMARK    2  A    between atoms: C_5  and  C_6
REMARK                            x       y       z     vdW  Elec       q    Type
REMARK                         _______ _______ _______ _____ _____    ______ ____
ROOT
ATOM      1  C   UNL     1       4.556   4.839  18.841  0.00  0.00    +0.000 A 
ATOM      2  N   UNL     1       3.672   5.106  19.794  0.00  0.00    +0.000 NA
ATOM      3  C   UNL     1       2.668   4.196  19.589  0.00  0.00    +0.000 A 
ATOM      4  C   UNL     1       1.456   3.988  20.261  0.00  0.00    +0.000 A 
ATOM      5  C   UNL     1       0.613   2.962  19.801  0.00  0.00    +0.000 A 
ATOM      6  C   UNL     1       0.973   2.165  18.707  0.00  0.00    +0.000 A 
ATOM      7  C   UNL     1       2.182   2.360  18.028  0.00  0.00    +0.000 A 
ATOM      8  C   UNL     1       2.982   3.386  18.512  0.00  0.00    +0.000 A 
ATOM      9  O   UNL     1       4.189   3.787  18.029  0.00  0.00    +0.000 OA
ENDROOT
BRANCH   1  14
ATOM     10  C   UNL     1       8.171   8.416  17.370  0.00  0.00    +0.000 C 
ATOM     11  C   UNL     1       7.473   7.255  17.990  0.00  0.00    +0.000 A 
ATOM     12  C   UNL     1       7.968   6.333  18.889  0.00  0.00    +0.000 A 
ATOM     13  C   UNL     1       6.984   5.376  19.274  0.00  0.00    +0.000 A 
ATOM     14  C   UNL     1       5.766   5.594  18.660  0.00  0.00    +0.000 A 
ATOM     15  S   UNL     1       5.835   6.943  17.607  0.00  0.00    +0.000 S 
ENDBRANCH   1  14
TORSDOF 1
ENDMDL
MODEL 5
REMARK VINA RESULT:      -6.3      0.972      1.139
REMARK  Name = 
REMARK  2 active torsions:
REMARK  status: ('A' for Active; 'I' for Inactive)
REMARK    1  A    between atoms: C_1  and  C_2
REMARK    2  A    between atoms: C_5  and  C_6
REMARK                            x       y       z     vdW  Elec       q    Type
REMARK                         _______ _______ _______ _____ _____    ______ ____
ROOT
ATOM      1  C   UNL     1       4.006   4.275  17.964  0.00  0.00    +0.000 A 
ATOM      2  N   UNL     1       4.534   3.517  18.916  0.00  0.00    +0.000 NA
ATOM      3  C   UNL     1       3.493   3.277  19.774  0.00  0.00    +0.000 A 
ATOM      4  C   UNL     1       3.430   2.553  20.973  0.00  0.00    +0.000 A 
ATOM      5  C   UNL     1       2.198   2.495  21.644  0.00  0.00    +0.000 A 
ATOM      6  C   UNL     1       1.062   3.134  21.132  0.00  0.00    +0.000 A 
ATOM      7  C   UNL     1       1.110   3.857  19.933  0.00  0.00    +0.000 A 
ATOM      8  C   UNL     1       2.348   3.894  19.305  0.00  0.00    +0.000 A 
ATOM      9  O   UNL     1       2.664   4.532  18.146  0.00  0.00    +0.000 OA
ENDROOT
BRANCH   1  14
ATOM     10  C   UNL     1       7.119   4.837  13.719  0.00  0.00    +0.000 C 
ATOM     11  C   UNL     1       6.218   5.088  14.878  0.00  0.00    +0.000 A 
ATOM     12  C   UNL     1       5.662   6.279  15.295  0.00  0.00    +0.000 A 
ATOM     13  C   UNL     1       4.828   6.112  16.440  0.00  0.00    +0.000 A 
ATOM     14  C   UNL     1       4.770   4.798  16.864  0.00  0.00    +0.000 A 
ATOM     15  S   UNL     1       5.743   3.787  15.883  0.00  0.00    +0.000 S 
ENDBRANCH   1  14
TORSDOF 1
ENDMDL
MODEL 6
REMARK VINA RESULT:      -6.3      1.297      1.892
REMARK  Name = 
REMARK  2 active torsions:
REMARK  status: ('A' for Active; 'I' for Inactive)
REMARK    1  A    between atoms: C_1  and  C_2
REMARK    2  A    between atoms: C_5  and  C_6
REMARK                            x       y       z     vdW  Elec       q    Type
REMARK                         _______ _______ _______ _____ _____    ______ ____
ROOT
ATOM      1  C   UNL     1       3.901   4.404  18.117  0.00  0.00    +0.000 A 
ATOM      2  N   UNL     1       2.614   4.680  18.286  0.00  0.00    +0.000 NA
ATOM      3  C   UNL     1       2.263   3.984  19.413  0.00  0.00    +0.000 A 
ATOM      4  C   UNL     1       1.038   3.864  20.083  0.00  0.00    +0.000 A 
ATOM      5  C   UNL     1       0.989   3.054  21.229  0.00  0.00    +0.000 A 
ATOM      6  C   UNL     1       2.130   2.388  21.696  0.00  0.00    +0.000 A 
ATOM      7  C   UNL     1       3.361   2.502  21.039  0.00  0.00    +0.000 A 
ATOM      8  C   UNL     1       3.364   3.307  19.908  0.00  0.00    +0.000 A 
ATOM      9  O   UNL     1       4.417   3.572  19.088  0.00  0.00    +0.000 OA
ENDROOT
BRANCH   1  14
ATOM     10  C   UNL     1       7.073   4.881  13.906  0.00  0.00    +0.000 C 
ATOM     11  C   UNL     1       6.148   5.153  15.041  0.00  0.00    +0.000 A 
ATOM     12  C   UNL     1       5.563   6.347  15.408  0.00  0.00    +0.000 A 
ATOM     13  C   UNL     1       4.713   6.203  16.544  0.00  0.00    +0.000 A 
ATOM     14  C   UNL     1       4.672   4.904  17.012  0.00  0.00    +0.000 A 
ATOM     15  S   UNL     1       5.680   3.878  16.082  0.00  0.00    +0.000 S 
ENDBRANCH   1  14
TORSDOF 1
ENDMDL
MODEL 7
REMARK VINA RESULT:      -6.3      1.698      6.171
REMARK  Name = 
REMARK  2 active torsions:
REMARK  status: ('A' for Active; 'I' for Inactive)
REMARK    1  A    between atoms: C_1  and  C_2
REMARK    2  A    between atoms: C_5  and  C_6
REMARK                            x       y       z     vdW  Elec       q    Type
REMARK                         _______ _______ _______ _____ _____    ______ ____
ROOT
ATOM      1  C   UNL     1       3.979   3.879  17.853  0.00  0.00    +0.000 A 
ATOM      2  N   UNL     1       5.204   4.209  18.241  0.00  0.00    +0.000 NA
ATOM      3  C   UNL     1       5.880   4.436  17.070  0.00  0.00    +0.000 A 
ATOM      4  C   UNL     1       7.211   4.799  16.826  0.00  0.00    +0.000 A 
ATOM      5  C   UNL     1       7.620   4.950  15.490  0.00  0.00    +0.000 A 
ATOM      6  C   UNL     1       6.725   4.749  14.431  0.00  0.00    +0.000 A 
ATOM      7  C   UNL     1       5.392   4.388  14.661  0.00  0.00    +0.000 A 
ATOM      8  C   UNL     1       5.031   4.245  15.995  0.00  0.00    +0.000 A 
ATOM      9  O   UNL     1       3.812   3.892  16.485  0.00  0.00    +0.000 OA
ENDROOT
BRANCH   1  14
ATOM     10  C   UNL     1       1.230   2.380  22.122  0.00  0.00    +0.000 C 
ATOM     11  C   UNL     1       1.628   2.822  20.756  0.00  0.00    +0.000 A 
ATOM     12  C   UNL     1       0.819   3.156  19.690  0.00  0.00    +0.000 A 
ATOM     13  C   UNL     1       1.574   3.556  18.547  0.00  0.00    +0.000 A 
ATOM     14  C   UNL     1       2.936   3.517  18.774  0.00  0.00    +0.000 A 
ATOM     15  S   UNL     1       3.285   2.976  20.361  0.00  0.00    +0.000 S 
ENDBRANCH   1  14
TORSDOF 1
ENDMDL
MODEL 8
REMARK VINA RESULT:      -6.3      1.851      6.320
REMARK  Name = 
REMARK  2 active torsions:
REMARK  status: ('A' for Active; 'I' for Inactive)
REMARK    1  A    between atoms: C_1  and  C_2
REMARK    2  A    between atoms: C_5  and  C_6
REMARK                            x       y       z     vdW  Elec       q    Type
REMARK                         _______ _______ _______ _____ _____    ______ ____
ROOT
ATOM      1  C   UNL     1       3.980   3.894  17.860  0.00  0.00    +0.000 A 
ATOM      2  N   UNL     1       3.759   3.912  16.552  0.00  0.00    +0.000 NA
ATOM      3  C   UNL     1       4.973   4.241  16.008  0.00  0.00    +0.000 A 
ATOM      4  C   UNL     1       5.371   4.429  14.677  0.00  0.00    +0.000 A 
ATOM      5  C   UNL     1       6.708   4.778  14.430  0.00  0.00    +0.000 A 
ATOM      6  C   UNL     1       7.623   4.930  15.480  0.00  0.00    +0.000 A 
ATOM      7  C   UNL     1       7.241   4.743  16.814  0.00  0.00    +0.000 A 
ATOM      8  C   UNL     1       5.909   4.403  17.014  0.00  0.00    +0.000 A 
ATOM      9  O   UNL     1       5.285   4.180  18.202  0.00  0.00    +0.000 OA
ENDROOT
BRANCH   1  14
ATOM     10  C   UNL     1       1.277   2.415  22.164  0.00  0.00    +0.000 C 
ATOM     11  C   UNL     1       1.664   2.948  20.828  0.00  0.00    +0.000 A 
ATOM     12  C   UNL     1       0.873   3.578  19.891  0.00  0.00    +0.000 A 
ATOM     13  C   UNL     1       1.614   3.969  18.737  0.00  0.00    +0.000 A 
ATOM     14  C   UNL     1       2.950   3.627  18.826  0.00  0.00    +0.000 A 
ATOM     15  S   UNL     1       3.286   2.818  20.298  0.00  0.00    +0.000 S 
ENDBRANCH   1  14
TORSDOF 1
ENDMDL
MODEL 9
REMARK VINA RESULT:      -6.3      1.280      1.518
REMARK  Name = 
REMARK  2 active torsions:
REMARK  status: ('A' for Active; 'I' for Inactive)
REMARK    1  A    between atoms: C_1  and  C_2
REMARK    2  A    between atoms: C_5  and  C_6
REMARK                            x       y       z     vdW  Elec       q    Type
REMARK                         _______ _______ _______ _____ _____    ______ ____
ROOT
ATOM      1  C   UNL     1       4.304   4.210  17.518  0.00  0.00    +0.000 A 
ATOM      2  N   UNL     1       3.341   3.333  17.267  0.00  0.00    +0.000 NA
ATOM      3  C   UNL     1       2.515   3.416  18.357  0.00  0.00    +0.000 A 
ATOM      4  C   UNL     1       1.339   2.727  18.682  0.00  0.00    +0.000 A 
ATOM      5  C   UNL     1       0.710   3.030  19.900  0.00  0.00    +0.000 A 
ATOM      6  C   UNL     1       1.237   3.997  20.767  0.00  0.00    +0.000 A 
ATOM      7  C   UNL     1       2.409   4.695  20.454  0.00  0.00    +0.000 A 
ATOM      8  C   UNL     1       3.001   4.361  19.243  0.00  0.00    +0.000 A 
ATOM      9  O   UNL     1       4.143   4.878  18.714  0.00  0.00    +0.000 OA
ENDROOT
BRANCH   1  14
ATOM     10  C   UNL     1       7.405   4.965  13.294  0.00  0.00    +0.000 C 
ATOM     11  C   UNL     1       6.892   4.781  14.680  0.00  0.00    +0.000 A 
ATOM     12  C   UNL     1       7.586   4.839  15.870  0.00  0.00    +0.000 A 
ATOM     13  C   UNL     1       6.738   4.633  16.998  0.00  0.00    +0.000 A 
ATOM     14  C   UNL     1       5.421   4.423  16.638  0.00  0.00    +0.000 A 
ATOM     15  S   UNL     1       5.231   4.458  14.937  0.00  0.00    +0.000 S 
ENDBRANCH   1  14
TORSDOF 1
ENDMDL
