MODEL 1
REMARK VINA RESULT:      -8.0      0.000      0.000
REMARK  Name = 
REMARK  9 active torsions:
REMARK  status: ('A' for Active; 'I' for Inactive)
REMARK    1  A    between atoms: C_1  and  C_2
REMARK    2  A    between atoms: C_2  and  C_3
REMARK    3  A    between atoms: C_3  and  C_4
REMARK    4  A    between atoms: C_4  and  O_5
REMARK    5  A    between atoms: O_5  and  C_6
REMARK    6  A    between atoms: C_9  and  N_10
REMARK    7  A    between atoms: N_10  and  S_11
REMARK    8  A    between atoms: S_11  and  C_14
REMARK    9  A    between atoms: C_17  and  N_18
REMARK                            x       y       z     vdW  Elec       q    Type
REMARK                         _______ _______ _______ _____ _____    ______ ____
ROOT
ATOM      1  S   UNL     1       6.242   6.727  16.670  0.00  0.00    +0.000 S 
ATOM      2  O   UNL     1       7.089   7.563  17.497  0.00  0.00    +0.000 OA
ATOM      3  O   UNL     1       5.427   7.304  15.623  0.00  0.00    +0.000 OA
ENDROOT
BRANCH   1   4
ATOM      4  C   UNL     1       5.201   5.787  17.757  0.00  0.00    +0.000 A 
ATOM      5  C   UNL     1       5.724   4.670  18.413  0.00  0.00    +0.000 A 
ATOM      6  C   UNL     1       4.920   3.945  19.297  0.00  0.00    +0.000 A 
ATOM      7  C   UNL     1       3.594   4.343  19.528  0.00  0.00    +0.000 A 
ATOM      8  C   UNL     1       3.080   5.471  18.864  0.00  0.00    +0.000 A 
ATOM      9  C   UNL     1       3.887   6.198  17.986  0.00  0.00    +0.000 A 
BRANCH   7  10
ATOM     10  N   UNL     1       2.769   3.623  20.424  0.00  0.00    +0.000 N 
ATOM     11  C   UNL     1       1.408   3.676  20.592  0.00  0.00    +0.000 A 
ATOM     12  N   UNL     1       1.053   2.852  21.550  0.00  0.00    +0.000 NA
ATOM     13  N   UNL     1       2.213   2.264  21.981  0.00  0.00    +0.000 NA
ATOM     14  N   UNL     1       3.257   2.716  21.301  0.00  0.00    +0.000 NA
ENDBRANCH   7  10
ENDBRANCH   1   4
BRANCH   1  15
ATOM     15  N   UNL     1       7.256   5.542  16.020  0.00  0.00    +0.000 N 
ATOM     16  H   UNL     1       8.231   5.842  16.061  0.00  0.00    +0.000 HD
BRANCH  15  20
ATOM     17  C   UNL     1       6.045   3.493  12.535  0.00  0.00    +0.000 A 
ATOM     18  C   UNL     1       7.164   4.332  12.513  0.00  0.00    +0.000 A 
ATOM     19  C   UNL     1       7.563   5.017  13.661  0.00  0.00    +0.000 A 
ATOM     20  C   UNL     1       6.843   4.869  14.840  0.00  0.00    +0.000 A 
ATOM     21  C   UNL     1       5.719   4.047  14.877  0.00  0.00    +0.000 A 
ATOM     22  C   UNL     1       5.322   3.357  13.723  0.00  0.00    +0.000 A 
BRANCH  17  23
ATOM     23  O   UNL     1       5.584   2.769  11.460  0.00  0.00    +0.000 OA
BRANCH  23  24
ATOM     24  C   UNL     1       4.175   2.863  11.236  0.00  0.00    +0.000 C 
BRANCH  24  25
ATOM     25  C   UNL     1       3.823   4.123  10.452  0.00  0.00    +0.000 C 
BRANCH  25  27
ATOM     26  C   UNL     1       2.117   5.104   8.864  0.00  0.00    +0.000 C 
ATOM     27  C   UNL     1       2.631   3.843   9.533  0.00  0.00    +0.000 C 
ENDBRANCH  25  27
ENDBRANCH  24  25
ENDBRANCH  23  24
ENDBRANCH  17  23
ENDBRANCH  15  20
ENDBRANCH   1  15
TORSDOF 8
ENDMDL
MODEL 2
REMARK VINA RESULT:      -7.8      4.105      6.675
REMARK  Name = 
REMARK  9 active torsions:
REMARK  status: ('A' for Active; 'I' for Inactive)
REMARK    1  A    between atoms: C_1  and  C_2
REMARK    2  A    between atoms: C_2  and  C_3
REMARK    3  A    between atoms: C_3  and  C_4
REMARK    4  A    between atoms: C_4  and  O_5
REMARK    5  A    between atoms: O_5  and  C_6
REMARK    6  A    between atoms: C_9  and  N_10
REMARK    7  A    between atoms: N_10  and  S_11
REMARK    8  A    between atoms: S_11  and  C_14
REMARK    9  A    between atoms: C_17  and  N_18
REMARK                            x       y       z     vdW  Elec       q    Type
REMARK                         _______ _______ _______ _____ _____    ______ ____
ROOT
ATOM      1  S   UNL     1       2.653   2.996  18.240  0.00  0.00    +0.000 S 
ATOM      2  O   UNL     1       2.422   3.075  16.812  0.00  0.00    +0.000 OA
ATOM      3  O   UNL     1       2.019   1.970  19.037  0.00  0.00    +0.000 OA
ENDROOT
BRANCH   1   4
ATOM      4  C   UNL     1       2.260   4.584  18.929  0.00  0.00    +0.000 A 
ATOM      5  C   UNL     1       1.920   4.682  20.280  0.00  0.00    +0.000 A 
ATOM      6  C   UNL     1       1.643   5.934  20.837  0.00  0.00    +0.000 A 
ATOM      7  C   UNL     1       1.713   7.087  20.041  0.00  0.00    +0.000 A 
ATOM      8  C   UNL     1       2.060   6.977  18.683  0.00  0.00    +0.000 A 
ATOM      9  C   UNL     1       2.343   5.726  18.129  0.00  0.00    +0.000 A 
BRANCH   7  10
ATOM     10  N   UNL     1       1.441   8.363  20.592  0.00  0.00    +0.000 N 
ATOM     11  C   UNL     1       1.078   9.526  19.960  0.00  0.00    +0.000 A 
ATOM     12  N   UNL     1       0.944  10.482  20.850  0.00  0.00    +0.000 NA
ATOM     13  N   UNL     1       1.216   9.901  22.061  0.00  0.00    +0.000 NA
ATOM     14  N   UNL     1       1.510   8.617  21.918  0.00  0.00    +0.000 NA
ENDBRANCH   7  10
ENDBRANCH   1   4
BRANCH   1  15
ATOM     15  N   UNL     1       4.330   2.919  18.433  0.00  0.00    +0.000 N 
ATOM     16  H   UNL     1       4.569   2.500  19.332  0.00  0.00    +0.000 HD
BRANCH  15  20
ATOM     17  C   UNL     1       6.612   6.256  17.219  0.00  0.00    +0.000 A 
ATOM     18  C   UNL     1       5.976   5.447  16.271  0.00  0.00    +0.000 A 
ATOM     19  C   UNL     1       5.227   4.339  16.668  0.00  0.00    +0.000 A 
ATOM     20  C   UNL     1       5.111   4.030  18.017  0.00  0.00    +0.000 A 
ATOM     21  C   UNL     1       5.748   4.818  18.974  0.00  0.00    +0.000 A 
ATOM     22  C   UNL     1       6.497   5.932  18.573  0.00  0.00    +0.000 A 
BRANCH  17  23
ATOM     23  O   UNL     1       7.360   7.372  16.925  0.00  0.00    +0.000 OA
BRANCH  23  24
ATOM     24  C   UNL     1       8.136   7.876  18.014  0.00  0.00    +0.000 C 
BRANCH  24  25
ATOM     25  C   UNL     1       8.271   9.393  17.941  0.00  0.00    +0.000 C 
BRANCH  25  27
ATOM     26  C   UNL     1       9.772  11.224  18.830  0.00  0.00    +0.000 C 
ATOM     27  C   UNL     1       9.102   9.895  19.125  0.00  0.00    +0.000 C 
ENDBRANCH  25  27
ENDBRANCH  24  25
ENDBRANCH  23  24
ENDBRANCH  17  23
ENDBRANCH  15  20
ENDBRANCH   1  15
TORSDOF 8
ENDMDL
MODEL 3
REMARK VINA RESULT:      -7.3      0.586      1.555
REMARK  Name = 
REMARK  9 active torsions:
REMARK  status: ('A' for Active; 'I' for Inactive)
REMARK    1  A    between atoms: C_1  and  C_2
REMARK    2  A    between atoms: C_2  and  C_3
REMARK    3  A    between atoms: C_3  and  C_4
REMARK    4  A    between atoms: C_4  and  O_5
REMARK    5  A    between atoms: O_5  and  C_6
REMARK    6  A    between atoms: C_9  and  N_10
REMARK    7  A    between atoms: N_10  and  S_11
REMARK    8  A    between atoms: S_11  and  C_14
REMARK    9  A    between atoms: C_17  and  N_18
REMARK                            x       y       z     vdW  Elec       q    Type
REMARK                         _______ _______ _______ _____ _____    ______ ____
ROOT
ATOM      1  S   UNL     1       6.259   6.790  16.626  0.00  0.00    +0.000 S 
ATOM      2  O   UNL     1       7.127   7.632  17.424  0.00  0.00    +0.000 OA
ATOM      3  O   UNL     1       5.442   7.355  15.574  0.00  0.00    +0.000 OA
ENDROOT
BRANCH   1   4
ATOM      4  C   UNL     1       5.216   5.891  17.745  0.00  0.00    +0.000 A 
ATOM      5  C   UNL     1       3.940   6.379  18.037  0.00  0.00    +0.000 A 
ATOM      6  C   UNL     1       3.100   5.658  18.891  0.00  0.00    +0.000 A 
ATOM      7  C   UNL     1       3.537   4.446  19.447  0.00  0.00    +0.000 A 
ATOM      8  C   UNL     1       4.823   3.964  19.144  0.00  0.00    +0.000 A 
ATOM      9  C   UNL     1       5.658   4.682  18.286  0.00  0.00    +0.000 A 
BRANCH   7  10
ATOM     10  N   UNL     1       2.697   3.702  20.310  0.00  0.00    +0.000 N 
ATOM     11  C   UNL     1       3.031   2.863  21.343  0.00  0.00    +0.000 A 
ATOM     12  N   UNL     1       1.938   2.360  21.868  0.00  0.00    +0.000 NA
ATOM     13  N   UNL     1       0.901   2.905  21.157  0.00  0.00    +0.000 NA
ATOM     14  N   UNL     1       1.348   3.726  20.217  0.00  0.00    +0.000 NA
ENDBRANCH   7  10
ENDBRANCH   1   4
BRANCH   1  15
ATOM     15  N   UNL     1       7.249   5.575  15.994  0.00  0.00    +0.000 N 
ATOM     16  H   UNL     1       8.231   5.844  16.054  0.00  0.00    +0.000 HD
BRANCH  15  20
ATOM     17  C   UNL     1       6.013   3.667  12.438  0.00  0.00    +0.000 A 
ATOM     18  C   UNL     1       5.262   3.538  13.611  0.00  0.00    +0.000 A 
ATOM     19  C   UNL     1       5.672   4.161  14.791  0.00  0.00    +0.000 A 
ATOM     20  C   UNL     1       6.838   4.916  14.805  0.00  0.00    +0.000 A 
ATOM     21  C   UNL     1       7.604   5.045  13.649  0.00  0.00    +0.000 A 
ATOM     22  C   UNL     1       7.188   4.421  12.464  0.00  0.00    +0.000 A 
BRANCH  17  23
ATOM     23  O   UNL     1       5.684   3.102  11.228  0.00  0.00    +0.000 OA
BRANCH  23  24
ATOM     24  C   UNL     1       4.442   2.393  11.216  0.00  0.00    +0.000 C 
BRANCH  24  25
ATOM     25  C   UNL     1       3.273   3.331  10.938  0.00  0.00    +0.000 C 
BRANCH  25  27
ATOM     26  C   UNL     1       2.484   4.944   9.158  0.00  0.00    +0.000 C 
ATOM     27  C   UNL     1       3.203   3.639   9.440  0.00  0.00    +0.000 C 
ENDBRANCH  25  27
ENDBRANCH  24  25
ENDBRANCH  23  24
ENDBRANCH  17  23
ENDBRANCH  15  20
ENDBRANCH   1  15
TORSDOF 8
ENDMDL
MODEL 4
REMARK VINA RESULT:      -7.2      4.268      6.701
REMARK  Name = 
REMARK  9 active torsions:
REMARK  status: ('A' for Active; 'I' for Inactive)
REMARK    1  A    between atoms: C_1  and  C_2
REMARK    2  A    between atoms: C_2  and  C_3
REMARK    3  A    between atoms: C_3  and  C_4
REMARK    4  A    between atoms: C_4  and  O_5
REMARK    5  A    between atoms: O_5  and  C_6
REMARK    6  A    between atoms: C_9  and  N_10
REMARK    7  A    between atoms: N_10  and  S_11
REMARK    8  A    between atoms: S_11  and  C_14
REMARK    9  A    between atoms: C_17  and  N_18
REMARK                            x       y       z     vdW  Elec       q    Type
REMARK                         _______ _______ _______ _____ _____    ______ ____
ROOT
ATOM      1  S   UNL     1       3.693   3.452  18.261  0.00  0.00    +0.000 S 
ATOM      2  O   UNL     1       3.638   3.563  16.818  0.00  0.00    +0.000 OA
ATOM      3  O   UNL     1       3.066   2.342  18.944  0.00  0.00    +0.000 OA
ENDROOT
BRANCH   1   4
ATOM      4  C   UNL     1       3.064   4.970  18.933  0.00  0.00    +0.000 A 
ATOM      5  C   UNL     1       2.945   6.090  18.107  0.00  0.00    +0.000 A 
ATOM      6  C   UNL     1       2.418   7.279  18.620  0.00  0.00    +0.000 A 
ATOM      7  C   UNL     1       2.005   7.343  19.960  0.00  0.00    +0.000 A 
ATOM      8  C   UNL     1       2.127   6.207  20.782  0.00  0.00    +0.000 A 
ATOM      9  C   UNL     1       2.648   5.019  20.266  0.00  0.00    +0.000 A 
BRANCH   7  10
ATOM     10  N   UNL     1       1.465   8.537  20.494  0.00  0.00    +0.000 N 
ATOM     11  C   UNL     1       0.877   9.595  19.847  0.00  0.00    +0.000 A 
ATOM     12  N   UNL     1       0.533  10.508  20.724  0.00  0.00    +0.000 NA
ATOM     13  N   UNL     1       0.903  10.005  21.945  0.00  0.00    +0.000 NA
ATOM     14  N   UNL     1       1.460   8.810  21.819  0.00  0.00    +0.000 NA
ENDBRANCH   7  10
ENDBRANCH   1   4
BRANCH   1  15
ATOM     15  N   UNL     1       5.331   3.525  18.668  0.00  0.00    +0.000 N 
ATOM     16  H   UNL     1       5.478   3.201  19.625  0.00  0.00    +0.000 HD
BRANCH  15  20
ATOM     17  C   UNL     1       7.528   6.919  17.457  0.00  0.00    +0.000 A 
ATOM     18  C   UNL     1       6.828   6.154  16.519  0.00  0.00    +0.000 A 
ATOM     19  C   UNL     1       6.107   5.027  16.914  0.00  0.00    +0.000 A 
ATOM     20  C   UNL     1       6.083   4.655  18.253  0.00  0.00    +0.000 A 
ATOM     21  C   UNL     1       6.784   5.399  19.199  0.00  0.00    +0.000 A 
ATOM     22  C   UNL     1       7.505   6.533  18.800  0.00  0.00    +0.000 A 
BRANCH  17  23
ATOM     23  O   UNL     1       8.255   8.050  17.166  0.00  0.00    +0.000 OA
BRANCH  23  24
ATOM     24  C   UNL     1       7.870   9.214  17.900  0.00  0.00    +0.000 C 
BRANCH  24  25
ATOM     25  C   UNL     1       9.000   9.696  18.803  0.00  0.00    +0.000 C 
BRANCH  25  27
ATOM     26  C   UNL     1       8.579  11.943  17.723  0.00  0.00    +0.000 C 
ATOM     27  C   UNL     1       9.627  10.963  18.214  0.00  0.00    +0.000 C 
ENDBRANCH  25  27
ENDBRANCH  24  25
ENDBRANCH  23  24
ENDBRANCH  17  23
ENDBRANCH  15  20
ENDBRANCH   1  15
TORSDOF 8
ENDMDL
MODEL 5
REMARK VINA RESULT:      -7.2      4.724      8.456
REMARK  Name = 
REMARK  9 active torsions:
REMARK  status: ('A' for Active; 'I' for Inactive)
REMARK    1  A    between atoms: C_1  and  C_2
REMARK    2  A    between atoms: C_2  and  C_3
REMARK    3  A    between atoms: C_3  and  C_4
REMARK    4  A    between atoms: C_4  and  O_5
REMARK    5  A    between atoms: O_5  and  C_6
REMARK    6  A    between atoms: C_9  and  N_10
REMARK    7  A    between atoms: N_10  and  S_11
REMARK    8  A    between atoms: S_11  and  C_14
REMARK    9  A    between atoms: C_17  and  N_18
REMARK                            x       y       z     vdW  Elec       q    Type
REMARK                         _______ _______ _______ _____ _____    ______ ____
ROOT
ATOM      1  S   UNL     1       2.440   5.418  19.635  0.00  0.00    +0.000 S 
ATOM      2  O   UNL     1       2.869   4.487  20.659  0.00  0.00    +0.000 OA
ATOM      3  O   UNL     1       1.086   5.389  19.128  0.00  0.00    +0.000 OA
ENDROOT
BRANCH   1   4
ATOM      4  C   UNL     1       3.568   5.264  18.273  0.00  0.00    +0.000 A 
ATOM      5  C   UNL     1       3.899   3.994  17.795  0.00  0.00    +0.000 A 
ATOM      6  C   UNL     1       4.760   3.866  16.701  0.00  0.00    +0.000 A 
ATOM      7  C   UNL     1       5.283   5.012  16.082  0.00  0.00    +0.000 A 
ATOM      8  C   UNL     1       4.939   6.285  16.570  0.00  0.00    +0.000 A 
ATOM      9  C   UNL     1       4.075   6.411  17.659  0.00  0.00    +0.000 A 
BRANCH   7  10
ATOM     10  N   UNL     1       6.151   4.900  14.970  0.00  0.00    +0.000 N 
ATOM     11  C   UNL     1       6.045   4.104  13.857  0.00  0.00    +0.000 A 
ATOM     12  N   UNL     1       7.084   4.300  13.079  0.00  0.00    +0.000 NA
ATOM     13  N   UNL     1       7.848   5.245  13.713  0.00  0.00    +0.000 NA
ATOM     14  N   UNL     1       7.289   5.622  14.854  0.00  0.00    +0.000 NA
ENDBRANCH   7  10
ENDBRANCH   1   4
BRANCH   1  15
ATOM     15  N   UNL     1       2.797   6.958  20.232  0.00  0.00    +0.000 N 
ATOM     16  H   UNL     1       3.272   6.893  21.132  0.00  0.00    +0.000 HD
BRANCH  15  20
ATOM     17  C   UNL     1      -0.143   9.958  19.821  0.00  0.00    +0.000 A 
ATOM     18  C   UNL     1       0.764   9.705  18.786  0.00  0.00    +0.000 A 
ATOM     19  C   UNL     1       1.742   8.720  18.921  0.00  0.00    +0.000 A 
ATOM     20  C   UNL     1       1.822   7.980  20.095  0.00  0.00    +0.000 A 
ATOM     21  C   UNL     1       0.934   8.227  21.140  0.00  0.00    +0.000 A 
ATOM     22  C   UNL     1      -0.050   9.215  21.000  0.00  0.00    +0.000 A 
BRANCH  17  23
ATOM     23  O   UNL     1      -1.146  10.897  19.775  0.00  0.00    +0.000 OA
BRANCH  23  24
ATOM     24  C   UNL     1      -1.521  11.310  18.458  0.00  0.00    +0.000 C 
BRANCH  24  25
ATOM     25  C   UNL     1      -2.981  10.981  18.171  0.00  0.00    +0.000 C 
BRANCH  25  27
ATOM     26  C   UNL     1      -2.631  10.074  15.836  0.00  0.00    +0.000 C 
ATOM     27  C   UNL     1      -3.064   9.756  17.255  0.00  0.00    +0.000 C 
ENDBRANCH  25  27
ENDBRANCH  24  25
ENDBRANCH  23  24
ENDBRANCH  17  23
ENDBRANCH  15  20
ENDBRANCH   1  15
TORSDOF 8
ENDMDL
MODEL 6
REMARK VINA RESULT:      -7.2      4.388      8.313
REMARK  Name = 
REMARK  9 active torsions:
REMARK  status: ('A' for Active; 'I' for Inactive)
REMARK    1  A    between atoms: C_1  and  C_2
REMARK    2  A    between atoms: C_2  and  C_3
REMARK    3  A    between atoms: C_3  and  C_4
REMARK    4  A    between atoms: C_4  and  O_5
REMARK    5  A    between atoms: O_5  and  C_6
REMARK    6  A    between atoms: C_9  and  N_10
REMARK    7  A    between atoms: N_10  and  S_11
REMARK    8  A    between atoms: S_11  and  C_14
REMARK    9  A    between atoms: C_17  and  N_18
REMARK                            x       y       z     vdW  Elec       q    Type
REMARK                         _______ _______ _______ _____ _____    ______ ____
ROOT
ATOM      1  S   UNL     1       2.845   4.668  19.079  0.00  0.00    +0.000 S 
ATOM      2  O   UNL     1       3.300   3.583  19.924  0.00  0.00    +0.000 OA
ATOM      3  O   UNL     1       1.482   4.711  18.599  0.00  0.00    +0.000 OA
ENDROOT
BRANCH   1   4
ATOM      4  C   UNL     1       3.947   4.756  17.691  0.00  0.00    +0.000 A 
ATOM      5  C   UNL     1       4.747   5.889  17.519  0.00  0.00    +0.000 A 
ATOM      6  C   UNL     1       5.642   5.951  16.447  0.00  0.00    +0.000 A 
ATOM      7  C   UNL     1       5.740   4.875  15.551  0.00  0.00    +0.000 A 
ATOM      8  C   UNL     1       4.932   3.739  15.736  0.00  0.00    +0.000 A 
ATOM      9  C   UNL     1       4.043   3.676  16.811  0.00  0.00    +0.000 A 
BRANCH   7  10
ATOM     10  N   UNL     1       6.645   4.920  14.464  0.00  0.00    +0.000 N 
ATOM     11  C   UNL     1       6.542   4.352  13.219  0.00  0.00    +0.000 A 
ATOM     12  N   UNL     1       7.620   4.627  12.522  0.00  0.00    +0.000 NA
ATOM     13  N   UNL     1       8.406   5.392  13.344  0.00  0.00    +0.000 NA
ATOM     14  N   UNL     1       7.822   5.583  14.519  0.00  0.00    +0.000 NA
ENDBRANCH   7  10
ENDBRANCH   1   4
BRANCH   1  15
ATOM     15  N   UNL     1       3.203   6.089  19.920  0.00  0.00    +0.000 N 
ATOM     16  H   UNL     1       3.573   5.875  20.846  0.00  0.00    +0.000 HD
BRANCH  15  20
ATOM     17  C   UNL     1       0.545   9.357  19.658  0.00  0.00    +0.000 A 
ATOM     18  C   UNL     1       0.582   8.561  20.808  0.00  0.00    +0.000 A 
ATOM     19  C   UNL     1       1.453   7.475  20.895  0.00  0.00    +0.000 A 
ATOM     20  C   UNL     1       2.294   7.176  19.830  0.00  0.00    +0.000 A 
ATOM     21  C   UNL     1       2.263   7.952  18.673  0.00  0.00    +0.000 A 
ATOM     22  C   UNL     1       1.388   9.044  18.590  0.00  0.00    +0.000 A 
BRANCH  17  23
ATOM     23  O   UNL     1      -0.269  10.452  19.485  0.00  0.00    +0.000 OA
BRANCH  23  24
ATOM     24  C   UNL     1      -0.710  10.664  18.142  0.00  0.00    +0.000 C 
BRANCH  24  25
ATOM     25  C   UNL     1      -2.195  10.355  17.993  0.00  0.00    +0.000 C 
BRANCH  25  27
ATOM     26  C   UNL     1      -2.768  10.132  15.540  0.00  0.00    +0.000 C 
ATOM     27  C   UNL     1      -2.745  11.052  16.745  0.00  0.00    +0.000 C 
ENDBRANCH  25  27
ENDBRANCH  24  25
ENDBRANCH  23  24
ENDBRANCH  17  23
ENDBRANCH  15  20
ENDBRANCH   1  15
TORSDOF 8
ENDMDL
MODEL 7
REMARK VINA RESULT:      -7.2      4.481      5.322
REMARK  Name = 
REMARK  9 active torsions:
REMARK  status: ('A' for Active; 'I' for Inactive)
REMARK    1  A    between atoms: C_1  and  C_2
REMARK    2  A    between atoms: C_2  and  C_3
REMARK    3  A    between atoms: C_3  and  C_4
REMARK    4  A    between atoms: C_4  and  O_5
REMARK    5  A    between atoms: O_5  and  C_6
REMARK    6  A    between atoms: C_9  and  N_10
REMARK    7  A    between atoms: N_10  and  S_11
REMARK    8  A    between atoms: S_11  and  C_14
REMARK    9  A    between atoms: C_17  and  N_18
REMARK                            x       y       z     vdW  Elec       q    Type
REMARK                         _______ _______ _______ _____ _____    ______ ____
ROOT
ATOM      1  S   UNL     1       2.977   5.393  19.045  0.00  0.00    +0.000 S 
ATOM      2  O   UNL     1       2.365   4.779  17.885  0.00  0.00    +0.000 OA
ATOM      3  O   UNL     1       2.985   4.717  20.324  0.00  0.00    +0.000 OA
ENDROOT
BRANCH   1   4
ATOM      4  C   UNL     1       2.241   6.996  19.247  0.00  0.00    +0.000 A 
ATOM      5  C   UNL     1       1.730   7.365  20.493  0.00  0.00    +0.000 A 
ATOM      6  C   UNL     1       1.180   8.639  20.668  0.00  0.00    +0.000 A 
ATOM      7  C   UNL     1       1.149   9.543  19.595  0.00  0.00    +0.000 A 
ATOM      8  C   UNL     1       1.669   9.160  18.346  0.00  0.00    +0.000 A 
ATOM      9  C   UNL     1       2.224   7.890  18.174  0.00  0.00    +0.000 A 
BRANCH   7  10
ATOM     10  N   UNL     1       0.600  10.838  19.757  0.00  0.00    +0.000 N 
ATOM     11  C   UNL     1       0.719  11.943  18.951  0.00  0.00    +0.000 A 
ATOM     12  N   UNL     1       0.064  12.946  19.487  0.00  0.00    +0.000 NA
ATOM     13  N   UNL     1      -0.484  12.455  20.644  0.00  0.00    +0.000 NA
ATOM     14  N   UNL     1      -0.174  11.178  20.813  0.00  0.00    +0.000 NA
ENDBRANCH   7  10
ENDBRANCH   1   4
BRANCH   1  15
ATOM     15  N   UNL     1       4.558   5.773  18.587  0.00  0.00    +0.000 N 
ATOM     16  H   UNL     1       4.805   6.713  18.895  0.00  0.00    +0.000 HD
BRANCH  15  20
ATOM     17  C   UNL     1       5.925   4.625  14.762  0.00  0.00    +0.000 A 
ATOM     18  C   UNL     1       5.462   5.926  14.991  0.00  0.00    +0.000 A 
ATOM     19  C   UNL     1       5.002   6.306  16.252  0.00  0.00    +0.000 A 
ATOM     20  C   UNL     1       5.000   5.387  17.293  0.00  0.00    +0.000 A 
ATOM     21  C   UNL     1       5.446   4.085  17.080  0.00  0.00    +0.000 A 
ATOM     22  C   UNL     1       5.910   3.706  15.813  0.00  0.00    +0.000 A 
BRANCH  17  23
ATOM     23  O   UNL     1       6.407   4.162  13.560  0.00  0.00    +0.000 OA
BRANCH  23  24
ATOM     24  C   UNL     1       5.526   3.278  12.862  0.00  0.00    +0.000 C 
BRANCH  24  25
ATOM     25  C   UNL     1       4.978   3.929  11.597  0.00  0.00    +0.000 C 
BRANCH  25  27
ATOM     26  C   UNL     1       3.104   3.795   9.904  0.00  0.00    +0.000 C 
ATOM     27  C   UNL     1       3.804   3.105  11.060  0.00  0.00    +0.000 C 
ENDBRANCH  25  27
ENDBRANCH  24  25
ENDBRANCH  23  24
ENDBRANCH  17  23
ENDBRANCH  15  20
ENDBRANCH   1  15
TORSDOF 8
ENDMDL
MODEL 8
REMARK VINA RESULT:      -7.2      4.376      8.200
REMARK  Name = 
REMARK  9 active torsions:
REMARK  status: ('A' for Active; 'I' for Inactive)
REMARK    1  A    between atoms: C_1  and  C_2
REMARK    2  A    between atoms: C_2  and  C_3
REMARK    3  A    between atoms: C_3  and  C_4
REMARK    4  A    between atoms: C_4  and  O_5
REMARK    5  A    between atoms: O_5  and  C_6
REMARK    6  A    between atoms: C_9  and  N_10
REMARK    7  A    between atoms: N_10  and  S_11
REMARK    8  A    between atoms: S_11  and  C_14
REMARK    9  A    between atoms: C_17  and  N_18
REMARK                            x       y       z     vdW  Elec       q    Type
REMARK                         _______ _______ _______ _____ _____    ______ ____
ROOT
ATOM      1  S   UNL     1       2.899   4.714  19.383  0.00  0.00    +0.000 S 
ATOM      2  O   UNL     1       3.416   3.680  20.256  0.00  0.00    +0.000 OA
ATOM      3  O   UNL     1       1.517   4.702  18.958  0.00  0.00    +0.000 OA
ENDROOT
BRANCH   1   4
ATOM      4  C   UNL     1       3.942   4.765  17.947  0.00  0.00    +0.000 A 
ATOM      5  C   UNL     1       4.929   5.748  17.849  0.00  0.00    +0.000 A 
ATOM      6  C   UNL     1       5.776   5.773  16.738  0.00  0.00    +0.000 A 
ATOM      7  C   UNL     1       5.637   4.809  15.727  0.00  0.00    +0.000 A 
ATOM      8  C   UNL     1       4.641   3.822  15.839  0.00  0.00    +0.000 A 
ATOM      9  C   UNL     1       3.800   3.795  16.953  0.00  0.00    +0.000 A 
BRANCH   7  10
ATOM     10  N   UNL     1       6.490   4.817  14.598  0.00  0.00    +0.000 N 
ATOM     11  C   UNL     1       6.381   4.126  13.417  0.00  0.00    +0.000 A 
ATOM     12  N   UNL     1       7.404   4.414  12.647  0.00  0.00    +0.000 NA
ATOM     13  N   UNL     1       8.161   5.311  13.356  0.00  0.00    +0.000 NA
ATOM     14  N   UNL     1       7.613   5.569  14.534  0.00  0.00    +0.000 NA
ENDBRANCH   7  10
ENDBRANCH   1   4
BRANCH   1  15
ATOM     15  N   UNL     1       3.254   6.181  20.143  0.00  0.00    +0.000 N 
ATOM     16  H   UNL     1       3.605   6.020  21.087  0.00  0.00    +0.000 HD
BRANCH  15  20
ATOM     17  C   UNL     1       0.542   9.374  19.632  0.00  0.00    +0.000 A 
ATOM     18  C   UNL     1       1.381   8.980  18.584  0.00  0.00    +0.000 A 
ATOM     19  C   UNL     1       2.284   7.930  18.752  0.00  0.00    +0.000 A 
ATOM     20  C   UNL     1       2.356   7.267  19.971  0.00  0.00    +0.000 A 
ATOM     21  C   UNL     1       1.536   7.655  21.029  0.00  0.00    +0.000 A 
ATOM     22  C   UNL     1       0.627   8.708  20.856  0.00  0.00    +0.000 A 
BRANCH  17  23
ATOM     23  O   UNL     1      -0.386  10.387  19.557  0.00  0.00    +0.000 OA
BRANCH  23  24
ATOM     24  C   UNL     1      -0.613  10.895  18.240  0.00  0.00    +0.000 C 
BRANCH  24  25
ATOM     25  C   UNL     1      -2.078  10.753  17.839  0.00  0.00    +0.000 C 
BRANCH  25  27
ATOM     26  C   UNL     1      -2.991  10.320  15.521  0.00  0.00    +0.000 C 
ATOM     27  C   UNL     1      -2.203   9.752  16.687  0.00  0.00    +0.000 C 
ENDBRANCH  25  27
ENDBRANCH  24  25
ENDBRANCH  23  24
ENDBRANCH  17  23
ENDBRANCH  15  20
ENDBRANCH   1  15
TORSDOF 8
ENDMDL
MODEL 9
REMARK VINA RESULT:      -7.1      4.489      8.284
REMARK  Name = 
REMARK  9 active torsions:
REMARK  status: ('A' for Active; 'I' for Inactive)
REMARK    1  A    between atoms: C_1  and  C_2
REMARK    2  A    between atoms: C_2  and  C_3
REMARK    3  A    between atoms: C_3  and  C_4
REMARK    4  A    between atoms: C_4  and  O_5
REMARK    5  A    between atoms: O_5  and  C_6
REMARK    6  A    between atoms: C_9  and  N_10
REMARK    7  A    between atoms: N_10  and  S_11
REMARK    8  A    between atoms: S_11  and  C_14
REMARK    9  A    between atoms: C_17  and  N_18
REMARK                            x       y       z     vdW  Elec       q    Type
REMARK                         _______ _______ _______ _____ _____    ______ ____
ROOT
ATOM      1  S   UNL     1       2.272   4.276  20.225  0.00  0.00    +0.000 S 
ATOM      2  O   UNL     1       2.746   3.230  21.108  0.00  0.00    +0.000 OA
ATOM      3  O   UNL     1       0.926   4.246  19.696  0.00  0.00    +0.000 OA
ENDROOT
BRANCH   1   4
ATOM      4  C   UNL     1       3.417   4.388  18.874  0.00  0.00    +0.000 A 
ATOM      5  C   UNL     1       2.987   4.082  17.581  0.00  0.00    +0.000 A 
ATOM      6  C   UNL     1       3.875   4.201  16.507  0.00  0.00    +0.000 A 
ATOM      7  C   UNL     1       5.192   4.633  16.730  0.00  0.00    +0.000 A 
ATOM      8  C   UNL     1       5.612   4.941  18.036  0.00  0.00    +0.000 A 
ATOM      9  C   UNL     1       4.723   4.827  19.106  0.00  0.00    +0.000 A 
BRANCH   7  10
ATOM     10  N   UNL     1       6.101   4.764  15.653  0.00  0.00    +0.000 N 
ATOM     11  C   UNL     1       6.066   4.190  14.407  0.00  0.00    +0.000 A 
ATOM     12  N   UNL     1       7.122   4.566  13.723  0.00  0.00    +0.000 NA
ATOM     13  N   UNL     1       7.824   5.400  14.555  0.00  0.00    +0.000 NA
ATOM     14  N   UNL     1       7.211   5.534  15.722  0.00  0.00    +0.000 NA
ENDBRANCH   7  10
ENDBRANCH   1   4
BRANCH   1  15
ATOM     15  N   UNL     1       2.534   5.729  21.046  0.00  0.00    +0.000 N 
ATOM     16  H   UNL     1       2.455   5.590  22.054  0.00  0.00    +0.000 HD
BRANCH  15  20
ATOM     17  C   UNL     1       0.897   9.290  19.481  0.00  0.00    +0.000 A 
ATOM     18  C   UNL     1       0.536   8.843  20.757  0.00  0.00    +0.000 A 
ATOM     19  C   UNL     1       1.069   7.662  21.274  0.00  0.00    +0.000 A 
ATOM     20  C   UNL     1       1.966   6.918  20.518  0.00  0.00    +0.000 A 
ATOM     21  C   UNL     1       2.327   7.343  19.241  0.00  0.00    +0.000 A 
ATOM     22  C   UNL     1       1.793   8.531  18.724  0.00  0.00    +0.000 A 
BRANCH  17  23
ATOM     23  O   UNL     1       0.435  10.444  18.893  0.00  0.00    +0.000 OA
BRANCH  23  24
ATOM     24  C   UNL     1      -0.486  10.241  17.818  0.00  0.00    +0.000 C 
BRANCH  24  25
ATOM     25  C   UNL     1      -1.928  10.261  18.315  0.00  0.00    +0.000 C 
BRANCH  25  27
ATOM     26  C   UNL     1      -4.074  11.285  17.455  0.00  0.00    +0.000 C 
ATOM     27  C   UNL     1      -2.625  11.534  17.828  0.00  0.00    +0.000 C 
ENDBRANCH  25  27
ENDBRANCH  24  25
ENDBRANCH  23  24
ENDBRANCH  17  23
ENDBRANCH  15  20
ENDBRANCH   1  15
TORSDOF 8
ENDMDL
