MODEL 1
REMARK VINA RESULT:      -8.4      0.000      0.000
REMARK  Name = 
REMARK  1 active torsions:
REMARK  status: ('A' for Active; 'I' for Inactive)
REMARK    1  A    between atoms: C_1  and  C_2
REMARK                            x       y       z     vdW  Elec       q    Type
REMARK                         _______ _______ _______ _____ _____    ______ ____
ROOT
ATOM      1  C   UNL     1       2.178   7.345  20.235  0.00  0.00    +0.000 C 
ATOM      2  C   UNL     1       2.537   6.836  18.842  0.00  0.00    +0.000 C 
ATOM      3  N   UNL     1       1.617   6.079  17.983  0.00  0.00    +0.000 N 
ATOM      4  C   UNL     1       1.601   4.703  17.871  0.00  0.00    +0.000 C 
ATOM      5  O   UNL     1       1.221   4.163  16.836  0.00  0.00    +0.000 OA
ATOM      6  C   UNL     1       1.834   3.946  19.098  0.00  0.00    +0.000 A 
ATOM      7  C   UNL     1       0.731   3.183  19.516  0.00  0.00    +0.000 A 
ATOM      8  C   UNL     1       0.724   2.697  20.805  0.00  0.00    +0.000 A 
ATOM      9  C   UNL     1       1.857   2.921  21.570  0.00  0.00    +0.000 A 
ATOM     10  N   UNL     1       2.983   3.575  21.142  0.00  0.00    +0.000 NA
ATOM     11  C   UNL     1       2.966   4.122  19.907  0.00  0.00    +0.000 A 
ATOM     12  N   UNL     1       4.062   4.928  19.442  0.00  0.00    +0.000 N 
ATOM     13  C   UNL     1       3.782   6.033  18.681  0.00  0.00    +0.000 A 
ATOM     14  N   UNL     1       4.489   6.416  17.662  0.00  0.00    +0.000 NA
ATOM     15  C   UNL     1       5.734   5.855  17.469  0.00  0.00    +0.000 A 
ATOM     16  C   UNL     1       6.462   6.667  16.612  0.00  0.00    +0.000 A 
ATOM     17  C   UNL     1       7.350   7.463  17.289  0.00  0.00    +0.000 A 
ATOM     18  F   UNL     1       7.251   8.795  17.128  0.00  0.00    +0.000 F 
ATOM     19  C   UNL     1       7.969   6.955  18.429  0.00  0.00    +0.000 A 
ATOM     20  F   UNL     1       8.877   7.705  19.063  0.00  0.00    +0.000 F 
ATOM     21  C   UNL     1       7.535   5.754  19.016  0.00  0.00    +0.000 A 
ATOM     22  C   UNL     1       6.313   5.253  18.583  0.00  0.00    +0.000 A 
ATOM     23  C   UNL     1       5.400   4.476  19.474  0.00  0.00    +0.000 A 
ATOM     24  O   UNL     1       5.848   3.534  20.117  0.00  0.00    +0.000 OA
ATOM     25  H   UNL     1       1.549   6.484  17.049  0.00  0.00    +0.000 HD
ENDROOT
TORSDOF 0
ENDMDL
MODEL 2
REMARK VINA RESULT:      -7.7      3.472      6.256
REMARK  Name = 
REMARK  1 active torsions:
REMARK  status: ('A' for Active; 'I' for Inactive)
REMARK    1  A    between atoms: C_1  and  C_2
REMARK                            x       y       z     vdW  Elec       q    Type
REMARK                         _______ _______ _______ _____ _____    ______ ____
ROOT
ATOM      1  C   UNL     1       4.559   6.959  17.643  0.00  0.00    +0.000 C 
ATOM      2  C   UNL     1       5.300   5.889  18.438  0.00  0.00    +0.000 C 
ATOM      3  N   UNL     1       6.737   5.613  18.303  0.00  0.00    +0.000 N 
ATOM      4  C   UNL     1       7.272   4.608  17.521  0.00  0.00    +0.000 C 
ATOM      5  O   UNL     1       8.348   4.095  17.813  0.00  0.00    +0.000 OA
ATOM      6  C   UNL     1       6.619   4.361  16.239  0.00  0.00    +0.000 A 
ATOM      7  C   UNL     1       7.425   4.643  15.124  0.00  0.00    +0.000 A 
ATOM      8  C   UNL     1       6.820   4.756  13.891  0.00  0.00    +0.000 A 
ATOM      9  C   UNL     1       5.462   4.491  13.829  0.00  0.00    +0.000 A 
ATOM     10  N   UNL     1       4.680   4.115  14.890  0.00  0.00    +0.000 NA
ATOM     11  C   UNL     1       5.250   4.078  16.114  0.00  0.00    +0.000 A 
ATOM     12  N   UNL     1       4.463   3.815  17.288  0.00  0.00    +0.000 N 
ATOM     13  C   UNL     1       4.756   4.502  18.437  0.00  0.00    +0.000 A 
ATOM     14  N   UNL     1       4.724   3.982  19.626  0.00  0.00    +0.000 NA
ATOM     15  C   UNL     1       4.118   2.755  19.798  0.00  0.00    +0.000 A 
ATOM     16  C   UNL     1       3.831   2.583  21.145  0.00  0.00    +0.000 A 
ATOM     17  C   UNL     1       2.514   2.842  21.427  0.00  0.00    +0.000 A 
ATOM     18  F   UNL     1       2.240   3.790  22.341  0.00  0.00    +0.000 F 
ATOM     19  C   UNL     1       1.549   2.505  20.480  0.00  0.00    +0.000 A 
ATOM     20  F   UNL     1       0.258   2.704  20.770  0.00  0.00    +0.000 F 
ATOM     21  C   UNL     1       1.912   2.125  19.176  0.00  0.00    +0.000 A 
ATOM     22  C   UNL     1       3.229   2.366  18.800  0.00  0.00    +0.000 A 
ATOM     23  C   UNL     1       3.619   2.687  17.394  0.00  0.00    +0.000 A 
ATOM     24  O   UNL     1       3.220   1.972  16.483  0.00  0.00    +0.000 OA
ATOM     25  H   UNL     1       7.211   5.613  19.205  0.00  0.00    +0.000 HD
ENDROOT
TORSDOF 0
ENDMDL
MODEL 3
REMARK VINA RESULT:      -7.4      2.417      3.678
REMARK  Name = 
REMARK  1 active torsions:
REMARK  status: ('A' for Active; 'I' for Inactive)
REMARK    1  A    between atoms: C_1  and  C_2
REMARK                            x       y       z     vdW  Elec       q    Type
REMARK                         _______ _______ _______ _____ _____    ______ ____
ROOT
ATOM      1  C   UNL     1       2.345   1.760  17.343  0.00  0.00    +0.000 C 
ATOM      2  C   UNL     1       3.763   2.050  17.823  0.00  0.00    +0.000 C 
ATOM      3  N   UNL     1       4.378   1.416  18.997  0.00  0.00    +0.000 N 
ATOM      4  C   UNL     1       4.435   1.983  20.255  0.00  0.00    +0.000 C 
ATOM      5  O   UNL     1       5.344   1.698  21.029  0.00  0.00    +0.000 OA
ATOM      6  C   UNL     1       3.261   2.738  20.684  0.00  0.00    +0.000 A 
ATOM      7  C   UNL     1       2.589   2.173  21.780  0.00  0.00    +0.000 A 
ATOM      8  C   UNL     1       1.312   2.609  22.060  0.00  0.00    +0.000 A 
ATOM      9  C   UNL     1       0.817   3.647  21.287  0.00  0.00    +0.000 A 
ATOM     10  N   UNL     1       1.500   4.278  20.279  0.00  0.00    +0.000 NA
ATOM     11  C   UNL     1       2.720   3.804  19.950  0.00  0.00    +0.000 A 
ATOM     12  N   UNL     1       3.439   4.335  18.823  0.00  0.00    +0.000 N 
ATOM     13  C   UNL     1       4.160   3.470  18.042  0.00  0.00    +0.000 A 
ATOM     14  N   UNL     1       5.320   3.744  17.529  0.00  0.00    +0.000 NA
ATOM     15  C   UNL     1       5.756   5.052  17.534  0.00  0.00    +0.000 A 
ATOM     16  C   UNL     1       6.778   5.187  16.606  0.00  0.00    +0.000 A 
ATOM     17  C   UNL     1       6.336   5.743  15.432  0.00  0.00    +0.000 A 
ATOM     18  F   UNL     1       6.518   5.046  14.297  0.00  0.00    +0.000 F 
ATOM     19  C   UNL     1       5.339   6.714  15.487  0.00  0.00    +0.000 A 
ATOM     20  F   UNL     1       4.942   7.301  14.352  0.00  0.00    +0.000 F 
ATOM     21  C   UNL     1       4.630   6.961  16.676  0.00  0.00    +0.000 A 
ATOM     22  C   UNL     1       4.772   6.024  17.693  0.00  0.00    +0.000 A 
ATOM     23  C   UNL     1       3.679   5.718  18.664  0.00  0.00    +0.000 A 
ATOM     24  O   UNL     1       3.115   6.639  19.242  0.00  0.00    +0.000 OA
ATOM     25  H   UNL     1       5.288   1.013  18.778  0.00  0.00    +0.000 HD
ENDROOT
TORSDOF 0
ENDMDL
MODEL 4
REMARK VINA RESULT:      -7.0     10.083     12.539
REMARK  Name = 
REMARK  1 active torsions:
REMARK  status: ('A' for Active; 'I' for Inactive)
REMARK    1  A    between atoms: C_1  and  C_2
REMARK                            x       y       z     vdW  Elec       q    Type
REMARK                         _______ _______ _______ _____ _____    ______ ____
ROOT
ATOM      1  C   UNL     1      -6.747   9.553  19.325  0.00  0.00    +0.000 C 
ATOM      2  C   UNL     1      -6.916  11.070  19.338  0.00  0.00    +0.000 C 
ATOM      3  N   UNL     1      -7.152  11.879  18.135  0.00  0.00    +0.000 N 
ATOM      4  C   UNL     1      -6.169  12.554  17.439  0.00  0.00    +0.000 C 
ATOM      5  O   UNL     1      -6.437  13.572  16.806  0.00  0.00    +0.000 OA
ATOM      6  C   UNL     1      -4.879  11.881  17.311  0.00  0.00    +0.000 A 
ATOM      7  C   UNL     1      -4.542  11.540  15.991  0.00  0.00    +0.000 A 
ATOM      8  C   UNL     1      -3.525  10.632  15.791  0.00  0.00    +0.000 A 
ATOM      9  C   UNL     1      -2.844  10.189  16.913  0.00  0.00    +0.000 A 
ATOM     10  N   UNL     1      -3.095  10.591  18.200  0.00  0.00    +0.000 NA
ATOM     11  C   UNL     1      -4.140  11.420  18.411  0.00  0.00    +0.000 A 
ATOM     12  N   UNL     1      -4.538  11.781  19.744  0.00  0.00    +0.000 N 
ATOM     13  C   UNL     1      -5.877  11.892  20.019  0.00  0.00    +0.000 A 
ATOM     14  N   UNL     1      -6.391  12.803  20.786  0.00  0.00    +0.000 NA
ATOM     15  C   UNL     1      -5.552  13.550  21.585  0.00  0.00    +0.000 A 
ATOM     16  C   UNL     1      -6.302  14.146  22.588  0.00  0.00    +0.000 A 
ATOM     17  C   UNL     1      -6.201  13.469  23.777  0.00  0.00    +0.000 A 
ATOM     18  F   UNL     1      -7.335  13.015  24.342  0.00  0.00    +0.000 F 
ATOM     19  C   UNL     1      -4.987  12.871  24.104  0.00  0.00    +0.000 A 
ATOM     20  F   UNL     1      -4.864  12.256  25.286  0.00  0.00    +0.000 F 
ATOM     21  C   UNL     1      -3.955  12.755  23.156  0.00  0.00    +0.000 A 
ATOM     22  C   UNL     1      -4.295  13.004  21.831  0.00  0.00    +0.000 A 
ATOM     23  C   UNL     1      -3.630  12.314  20.686  0.00  0.00    +0.000 A 
ATOM     24  O   UNL     1      -2.406  12.282  20.634  0.00  0.00    +0.000 OA
ATOM     25  H   UNL     1      -7.958  12.494  18.242  0.00  0.00    +0.000 HD
ENDROOT
TORSDOF 0
ENDMDL
MODEL 5
REMARK VINA RESULT:      -6.9      7.794     10.270
REMARK  Name = 
REMARK  1 active torsions:
REMARK  status: ('A' for Active; 'I' for Inactive)
REMARK    1  A    between atoms: C_1  and  C_2
REMARK                            x       y       z     vdW  Elec       q    Type
REMARK                         _______ _______ _______ _____ _____    ______ ____
ROOT
ATOM      1  C   UNL     1      -2.661  10.623  18.146  0.00  0.00    +0.000 C 
ATOM      2  C   UNL     1      -2.159  11.992  18.592  0.00  0.00    +0.000 C 
ATOM      3  N   UNL     1      -1.062  12.718  17.937  0.00  0.00    +0.000 N 
ATOM      4  C   UNL     1       0.249  12.716  18.371  0.00  0.00    +0.000 C 
ATOM      5  O   UNL     1       0.983  13.673  18.146  0.00  0.00    +0.000 OA
ATOM      6  C   UNL     1       0.761  11.452  18.893  0.00  0.00    +0.000 A 
ATOM      7  C   UNL     1       1.794  10.894  18.123  0.00  0.00    +0.000 A 
ATOM      8  C   UNL     1       2.124   9.573  18.332  0.00  0.00    +0.000 A 
ATOM      9  C   UNL     1       1.469   8.914  19.360  0.00  0.00    +0.000 A 
ATOM     10  N   UNL     1       0.532   9.475  20.188  0.00  0.00    +0.000 NA
ATOM     11  C   UNL     1       0.147  10.745  19.938  0.00  0.00    +0.000 A 
ATOM     12  N   UNL     1      -0.919  11.355  20.685  0.00  0.00    +0.000 N 
ATOM     13  C   UNL     1      -1.791  12.180  20.024  0.00  0.00    +0.000 A 
ATOM     14  N   UNL     1      -2.278  13.275  20.521  0.00  0.00    +0.000 NA
ATOM     15  C   UNL     1      -2.135  13.514  21.871  0.00  0.00    +0.000 A 
ATOM     16  C   UNL     1      -3.048  14.486  22.253  0.00  0.00    +0.000 A 
ATOM     17  C   UNL     1      -4.153  13.943  22.858  0.00  0.00    +0.000 A 
ATOM     18  F   UNL     1      -5.358  14.203  22.318  0.00  0.00    +0.000 F 
ATOM     19  C   UNL     1      -3.991  12.814  23.658  0.00  0.00    +0.000 A 
ATOM     20  F   UNL     1      -5.055  12.312  24.295  0.00  0.00    +0.000 F 
ATOM     21  C   UNL     1      -2.779  12.101  23.671  0.00  0.00    +0.000 A 
ATOM     22  C   UNL     1      -1.868  12.401  22.664  0.00  0.00    +0.000 A 
ATOM     23  C   UNL     1      -0.931  11.385  22.098  0.00  0.00    +0.000 A 
ATOM     24  O   UNL     1      -0.255  10.703  22.859  0.00  0.00    +0.000 OA
ATOM     25  H   UNL     1      -1.327  13.673  17.699  0.00  0.00    +0.000 HD
ENDROOT
TORSDOF 0
ENDMDL
MODEL 6
REMARK VINA RESULT:      -6.8      8.162     10.885
REMARK  Name = 
REMARK  1 active torsions:
REMARK  status: ('A' for Active; 'I' for Inactive)
REMARK    1  A    between atoms: C_1  and  C_2
REMARK                            x       y       z     vdW  Elec       q    Type
REMARK                         _______ _______ _______ _____ _____    ______ ____
ROOT
ATOM      1  C   UNL     1      -0.354  13.809  18.888  0.00  0.00    +0.000 C 
ATOM      2  C   UNL     1      -1.340  13.275  19.922  0.00  0.00    +0.000 C 
ATOM      3  N   UNL     1      -0.941  12.575  21.150  0.00  0.00    +0.000 N 
ATOM      4  C   UNL     1      -0.908  11.202  21.295  0.00  0.00    +0.000 C 
ATOM      5  O   UNL     1      -1.075  10.684  22.395  0.00  0.00    +0.000 OA
ATOM      6  C   UNL     1      -0.446  10.436  20.141  0.00  0.00    +0.000 A 
ATOM      7  C   UNL     1       0.757   9.744  20.360  0.00  0.00    +0.000 A 
ATOM      8  C   UNL     1       1.442   9.263  19.266  0.00  0.00    +0.000 A 
ATOM      9  C   UNL     1       0.842   9.418  18.027  0.00  0.00    +0.000 A 
ATOM     10  N   UNL     1      -0.380  10.000  17.808  0.00  0.00    +0.000 NA
ATOM     11  C   UNL     1      -1.020  10.543  18.865  0.00  0.00    +0.000 A 
ATOM     12  N   UNL     1      -2.243  11.278  18.690  0.00  0.00    +0.000 N 
ATOM     13  C   UNL     1      -2.449  12.396  19.455  0.00  0.00    +0.000 A 
ATOM     14  N   UNL     1      -3.594  12.730  19.966  0.00  0.00    +0.000 NA
ATOM     15  C   UNL     1      -4.732  12.093  19.520  0.00  0.00    +0.000 A 
ATOM     16  C   UNL     1      -5.838  12.855  19.868  0.00  0.00    +0.000 A 
ATOM     17  C   UNL     1      -6.304  13.597  18.811  0.00  0.00    +0.000 A 
ATOM     18  F   UNL     1      -6.373  14.932  18.961  0.00  0.00    +0.000 F 
ATOM     19  C   UNL     1      -6.231  13.054  17.531  0.00  0.00    +0.000 A 
ATOM     20  F   UNL     1      -6.733  13.748  16.503  0.00  0.00    +0.000 F 
ATOM     21  C   UNL     1      -5.494  11.884  17.278  0.00  0.00    +0.000 A 
ATOM     22  C   UNL     1      -4.633  11.459  18.284  0.00  0.00    +0.000 A 
ATOM     23  C   UNL     1      -3.354  10.743  18.000  0.00  0.00    +0.000 A 
ATOM     24  O   UNL     1      -3.362   9.777  17.246  0.00  0.00    +0.000 OA
ATOM     25  H   UNL     1      -1.378  12.980  21.978  0.00  0.00    +0.000 HD
ENDROOT
TORSDOF 0
ENDMDL
MODEL 7
REMARK VINA RESULT:      -6.6      9.209     11.089
REMARK  Name = 
REMARK  1 active torsions:
REMARK  status: ('A' for Active; 'I' for Inactive)
REMARK    1  A    between atoms: C_1  and  C_2
REMARK                            x       y       z     vdW  Elec       q    Type
REMARK                         _______ _______ _______ _____ _____    ______ ____
ROOT
ATOM      1  C   UNL     1       7.419  12.948  17.138  0.00  0.00    +0.000 C 
ATOM      2  C   UNL     1       7.536  14.189  18.017  0.00  0.00    +0.000 C 
ATOM      3  N   UNL     1       8.238  15.415  17.616  0.00  0.00    +0.000 N 
ATOM      4  C   UNL     1       9.536  15.727  17.970  0.00  0.00    +0.000 C 
ATOM      5  O   UNL     1       9.894  16.897  18.066  0.00  0.00    +0.000 OA
ATOM      6  C   UNL     1      10.489  14.621  17.994  0.00  0.00    +0.000 A 
ATOM      7  C   UNL     1      11.511  14.727  17.037  0.00  0.00    +0.000 A 
ATOM      8  C   UNL     1      12.262  13.606  16.756  0.00  0.00    +0.000 A 
ATOM      9  C   UNL     1      12.011  12.473  17.511  0.00  0.00    +0.000 A 
ATOM     10  N   UNL     1      11.086  12.384  18.520  0.00  0.00    +0.000 NA
ATOM     11  C   UNL     1      10.294  13.453  18.747  0.00  0.00    +0.000 A 
ATOM     12  N   UNL     1       9.221  13.388  19.702  0.00  0.00    +0.000 N 
ATOM     13  C   UNL     1       8.045  14.027  19.407  0.00  0.00    +0.000 A 
ATOM     14  N   UNL     1       7.327  14.670  20.276  0.00  0.00    +0.000 NA
ATOM     15  C   UNL     1       7.597  14.501  21.617  0.00  0.00    +0.000 A 
ATOM     16  C   UNL     1       6.499  14.925  22.352  0.00  0.00    +0.000 A 
ATOM     17  C   UNL     1       5.724  13.873  22.770  0.00  0.00    +0.000 A 
ATOM     18  F   UNL     1       4.430  13.860  22.404  0.00  0.00    +0.000 F 
ATOM     19  C   UNL     1       6.350  12.678  23.116  0.00  0.00    +0.000 A 
ATOM     20  F   UNL     1       5.606  11.666  23.577  0.00  0.00    +0.000 F 
ATOM     21  C   UNL     1       7.709  12.460  22.830  0.00  0.00    +0.000 A 
ATOM     22  C   UNL     1       8.315  13.358  21.957  0.00  0.00    +0.000 A 
ATOM     23  C   UNL     1       9.420  12.962  21.035  0.00  0.00    +0.000 A 
ATOM     24  O   UNL     1      10.384  12.350  21.480  0.00  0.00    +0.000 OA
ATOM     25  H   UNL     1       7.657  16.244  17.739  0.00  0.00    +0.000 HD
ENDROOT
TORSDOF 0
ENDMDL
MODEL 8
REMARK VINA RESULT:      -6.5      7.836      9.700
REMARK  Name = 
REMARK  1 active torsions:
REMARK  status: ('A' for Active; 'I' for Inactive)
REMARK    1  A    between atoms: C_1  and  C_2
REMARK                            x       y       z     vdW  Elec       q    Type
REMARK                         _______ _______ _______ _____ _____    ______ ____
ROOT
ATOM      1  C   UNL     1      -2.647  11.881  19.191  0.00  0.00    +0.000 C 
ATOM      2  C   UNL     1      -1.278  12.216  18.607  0.00  0.00    +0.000 C 
ATOM      3  N   UNL     1      -0.291  11.208  18.199  0.00  0.00    +0.000 N 
ATOM      4  C   UNL     1       0.767  10.784  18.980  0.00  0.00    +0.000 C 
ATOM      5  O   UNL     1       1.801  10.372  18.462  0.00  0.00    +0.000 OA
ATOM      6  C   UNL     1       0.505  10.640  20.409  0.00  0.00    +0.000 A 
ATOM      7  C   UNL     1       0.596   9.318  20.875  0.00  0.00    +0.000 A 
ATOM      8  C   UNL     1       0.063   9.023  22.110  0.00  0.00    +0.000 A 
ATOM      9  C   UNL     1      -0.446  10.080  22.847  0.00  0.00    +0.000 A 
ATOM     10  N   UNL     1      -0.450  11.392  22.449  0.00  0.00    +0.000 NA
ATOM     11  C   UNL     1       0.000  11.677  21.208  0.00  0.00    +0.000 A 
ATOM     12  N   UNL     1      -0.091  13.010  20.677  0.00  0.00    +0.000 N 
ATOM     13  C   UNL     1      -0.404  13.166  19.352  0.00  0.00    +0.000 A 
ATOM     14  N   UNL     1       0.126  14.062  18.578  0.00  0.00    +0.000 NA
ATOM     15  C   UNL     1       0.849  15.089  19.147  0.00  0.00    +0.000 A 
ATOM     16  C   UNL     1       0.966  16.119  18.226  0.00  0.00    +0.000 A 
ATOM     17  C   UNL     1       0.070  17.130  18.468  0.00  0.00    +0.000 A 
ATOM     18  F   UNL     1      -0.787  17.461  17.486  0.00  0.00    +0.000 F 
ATOM     19  C   UNL     1      -0.251  17.435  19.789  0.00  0.00    +0.000 A 
ATOM     20  F   UNL     1      -1.081  18.455  20.035  0.00  0.00    +0.000 F 
ATOM     21  C   UNL     1       0.141  16.594  20.845  0.00  0.00    +0.000 A 
ATOM     22  C   UNL     1       0.607  15.331  20.497  0.00  0.00    +0.000 A 
ATOM     23  C   UNL     1       0.415  14.134  21.368  0.00  0.00    +0.000 A 
ATOM     24  O   UNL     1       0.718  14.200  22.554  0.00  0.00    +0.000 OA
ATOM     25  H   UNL     1       0.047  11.369  17.250  0.00  0.00    +0.000 HD
ENDROOT
TORSDOF 0
ENDMDL
MODEL 9
REMARK VINA RESULT:      -6.5      8.574     11.297
REMARK  Name = 
REMARK  1 active torsions:
REMARK  status: ('A' for Active; 'I' for Inactive)
REMARK    1  A    between atoms: C_1  and  C_2
REMARK                            x       y       z     vdW  Elec       q    Type
REMARK                         _______ _______ _______ _____ _____    ______ ____
ROOT
ATOM      1  C   UNL     1      -0.492  13.942  18.644  0.00  0.00    +0.000 C 
ATOM      2  C   UNL     1      -0.585  13.001  19.841  0.00  0.00    +0.000 C 
ATOM      3  N   UNL     1      -0.037  11.638  19.857  0.00  0.00    +0.000 N 
ATOM      4  C   UNL     1      -0.771  10.494  19.611  0.00  0.00    +0.000 C 
ATOM      5  O   UNL     1      -0.445   9.422  20.112  0.00  0.00    +0.000 OA
ATOM      6  C   UNL     1      -1.787  10.584  18.566  0.00  0.00    +0.000 A 
ATOM      7  C   UNL     1      -1.533   9.769  17.451  0.00  0.00    +0.000 A 
ATOM      8  C   UNL     1      -2.236  10.010  16.291  0.00  0.00    +0.000 A 
ATOM      9  C   UNL     1      -3.216  10.988  16.339  0.00  0.00    +0.000 A 
ATOM     10  N   UNL     1      -3.546  11.723  17.449  0.00  0.00    +0.000 NA
ATOM     11  C   UNL     1      -2.809  11.546  18.566  0.00  0.00    +0.000 A 
ATOM     12  N   UNL     1      -3.016  12.369  19.727  0.00  0.00    +0.000 N 
ATOM     13  C   UNL     1      -1.923  12.763  20.453  0.00  0.00    +0.000 A 
ATOM     14  N   UNL     1      -1.895  12.837  21.748  0.00  0.00    +0.000 NA
ATOM     15  C   UNL     1      -3.084  12.774  22.443  0.00  0.00    +0.000 A 
ATOM     16  C   UNL     1      -2.882  13.272  23.722  0.00  0.00    +0.000 A 
ATOM     17  C   UNL     1      -3.323  14.565  23.845  0.00  0.00    +0.000 A 
ATOM     18  F   UNL     1      -2.437  15.498  24.238  0.00  0.00    +0.000 F 
ATOM     19  C   UNL     1      -4.458  14.955  23.138  0.00  0.00    +0.000 A 
ATOM     20  F   UNL     1      -4.926  16.198  23.296  0.00  0.00    +0.000 F 
ATOM     21  C   UNL     1      -5.013  14.130  22.144  0.00  0.00    +0.000 A 
ATOM     22  C   UNL     1      -4.235  13.062  21.713  0.00  0.00    +0.000 A 
ATOM     23  C   UNL     1      -4.290  12.536  20.316  0.00  0.00    +0.000 A 
ATOM     24  O   UNL     1      -5.377  12.278  19.815  0.00  0.00    +0.000 OA
ATOM     25  H   UNL     1       0.557  11.477  20.670  0.00  0.00    +0.000 HD
ENDROOT
TORSDOF 0
ENDMDL
