MODEL 1
REMARK VINA RESULT:      -9.5      0.000      0.000
REMARK  Name = 
REMARK  6 active torsions:
REMARK  status: ('A' for Active; 'I' for Inactive)
REMARK    1  A    between atoms: C_2  and  C_25
REMARK    2  A    between atoms: N_3  and  C_4
REMARK    3  A    between atoms: C_4  and  C_5
REMARK    4  A    between atoms: C_5  and  N_6
REMARK    5  A    between atoms: N_16  and  C_17
REMARK    6  A    between atoms: C_17  and  C_18
REMARK                            x       y       z     vdW  Elec       q    Type
REMARK                         _______ _______ _______ _____ _____    ______ ____
ROOT
ATOM      1  N   UNL     1       2.803   6.834  18.852  0.00  0.00    +0.000 NA
ATOM      2  C   UNL     1       3.260   5.964  19.933  0.00  0.00    +0.000 C 
ATOM      3  C   UNL     1       2.574   4.612  20.061  0.00  0.00    +0.000 C 
ATOM      4  C   UNL     1       2.406   3.881  18.727  0.00  0.00    +0.000 C 
ATOM      5  C   UNL     1       1.715   4.841  17.745  0.00  0.00    +0.000 C 
ATOM      6  C   UNL     1       2.417   6.180  17.604  0.00  0.00    +0.000 C 
ATOM      7  C   UNL     1       1.399   2.742  18.965  0.00  0.00    +0.000 C 
ATOM      8  O   UNL     1       0.234   2.823  19.315  0.00  0.00    +0.000 OA
ATOM      9  N   UNL     1       2.059   1.564  18.739  0.00  0.00    +0.000 N 
ATOM     10  C   UNL     1       3.454   1.762  18.621  0.00  0.00    +0.000 C 
ATOM     11  N   UNL     1       3.579   3.140  18.154  0.00  0.00    +0.000 NA
ATOM     12  H   UNL     1       1.611   0.685  18.950  0.00  0.00    +0.000 HD
ENDROOT
BRANCH   1  13
ATOM     13  C   UNL     1       1.905   7.902  19.291  0.00  0.00    +0.000 C 
BRANCH  13  14
ATOM     14  C   UNL     1       1.878   9.032  18.245  0.00  0.00    +0.000 C 
BRANCH  14  17
ATOM     15  O   UNL     1       0.371  10.825  19.773  0.00  0.00    +0.000 OA
ATOM     16  C   UNL     1      -0.109  10.361  18.746  0.00  0.00    +0.000 C 
ATOM     17  N   UNL     1       0.539   9.457  17.935  0.00  0.00    +0.000 N 
ATOM     18  H   UNL     1       0.021   8.931  17.245  0.00  0.00    +0.000 HD
BRANCH  16  19
ATOM     19  C   UNL     1      -1.473  10.742  18.310  0.00  0.00    +0.000 A 
ATOM     20  C   UNL     1      -1.906  10.341  17.046  0.00  0.00    +0.000 A 
ATOM     21  C   UNL     1      -3.189  10.686  16.623  0.00  0.00    +0.000 A 
ATOM     22  C   UNL     1      -4.040  11.427  17.454  0.00  0.00    +0.000 A 
ATOM     23  C   UNL     1      -5.334  11.778  17.044  0.00  0.00    +0.000 A 
ATOM     24  C   UNL     1      -6.174  12.509  17.888  0.00  0.00    +0.000 A 
ATOM     25  C   UNL     1      -5.734  12.897  19.151  0.00  0.00    +0.000 A 
ATOM     26  C   UNL     1      -4.453  12.554  19.577  0.00  0.00    +0.000 A 
ATOM     27  C   UNL     1      -3.604  11.820  18.738  0.00  0.00    +0.000 A 
ATOM     28  C   UNL     1      -2.320  11.462  19.157  0.00  0.00    +0.000 A 
ENDBRANCH  16  19
ENDBRANCH  14  17
ENDBRANCH  13  14
ENDBRANCH   1  13
BRANCH  11  29
ATOM     29  C   UNL     1       4.950   3.627  18.374  0.00  0.00    +0.000 C 
BRANCH  29  30
ATOM     30  C   UNL     1       5.652   4.043  17.075  0.00  0.00    +0.000 A 
ATOM     31  C   UNL     1       4.943   3.994  15.863  0.00  0.00    +0.000 A 
ATOM     32  C   UNL     1       5.543   4.366  14.655  0.00  0.00    +0.000 A 
ATOM     33  C   UNL     1       6.864   4.802  14.643  0.00  0.00    +0.000 A 
ATOM     34 CL   UNL     1       7.603   5.246  13.153  0.00  0.00    +0.000 Cl
ATOM     35  C   UNL     1       7.584   4.883  15.834  0.00  0.00    +0.000 A 
ATOM     36  C   UNL     1       6.980   4.509  17.046  0.00  0.00    +0.000 A 
ENDBRANCH  29  30
ENDBRANCH  11  29
TORSDOF 6
ENDMDL
MODEL 2
REMARK VINA RESULT:      -9.2      0.618      1.356
REMARK  Name = 
REMARK  6 active torsions:
REMARK  status: ('A' for Active; 'I' for Inactive)
REMARK    1  A    between atoms: C_2  and  C_25
REMARK    2  A    between atoms: N_3  and  C_4
REMARK    3  A    between atoms: C_4  and  C_5
REMARK    4  A    between atoms: C_5  and  N_6
REMARK    5  A    between atoms: N_16  and  C_17
REMARK    6  A    between atoms: C_17  and  C_18
REMARK                            x       y       z     vdW  Elec       q    Type
REMARK                         _______ _______ _______ _____ _____    ______ ____
ROOT
ATOM      1  N   UNL     1       2.856   6.731  19.080  0.00  0.00    +0.000 NA
ATOM      2  C   UNL     1       3.337   5.738  20.040  0.00  0.00    +0.000 C 
ATOM      3  C   UNL     1       2.637   4.387  20.036  0.00  0.00    +0.000 C 
ATOM      4  C   UNL     1       2.417   3.815  18.634  0.00  0.00    +0.000 C 
ATOM      5  C   UNL     1       1.706   4.887  17.791  0.00  0.00    +0.000 C 
ATOM      6  C   UNL     1       2.421   6.226  17.780  0.00  0.00    +0.000 C 
ATOM      7  C   UNL     1       1.403   2.665  18.775  0.00  0.00    +0.000 C 
ATOM      8  O   UNL     1       0.251   2.717  19.171  0.00  0.00    +0.000 OA
ATOM      9  N   UNL     1       2.040   1.515  18.395  0.00  0.00    +0.000 N 
ATOM     10  C   UNL     1       3.433   1.712  18.253  0.00  0.00    +0.000 C 
ATOM     11  N   UNL     1       3.561   3.133  17.941  0.00  0.00    +0.000 NA
ATOM     12  H   UNL     1       1.587   0.622  18.519  0.00  0.00    +0.000 HD
ENDROOT
BRANCH   1  13
ATOM     13  C   UNL     1       1.987   7.750  19.668  0.00  0.00    +0.000 C 
BRANCH  13  14
ATOM     14  C   UNL     1       1.737   8.879  18.652  0.00  0.00    +0.000 C 
BRANCH  14  17
ATOM     15  O   UNL     1       1.225  11.522  19.410  0.00  0.00    +0.000 OA
ATOM     16  C   UNL     1       0.286  10.780  19.152  0.00  0.00    +0.000 C 
ATOM     17  N   UNL     1       0.427   9.459  18.790  0.00  0.00    +0.000 N 
ATOM     18  H   UNL     1      -0.368   8.836  18.822  0.00  0.00    +0.000 HD
BRANCH  16  19
ATOM     19  C   UNL     1      -1.109  11.269  19.237  0.00  0.00    +0.000 A 
ATOM     20  C   UNL     1      -1.504  11.971  20.376  0.00  0.00    +0.000 A 
ATOM     21  C   UNL     1      -2.812  12.444  20.469  0.00  0.00    +0.000 A 
ATOM     22  C   UNL     1      -3.727  12.220  19.432  0.00  0.00    +0.000 A 
ATOM     23  C   UNL     1      -5.045  12.693  19.508  0.00  0.00    +0.000 A 
ATOM     24  C   UNL     1      -5.943  12.469  18.462  0.00  0.00    +0.000 A 
ATOM     25  C   UNL     1      -5.537  11.774  17.324  0.00  0.00    +0.000 A 
ATOM     26  C   UNL     1      -4.230  11.301  17.229  0.00  0.00    +0.000 A 
ATOM     27  C   UNL     1      -3.322  11.521  18.274  0.00  0.00    +0.000 A 
ATOM     28  C   UNL     1      -2.006  11.059  18.186  0.00  0.00    +0.000 A 
ENDBRANCH  16  19
ENDBRANCH  14  17
ENDBRANCH  13  14
ENDBRANCH   1  13
BRANCH  11  29
ATOM     29  C   UNL     1       4.944   3.579  18.168  0.00  0.00    +0.000 C 
BRANCH  29  30
ATOM     30  C   UNL     1       5.648   4.021  16.880  0.00  0.00    +0.000 A 
ATOM     31  C   UNL     1       4.999   3.850  15.646  0.00  0.00    +0.000 A 
ATOM     32  C   UNL     1       5.603   4.241  14.446  0.00  0.00    +0.000 A 
ATOM     33  C   UNL     1       6.869   4.819  14.464  0.00  0.00    +0.000 A 
ATOM     34 CL   UNL     1       7.615   5.285  12.985  0.00  0.00    +0.000 Cl
ATOM     35  C   UNL     1       7.527   5.021  15.675  0.00  0.00    +0.000 A 
ATOM     36  C   UNL     1       6.919   4.629  16.880  0.00  0.00    +0.000 A 
ENDBRANCH  29  30
ENDBRANCH  11  29
TORSDOF 6
ENDMDL
MODEL 3
REMARK VINA RESULT:      -9.0      1.752      2.434
REMARK  Name = 
REMARK  6 active torsions:
REMARK  status: ('A' for Active; 'I' for Inactive)
REMARK    1  A    between atoms: C_2  and  C_25
REMARK    2  A    between atoms: N_3  and  C_4
REMARK    3  A    between atoms: C_4  and  C_5
REMARK    4  A    between atoms: C_5  and  N_6
REMARK    5  A    between atoms: N_16  and  C_17
REMARK    6  A    between atoms: C_17  and  C_18
REMARK                            x       y       z     vdW  Elec       q    Type
REMARK                         _______ _______ _______ _____ _____    ______ ____
ROOT
ATOM      1  N   UNL     1       2.714   6.713  19.273  0.00  0.00    +0.000 NA
ATOM      2  C   UNL     1       3.236   5.673  20.158  0.00  0.00    +0.000 C 
ATOM      3  C   UNL     1       2.582   4.302  20.064  0.00  0.00    +0.000 C 
ATOM      4  C   UNL     1       2.369   3.822  18.627  0.00  0.00    +0.000 C 
ATOM      5  C   UNL     1       1.616   4.925  17.865  0.00  0.00    +0.000 C 
ATOM      6  C   UNL     1       2.285   6.286  17.944  0.00  0.00    +0.000 C 
ATOM      7  C   UNL     1       1.396   2.631  18.693  0.00  0.00    +0.000 C 
ATOM      8  O   UNL     1       0.246   2.616  19.099  0.00  0.00    +0.000 OA
ATOM      9  N   UNL     1       2.067   1.533  18.229  0.00  0.00    +0.000 N 
ATOM     10  C   UNL     1       3.452   1.787  18.093  0.00  0.00    +0.000 C 
ATOM     11  N   UNL     1       3.529   3.230  17.880  0.00  0.00    +0.000 NA
ATOM     12  H   UNL     1       1.646   0.619  18.293  0.00  0.00    +0.000 HD
ENDROOT
BRANCH   1  13
ATOM     13  C   UNL     1       1.816   7.658  19.936  0.00  0.00    +0.000 C 
BRANCH  13  14
ATOM     14  C   UNL     1       1.649   8.921  19.072  0.00  0.00    +0.000 C 
BRANCH  14  17
ATOM     15  O   UNL     1      -0.689   9.927  17.913  0.00  0.00    +0.000 OA
ATOM     16  C   UNL     1      -0.364  10.305  19.031  0.00  0.00    +0.000 C 
ATOM     17  N   UNL     1       0.776   9.889  19.682  0.00  0.00    +0.000 N 
ATOM     18  H   UNL     1       1.119  10.400  20.483  0.00  0.00    +0.000 HD
BRANCH  16  19
ATOM     19  C   UNL     1      -1.195  11.284  19.770  0.00  0.00    +0.000 A 
ATOM     20  C   UNL     1      -2.339  11.789  19.154  0.00  0.00    +0.000 A 
ATOM     21  C   UNL     1      -3.136  12.706  19.838  0.00  0.00    +0.000 A 
ATOM     22  C   UNL     1      -2.796  13.120  21.133  0.00  0.00    +0.000 A 
ATOM     23  C   UNL     1      -3.589  14.038  21.836  0.00  0.00    +0.000 A 
ATOM     24  C   UNL     1      -3.242  14.434  23.130  0.00  0.00    +0.000 A 
ATOM     25  C   UNL     1      -2.101  13.917  23.740  0.00  0.00    +0.000 A 
ATOM     26  C   UNL     1      -1.304  13.000  23.058  0.00  0.00    +0.000 A 
ATOM     27  C   UNL     1      -1.645  12.597  21.760  0.00  0.00    +0.000 A 
ATOM     28  C   UNL     1      -0.857  11.672  21.070  0.00  0.00    +0.000 A 
ENDBRANCH  16  19
ENDBRANCH  14  17
ENDBRANCH  13  14
ENDBRANCH   1  13
BRANCH  11  29
ATOM     29  C   UNL     1       4.898   3.705  18.130  0.00  0.00    +0.000 C 
BRANCH  29  30
ATOM     30  C   UNL     1       5.635   4.107  16.845  0.00  0.00    +0.000 A 
ATOM     31  C   UNL     1       4.961   4.037  15.615  0.00  0.00    +0.000 A 
ATOM     32  C   UNL     1       5.593   4.395  14.419  0.00  0.00    +0.000 A 
ATOM     33  C   UNL     1       6.911   4.840  14.438  0.00  0.00    +0.000 A 
ATOM     34 CL   UNL     1       7.689   5.267  12.964  0.00  0.00    +0.000 Cl
ATOM     35  C   UNL     1       7.596   4.942  15.648  0.00  0.00    +0.000 A 
ATOM     36  C   UNL     1       6.960   4.582  16.848  0.00  0.00    +0.000 A 
ENDBRANCH  29  30
ENDBRANCH  11  29
TORSDOF 6
ENDMDL
MODEL 4
REMARK VINA RESULT:      -8.9      3.345     10.491
REMARK  Name = 
REMARK  6 active torsions:
REMARK  status: ('A' for Active; 'I' for Inactive)
REMARK    1  A    between atoms: C_2  and  C_25
REMARK    2  A    between atoms: N_3  and  C_4
REMARK    3  A    between atoms: C_4  and  C_5
REMARK    4  A    between atoms: C_5  and  N_6
REMARK    5  A    between atoms: N_16  and  C_17
REMARK    6  A    between atoms: C_17  and  C_18
REMARK                            x       y       z     vdW  Elec       q    Type
REMARK                         _______ _______ _______ _____ _____    ______ ____
ROOT
ATOM      1  N   UNL     1       0.105   9.839  21.217  0.00  0.00    +0.000 NA
ATOM      2  C   UNL     1      -0.757  10.545  22.164  0.00  0.00    +0.000 C 
ATOM      3  C   UNL     1      -0.467  12.022  22.384  0.00  0.00    +0.000 C 
ATOM      4  C   UNL     1      -0.230  12.800  21.087  0.00  0.00    +0.000 C 
ATOM      5  C   UNL     1       0.857  12.063  20.285  0.00  0.00    +0.000 C 
ATOM      6  C   UNL     1       0.550  10.595  20.050  0.00  0.00    +0.000 C 
ATOM      7  C   UNL     1       0.396  14.149  21.483  0.00  0.00    +0.000 C 
ATOM      8  O   UNL     1       1.453  14.354  22.054  0.00  0.00    +0.000 OA
ATOM      9  N   UNL     1      -0.479  15.129  21.100  0.00  0.00    +0.000 N 
ATOM     10  C   UNL     1      -1.731  14.591  20.719  0.00  0.00    +0.000 C 
ATOM     11  N   UNL     1      -1.416  13.236  20.276  0.00  0.00    +0.000 NA
ATOM     12  H   UNL     1      -0.314  16.087  21.368  0.00  0.00    +0.000 HD
ENDROOT
BRANCH   1  13
ATOM     13  C   UNL     1       1.136   9.020  21.852  0.00  0.00    +0.000 C 
BRANCH  13  14
ATOM     14  C   UNL     1       0.916   7.535  21.509  0.00  0.00    +0.000 C 
BRANCH  14  17
ATOM     15  O   UNL     1       1.212   4.855  20.767  0.00  0.00    +0.000 OA
ATOM     16  C   UNL     1       1.935   5.701  20.257  0.00  0.00    +0.000 C 
ATOM     17  N   UNL     1       1.886   7.043  20.567  0.00  0.00    +0.000 N 
ATOM     18  H   UNL     1       2.648   7.653  20.306  0.00  0.00    +0.000 HD
BRANCH  16  19
ATOM     19  C   UNL     1       2.958   5.319  19.256  0.00  0.00    +0.000 A 
ATOM     20  C   UNL     1       2.535   4.772  18.045  0.00  0.00    +0.000 A 
ATOM     21  C   UNL     1       3.485   4.412  17.089  0.00  0.00    +0.000 A 
ATOM     22  C   UNL     1       4.852   4.596  17.337  0.00  0.00    +0.000 A 
ATOM     23  C   UNL     1       5.819   4.243  16.385  0.00  0.00    +0.000 A 
ATOM     24  C   UNL     1       7.177   4.441  16.643  0.00  0.00    +0.000 A 
ATOM     25  C   UNL     1       7.589   4.996  17.853  0.00  0.00    +0.000 A 
ATOM     26  C   UNL     1       6.641   5.356  18.809  0.00  0.00    +0.000 A 
ATOM     27  C   UNL     1       5.277   5.162  18.558  0.00  0.00    +0.000 A 
ATOM     28  C   UNL     1       4.317   5.528  19.507  0.00  0.00    +0.000 A 
ENDBRANCH  16  19
ENDBRANCH  14  17
ENDBRANCH  13  14
ENDBRANCH   1  13
BRANCH  11  29
ATOM     29  C   UNL     1      -2.637  12.418  20.240  0.00  0.00    +0.000 C 
BRANCH  29  30
ATOM     30  C   UNL     1      -2.959  11.886  18.838  0.00  0.00    +0.000 A 
ATOM     31  C   UNL     1      -1.909  11.635  17.939  0.00  0.00    +0.000 A 
ATOM     32  C   UNL     1      -2.156  11.147  16.651  0.00  0.00    +0.000 A 
ATOM     33  C   UNL     1      -3.463  10.894  16.245  0.00  0.00    +0.000 A 
ATOM     34 CL   UNL     1      -3.763  10.308  14.655  0.00  0.00    +0.000 Cl
ATOM     35  C   UNL     1      -4.522  11.112  17.124  0.00  0.00    +0.000 A 
ATOM     36  C   UNL     1      -4.272  11.602  18.417  0.00  0.00    +0.000 A 
ENDBRANCH  29  30
ENDBRANCH  11  29
TORSDOF 6
ENDMDL
MODEL 5
REMARK VINA RESULT:      -8.9      0.923      1.785
REMARK  Name = 
REMARK  6 active torsions:
REMARK  status: ('A' for Active; 'I' for Inactive)
REMARK    1  A    between atoms: C_2  and  C_25
REMARK    2  A    between atoms: N_3  and  C_4
REMARK    3  A    between atoms: C_4  and  C_5
REMARK    4  A    between atoms: C_5  and  N_6
REMARK    5  A    between atoms: N_16  and  C_17
REMARK    6  A    between atoms: C_17  and  C_18
REMARK                            x       y       z     vdW  Elec       q    Type
REMARK                         _______ _______ _______ _____ _____    ______ ____
ROOT
ATOM      1  N   UNL     1       2.742   6.755  19.160  0.00  0.00    +0.000 NA
ATOM      2  C   UNL     1       3.263   5.753  20.090  0.00  0.00    +0.000 C 
ATOM      3  C   UNL     1       2.596   4.386  20.068  0.00  0.00    +0.000 C 
ATOM      4  C   UNL     1       2.365   3.839  18.658  0.00  0.00    +0.000 C 
ATOM      5  C   UNL     1       1.614   4.912  17.851  0.00  0.00    +0.000 C 
ATOM      6  C   UNL     1       2.297   6.268  17.858  0.00  0.00    +0.000 C 
ATOM      7  C   UNL     1       1.381   2.663  18.790  0.00  0.00    +0.000 C 
ATOM      8  O   UNL     1       0.235   2.678  19.207  0.00  0.00    +0.000 OA
ATOM      9  N   UNL     1       2.038   1.537  18.374  0.00  0.00    +0.000 N 
ATOM     10  C   UNL     1       3.423   1.770  18.213  0.00  0.00    +0.000 C 
ATOM     11  N   UNL     1       3.512   3.200  17.930  0.00  0.00    +0.000 NA
ATOM     12  H   UNL     1       1.609   0.631  18.486  0.00  0.00    +0.000 HD
ENDROOT
BRANCH   1  13
ATOM     13  C   UNL     1       1.860   7.739  19.786  0.00  0.00    +0.000 C 
BRANCH  13  14
ATOM     14  C   UNL     1       1.630   8.923  18.829  0.00  0.00    +0.000 C 
BRANCH  14  17
ATOM     15  O   UNL     1      -0.606   9.691  17.334  0.00  0.00    +0.000 OA
ATOM     16  C   UNL     1      -0.480  10.106  18.479  0.00  0.00    +0.000 C 
ATOM     17  N   UNL     1       0.592   9.806  19.292  0.00  0.00    +0.000 N 
ATOM     18  H   UNL     1       0.768  10.353  20.123  0.00  0.00    +0.000 HD
BRANCH  16  19
ATOM     19  C   UNL     1      -1.496  11.004  19.075  0.00  0.00    +0.000 A 
ATOM     20  C   UNL     1      -1.147  11.757  20.195  0.00  0.00    +0.000 A 
ATOM     21  C   UNL     1      -2.090  12.612  20.764  0.00  0.00    +0.000 A 
ATOM     22  C   UNL     1      -3.378  12.718  20.221  0.00  0.00    +0.000 A 
ATOM     23  C   UNL     1      -4.336  13.576  20.779  0.00  0.00    +0.000 A 
ATOM     24  C   UNL     1      -5.612  13.677  20.220  0.00  0.00    +0.000 A 
ATOM     25  C   UNL     1      -5.948  12.927  19.095  0.00  0.00    +0.000 A 
ATOM     26  C   UNL     1      -5.007  12.072  18.525  0.00  0.00    +0.000 A 
ATOM     27  C   UNL     1      -3.724  11.964  19.079  0.00  0.00    +0.000 A 
ATOM     28  C   UNL     1      -2.769  11.117  18.510  0.00  0.00    +0.000 A 
ENDBRANCH  16  19
ENDBRANCH  14  17
ENDBRANCH  13  14
ENDBRANCH   1  13
BRANCH  11  29
ATOM     29  C   UNL     1       4.888   3.674  18.144  0.00  0.00    +0.000 C 
BRANCH  29  30
ATOM     30  C   UNL     1       5.588   4.084  16.842  0.00  0.00    +0.000 A 
ATOM     31  C   UNL     1       6.918   4.535  16.888  0.00  0.00    +0.000 A 
ATOM     32  C   UNL     1       7.595   4.916  15.725  0.00  0.00    +0.000 A 
ATOM     33  C   UNL     1       6.953   4.844  14.493  0.00  0.00    +0.000 A 
ATOM     34 CL   UNL     1       7.786   5.328  13.066  0.00  0.00    +0.000 Cl
ATOM     35  C   UNL     1       5.642   4.378  14.415  0.00  0.00    +0.000 A 
ATOM     36  C   UNL     1       4.962   3.995  15.584  0.00  0.00    +0.000 A 
ENDBRANCH  29  30
ENDBRANCH  11  29
TORSDOF 6
ENDMDL
MODEL 6
REMARK VINA RESULT:      -8.9      3.103     10.385
REMARK  Name = 
REMARK  6 active torsions:
REMARK  status: ('A' for Active; 'I' for Inactive)
REMARK    1  A    between atoms: C_2  and  C_25
REMARK    2  A    between atoms: N_3  and  C_4
REMARK    3  A    between atoms: C_4  and  C_5
REMARK    4  A    between atoms: C_5  and  N_6
REMARK    5  A    between atoms: N_16  and  C_17
REMARK    6  A    between atoms: C_17  and  C_18
REMARK                            x       y       z     vdW  Elec       q    Type
REMARK                         _______ _______ _______ _____ _____    ______ ____
ROOT
ATOM      1  N   UNL     1       0.392   9.337  20.802  0.00  0.00    +0.000 NA
ATOM      2  C   UNL     1      -0.477  10.031  21.750  0.00  0.00    +0.000 C 
ATOM      3  C   UNL     1      -0.211  11.514  21.965  0.00  0.00    +0.000 C 
ATOM      4  C   UNL     1       0.008  12.292  20.665  0.00  0.00    +0.000 C 
ATOM      5  C   UNL     1       1.104  11.571  19.861  0.00  0.00    +0.000 C 
ATOM      6  C   UNL     1       0.822  10.097  19.631  0.00  0.00    +0.000 C 
ATOM      7  C   UNL     1       0.613  13.652  21.055  0.00  0.00    +0.000 C 
ATOM      8  O   UNL     1       1.668  13.876  21.622  0.00  0.00    +0.000 OA
ATOM      9  N   UNL     1      -0.280  14.616  20.672  0.00  0.00    +0.000 N 
ATOM     10  C   UNL     1      -1.523  14.057  20.297  0.00  0.00    +0.000 C 
ATOM     11  N   UNL     1      -1.187  12.706  19.857  0.00  0.00    +0.000 NA
ATOM     12  H   UNL     1      -0.129  15.578  20.937  0.00  0.00    +0.000 HD
ENDROOT
BRANCH   1  13
ATOM     13  C   UNL     1       1.440   8.537  21.436  0.00  0.00    +0.000 C 
BRANCH  13  14
ATOM     14  C   UNL     1       1.391   7.092  20.909  0.00  0.00    +0.000 C 
BRANCH  14  17
ATOM     15  O   UNL     1       2.335   4.515  20.371  0.00  0.00    +0.000 OA
ATOM     16  C   UNL     1       2.879   5.475  19.842  0.00  0.00    +0.000 C 
ATOM     17  N   UNL     1       2.507   6.784  20.055  0.00  0.00    +0.000 N 
ATOM     18  H   UNL     1       3.125   7.538  19.790  0.00  0.00    +0.000 HD
BRANCH  16  19
ATOM     19  C   UNL     1       4.026   5.283  18.923  0.00  0.00    +0.000 A 
ATOM     20  C   UNL     1       5.317   5.349  19.444  0.00  0.00    +0.000 A 
ATOM     21  C   UNL     1       6.407   5.164  18.595  0.00  0.00    +0.000 A 
ATOM     22  C   UNL     1       6.214   4.914  17.229  0.00  0.00    +0.000 A 
ATOM     23  C   UNL     1       7.299   4.722  16.363  0.00  0.00    +0.000 A 
ATOM     24  C   UNL     1       7.089   4.464  15.006  0.00  0.00    +0.000 A 
ATOM     25  C   UNL     1       5.794   4.392  14.497  0.00  0.00    +0.000 A 
ATOM     26  C   UNL     1       4.704   4.576  15.344  0.00  0.00    +0.000 A 
ATOM     27  C   UNL     1       4.905   4.834  16.706  0.00  0.00    +0.000 A 
ATOM     28  C   UNL     1       3.818   5.012  17.568  0.00  0.00    +0.000 A 
ENDBRANCH  16  19
ENDBRANCH  14  17
ENDBRANCH  13  14
ENDBRANCH   1  13
BRANCH  11  29
ATOM     29  C   UNL     1      -2.395  11.868  19.827  0.00  0.00    +0.000 C 
BRANCH  29  30
ATOM     30  C   UNL     1      -2.776  11.417  18.411  0.00  0.00    +0.000 A 
ATOM     31  C   UNL     1      -1.908  10.570  17.702  0.00  0.00    +0.000 A 
ATOM     32  C   UNL     1      -2.216  10.133  16.409  0.00  0.00    +0.000 A 
ATOM     33  C   UNL     1      -3.405  10.532  15.807  0.00  0.00    +0.000 A 
ATOM     34 CL   UNL     1      -3.773  10.004  14.211  0.00  0.00    +0.000 Cl
ATOM     35  C   UNL     1      -4.295  11.354  16.496  0.00  0.00    +0.000 A 
ATOM     36  C   UNL     1      -3.985  11.792  17.795  0.00  0.00    +0.000 A 
ENDBRANCH  29  30
ENDBRANCH  11  29
TORSDOF 6
ENDMDL
MODEL 7
REMARK VINA RESULT:      -8.9      2.820      4.018
REMARK  Name = 
REMARK  6 active torsions:
REMARK  status: ('A' for Active; 'I' for Inactive)
REMARK    1  A    between atoms: C_2  and  C_25
REMARK    2  A    between atoms: N_3  and  C_4
REMARK    3  A    between atoms: C_4  and  C_5
REMARK    4  A    between atoms: C_5  and  N_6
REMARK    5  A    between atoms: N_16  and  C_17
REMARK    6  A    between atoms: C_17  and  C_18
REMARK                            x       y       z     vdW  Elec       q    Type
REMARK                         _______ _______ _______ _____ _____    ______ ____
ROOT
ATOM      1  N   UNL     1       2.933   6.810  18.803  0.00  0.00    +0.000 NA
ATOM      2  C   UNL     1       3.386   5.961  19.904  0.00  0.00    +0.000 C 
ATOM      3  C   UNL     1       2.686   4.621  20.070  0.00  0.00    +0.000 C 
ATOM      4  C   UNL     1       2.502   3.859  18.755  0.00  0.00    +0.000 C 
ATOM      5  C   UNL     1       1.816   4.802  17.753  0.00  0.00    +0.000 C 
ATOM      6  C   UNL     1       2.533   6.129  17.575  0.00  0.00    +0.000 C 
ATOM      7  C   UNL     1       1.484   2.738  19.027  0.00  0.00    +0.000 C 
ATOM      8  O   UNL     1       0.322   2.841  19.381  0.00  0.00    +0.000 OA
ATOM      9  N   UNL     1       2.129   1.548  18.827  0.00  0.00    +0.000 N 
ATOM     10  C   UNL     1       3.525   1.726  18.697  0.00  0.00    +0.000 C 
ATOM     11  N   UNL     1       3.663   3.091  18.194  0.00  0.00    +0.000 NA
ATOM     12  H   UNL     1       1.672   0.680  19.062  0.00  0.00    +0.000 HD
ENDROOT
BRANCH   1  13
ATOM     13  C   UNL     1       2.050   7.899  19.221  0.00  0.00    +0.000 C 
BRANCH  13  14
ATOM     14  C   UNL     1       1.446   8.590  17.985  0.00  0.00    +0.000 C 
BRANCH  14  17
ATOM     15  O   UNL     1      -0.205  10.413  19.316  0.00  0.00    +0.000 OA
ATOM     16  C   UNL     1       0.776  10.825  18.711  0.00  0.00    +0.000 C 
ATOM     17  N   UNL     1       1.640  10.015  18.007  0.00  0.00    +0.000 N 
ATOM     18  H   UNL     1       2.283  10.418  17.339  0.00  0.00    +0.000 HD
BRANCH  16  19
ATOM     19  C   UNL     1       1.094  12.271  18.680  0.00  0.00    +0.000 A 
ATOM     20  C   UNL     1       0.069  13.186  18.915  0.00  0.00    +0.000 A 
ATOM     21  C   UNL     1       0.352  14.551  18.896  0.00  0.00    +0.000 A 
ATOM     22  C   UNL     1       1.654  15.006  18.644  0.00  0.00    +0.000 A 
ATOM     23  C   UNL     1       1.956  16.375  18.626  0.00  0.00    +0.000 A 
ATOM     24  C   UNL     1       3.261  16.812  18.383  0.00  0.00    +0.000 A 
ATOM     25  C   UNL     1       4.280  15.890  18.158  0.00  0.00    +0.000 A 
ATOM     26  C   UNL     1       3.999  14.525  18.177  0.00  0.00    +0.000 A 
ATOM     27  C   UNL     1       2.694  14.078  18.420  0.00  0.00    +0.000 A 
ATOM     28  C   UNL     1       2.401  12.711  18.450  0.00  0.00    +0.000 A 
ENDBRANCH  16  19
ENDBRANCH  14  17
ENDBRANCH  13  14
ENDBRANCH   1  13
BRANCH  11  29
ATOM     29  C   UNL     1       5.040   3.567  18.395  0.00  0.00    +0.000 C 
BRANCH  29  30
ATOM     30  C   UNL     1       5.715   4.010  17.090  0.00  0.00    +0.000 A 
ATOM     31  C   UNL     1       5.007   3.911  15.881  0.00  0.00    +0.000 A 
ATOM     32  C   UNL     1       5.583   4.306  14.668  0.00  0.00    +0.000 A 
ATOM     33  C   UNL     1       6.878   4.814  14.649  0.00  0.00    +0.000 A 
ATOM     34 CL   UNL     1       7.587   5.285  13.153  0.00  0.00    +0.000 Cl
ATOM     35  C   UNL     1       7.595   4.945  15.836  0.00  0.00    +0.000 A 
ATOM     36  C   UNL     1       7.015   4.549  17.054  0.00  0.00    +0.000 A 
ENDBRANCH  29  30
ENDBRANCH  11  29
TORSDOF 6
ENDMDL
MODEL 8
REMARK VINA RESULT:      -8.9      2.258      2.992
REMARK  Name = 
REMARK  6 active torsions:
REMARK  status: ('A' for Active; 'I' for Inactive)
REMARK    1  A    between atoms: C_2  and  C_25
REMARK    2  A    between atoms: N_3  and  C_4
REMARK    3  A    between atoms: C_4  and  C_5
REMARK    4  A    between atoms: C_5  and  N_6
REMARK    5  A    between atoms: N_16  and  C_17
REMARK    6  A    between atoms: C_17  and  C_18
REMARK                            x       y       z     vdW  Elec       q    Type
REMARK                         _______ _______ _______ _____ _____    ______ ____
ROOT
ATOM      1  N   UNL     1       2.358   6.366  20.294  0.00  0.00    +0.000 NA
ATOM      2  C   UNL     1       2.575   5.114  21.018  0.00  0.00    +0.000 C 
ATOM      3  C   UNL     1       2.039   3.847  20.368  0.00  0.00    +0.000 C 
ATOM      4  C   UNL     1       2.353   3.744  18.874  0.00  0.00    +0.000 C 
ATOM      5  C   UNL     1       1.875   5.040  18.199  0.00  0.00    +0.000 C 
ATOM      6  C   UNL     1       2.431   6.301  18.838  0.00  0.00    +0.000 C 
ATOM      7  C   UNL     1       1.457   2.630  18.305  0.00  0.00    +0.000 C 
ATOM      8  O   UNL     1       0.239   2.581  18.274  0.00  0.00    +0.000 OA
ATOM      9  N   UNL     1       2.283   1.642  17.843  0.00  0.00    +0.000 N 
ATOM     10  C   UNL     1       3.619   1.842  18.258  0.00  0.00    +0.000 C 
ATOM     11  N   UNL     1       3.719   3.287  18.450  0.00  0.00    +0.000 NA
ATOM     12  H   UNL     1       1.895   0.765  17.530  0.00  0.00    +0.000 HD
ENDROOT
BRANCH   1  13
ATOM     13  C   UNL     1       1.256   7.171  20.821  0.00  0.00    +0.000 C 
BRANCH  13  14
ATOM     14  C   UNL     1       1.352   8.611  20.286  0.00  0.00    +0.000 C 
BRANCH  14  17
ATOM     15  O   UNL     1       1.100  11.360  19.838  0.00  0.00    +0.000 OA
ATOM     16  C   UNL     1       0.172  10.749  20.353  0.00  0.00    +0.000 C 
ATOM     17  N   UNL     1       0.201   9.401  20.635  0.00  0.00    +0.000 N 
ATOM     18  H   UNL     1      -0.479   8.999  21.265  0.00  0.00    +0.000 HD
BRANCH  16  19
ATOM     19  C   UNL     1      -1.075  11.450  20.736  0.00  0.00    +0.000 A 
ATOM     20  C   UNL     1      -1.855  12.023  19.732  0.00  0.00    +0.000 A 
ATOM     21  C   UNL     1      -3.035  12.681  20.074  0.00  0.00    +0.000 A 
ATOM     22  C   UNL     1      -3.440  12.770  21.413  0.00  0.00    +0.000 A 
ATOM     23  C   UNL     1      -4.626  13.425  21.774  0.00  0.00    +0.000 A 
ATOM     24  C   UNL     1      -5.021  13.497  23.112  0.00  0.00    +0.000 A 
ATOM     25  C   UNL     1      -4.239  12.914  24.107  0.00  0.00    +0.000 A 
ATOM     26  C   UNL     1      -3.059  12.256  23.767  0.00  0.00    +0.000 A 
ATOM     27  C   UNL     1      -2.656  12.178  22.427  0.00  0.00    +0.000 A 
ATOM     28  C   UNL     1      -1.479  11.512  22.072  0.00  0.00    +0.000 A 
ENDBRANCH  16  19
ENDBRANCH  14  17
ENDBRANCH  13  14
ENDBRANCH   1  13
BRANCH  11  29
ATOM     29  C   UNL     1       4.900   3.609  19.264  0.00  0.00    +0.000 C 
BRANCH  29  30
ATOM     30  C   UNL     1       5.696   4.801  18.717  0.00  0.00    +0.000 A 
ATOM     31  C   UNL     1       6.856   5.221  19.389  0.00  0.00    +0.000 A 
ATOM     32  C   UNL     1       7.613   6.301  18.924  0.00  0.00    +0.000 A 
ATOM     33  C   UNL     1       7.224   6.976  17.771  0.00  0.00    +0.000 A 
ATOM     34 CL   UNL     1       8.150   8.314  17.211  0.00  0.00    +0.000 Cl
ATOM     35  C   UNL     1       6.090   6.567  17.072  0.00  0.00    +0.000 A 
ATOM     36  C   UNL     1       5.331   5.481  17.539  0.00  0.00    +0.000 A 
ENDBRANCH  29  30
ENDBRANCH  11  29
TORSDOF 6
ENDMDL
MODEL 9
REMARK VINA RESULT:      -8.8      3.312     10.258
REMARK  Name = 
REMARK  6 active torsions:
REMARK  status: ('A' for Active; 'I' for Inactive)
REMARK    1  A    between atoms: C_2  and  C_25
REMARK    2  A    between atoms: N_3  and  C_4
REMARK    3  A    between atoms: C_4  and  C_5
REMARK    4  A    between atoms: C_5  and  N_6
REMARK    5  A    between atoms: N_16  and  C_17
REMARK    6  A    between atoms: C_17  and  C_18
REMARK                            x       y       z     vdW  Elec       q    Type
REMARK                         _______ _______ _______ _____ _____    ______ ____
ROOT
ATOM      1  N   UNL     1       0.245   9.728  21.018  0.00  0.00    +0.000 NA
ATOM      2  C   UNL     1      -0.636  10.368  21.993  0.00  0.00    +0.000 C 
ATOM      3  C   UNL     1      -0.396  11.845  22.267  0.00  0.00    +0.000 C 
ATOM      4  C   UNL     1      -0.191  12.678  21.000  0.00  0.00    +0.000 C 
ATOM      5  C   UNL     1       0.918  12.010  20.169  0.00  0.00    +0.000 C 
ATOM      6  C   UNL     1       0.661  10.542  19.879  0.00  0.00    +0.000 C 
ATOM      7  C   UNL     1       0.390  14.032  21.445  0.00  0.00    +0.000 C 
ATOM      8  O   UNL     1       1.442  14.252  22.021  0.00  0.00    +0.000 OA
ATOM      9  N   UNL     1      -0.519  14.995  21.102  0.00  0.00    +0.000 N 
ATOM     10  C   UNL     1      -1.753  14.430  20.704  0.00  0.00    +0.000 C 
ATOM     11  N   UNL     1      -1.393  13.104  20.210  0.00  0.00    +0.000 NA
ATOM     12  H   UNL     1      -0.385  15.948  21.405  0.00  0.00    +0.000 HD
ENDROOT
BRANCH   1  13
ATOM     13  C   UNL     1       1.307   8.922  21.620  0.00  0.00    +0.000 C 
BRANCH  13  14
ATOM     14  C   UNL     1       1.037   7.426  21.372  0.00  0.00    +0.000 C 
BRANCH  14  17
ATOM     15  O   UNL     1       1.258   4.705  20.764  0.00  0.00    +0.000 OA
ATOM     16  C   UNL     1       1.925   5.516  20.134  0.00  0.00    +0.000 C 
ATOM     17  N   UNL     1       1.906   6.874  20.367  0.00  0.00    +0.000 N 
ATOM     18  H   UNL     1       2.636   7.463  19.993  0.00  0.00    +0.000 HD
BRANCH  16  19
ATOM     19  C   UNL     1       2.840   5.069  19.058  0.00  0.00    +0.000 A 
ATOM     20  C   UNL     1       3.090   3.705  18.917  0.00  0.00    +0.000 A 
ATOM     21  C   UNL     1       3.944   3.267  17.906  0.00  0.00    +0.000 A 
ATOM     22  C   UNL     1       4.548   4.184  17.035  0.00  0.00    +0.000 A 
ATOM     23  C   UNL     1       5.406   3.760  16.011  0.00  0.00    +0.000 A 
ATOM     24  C   UNL     1       5.993   4.686  15.145  0.00  0.00    +0.000 A 
ATOM     25  C   UNL     1       5.730   6.047  15.289  0.00  0.00    +0.000 A 
ATOM     26  C   UNL     1       4.877   6.486  16.299  0.00  0.00    +0.000 A 
ATOM     27  C   UNL     1       4.283   5.564  17.171  0.00  0.00    +0.000 A 
ATOM     28  C   UNL     1       3.419   5.993  18.182  0.00  0.00    +0.000 A 
ENDBRANCH  16  19
ENDBRANCH  14  17
ENDBRANCH  13  14
ENDBRANCH   1  13
BRANCH  11  29
ATOM     29  C   UNL     1      -2.586  12.247  20.146  0.00  0.00    +0.000 C 
BRANCH  29  30
ATOM     30  C   UNL     1      -2.888  11.746  18.727  0.00  0.00    +0.000 A 
ATOM     31  C   UNL     1      -4.223  11.570  18.329  0.00  0.00    +0.000 A 
ATOM     32  C   UNL     1      -4.544  11.117  17.044  0.00  0.00    +0.000 A 
ATOM     33  C   UNL     1      -3.529  10.841  16.133  0.00  0.00    +0.000 A 
ATOM     34 CL   UNL     1      -3.928  10.271  14.559  0.00  0.00    +0.000 Cl
ATOM     35  C   UNL     1      -2.196  11.029  16.494  0.00  0.00    +0.000 A 
ATOM     36  C   UNL     1      -1.876  11.485  17.784  0.00  0.00    +0.000 A 
ENDBRANCH  29  30
ENDBRANCH  11  29
TORSDOF 6
ENDMDL
