MODEL 1
REMARK VINA RESULT:      -7.5      0.000      0.000
REMARK  Name = 
REMARK  5 active torsions:
REMARK  status: ('A' for Active; 'I' for Inactive)
REMARK    1  A    between atoms: C_1  and  C_2
REMARK    2  A    between atoms: N_4  and  N_5
REMARK    3  A    between atoms: C_6  and  C_8
REMARK    4  A    between atoms: C_8  and  C_9
REMARK    5  A    between atoms: C_9  and  N_10
REMARK                            x       y       z     vdW  Elec       q    Type
REMARK                         _______ _______ _______ _____ _____    ______ ____
ROOT
ATOM      1  C   UNL     1       7.306   6.049  18.510  0.00  0.00    +0.000 C 
ENDROOT
BRANCH   1   3
ATOM      2  N   UNL     1       7.086   5.870  16.105  0.00  0.00    +0.000 N 
ATOM      3  C   UNL     1       7.558   5.261  17.246  0.00  0.00    +0.000 C 
ATOM      4  O   UNL     1       8.127   4.169  17.228  0.00  0.00    +0.000 OA
ATOM      5  H   UNL     1       6.621   6.779  16.083  0.00  0.00    +0.000 HD
BRANCH   2   9
ATOM      6  C   UNL     1       6.586   3.859  13.014  0.00  0.00    +0.000 C 
ATOM      7  C   UNL     1       6.262   4.490  14.339  0.00  0.00    +0.000 C 
ATOM      8  O   UNL     1       5.177   4.349  14.902  0.00  0.00    +0.000 OA
ATOM      9  N   UNL     1       7.286   5.241  14.871  0.00  0.00    +0.000 N 
ATOM     10  H   UNL     1       8.201   5.351  14.435  0.00  0.00    +0.000 HD
ENDBRANCH   2   9
ENDBRANCH   1   3
BRANCH   1  11
ATOM     11  C   UNL     1       6.265   5.353  19.378  0.00  0.00    +0.000 C 
BRANCH  11  12
ATOM     12  N   UNL     1       4.983   5.227  18.717  0.00  0.00    +0.000 N 
ATOM     13  N   UNL     1       4.430   6.295  18.109  0.00  0.00    +0.000 NA
ATOM     14  N   UNL     1       3.265   5.909  17.603  0.00  0.00    +0.000 NA
ATOM     15  C   UNL     1       3.082   4.589  17.913  0.00  0.00    +0.000 A 
ATOM     16  C   UNL     1       2.020   3.719  17.630  0.00  0.00    +0.000 A 
ATOM     17  C   UNL     1       2.094   2.398  18.093  0.00  0.00    +0.000 A 
ATOM     18  C   UNL     1       3.208   1.952  18.809  0.00  0.00    +0.000 A 
ATOM     19  C   UNL     1       4.282   2.804  19.088  0.00  0.00    +0.000 A 
ATOM     20  C   UNL     1       4.179   4.122  18.630  0.00  0.00    +0.000 A 
ENDBRANCH  11  12
ENDBRANCH   1  11
TORSDOF 4
ENDMDL
MODEL 2
REMARK VINA RESULT:      -7.3      1.763      2.336
REMARK  Name = 
REMARK  5 active torsions:
REMARK  status: ('A' for Active; 'I' for Inactive)
REMARK    1  A    between atoms: C_1  and  C_2
REMARK    2  A    between atoms: N_4  and  N_5
REMARK    3  A    between atoms: C_6  and  C_8
REMARK    4  A    between atoms: C_8  and  C_9
REMARK    5  A    between atoms: C_9  and  N_10
REMARK                            x       y       z     vdW  Elec       q    Type
REMARK                         _______ _______ _______ _____ _____    ______ ____
ROOT
ATOM      1  C   UNL     1       6.490   5.471  18.453  0.00  0.00    +0.000 C 
ENDROOT
BRANCH   1   3
ATOM      2  N   UNL     1       6.724   5.719  16.055  0.00  0.00    +0.000 N 
ATOM      3  C   UNL     1       7.170   5.048  17.173  0.00  0.00    +0.000 C 
ATOM      4  O   UNL     1       8.040   4.178  17.121  0.00  0.00    +0.000 OA
ATOM      5  H   UNL     1       6.013   6.452  16.064  0.00  0.00    +0.000 HD
BRANCH   2   9
ATOM      6  C   UNL     1       7.336   4.348  12.649  0.00  0.00    +0.000 C 
ATOM      7  C   UNL     1       6.622   4.598  13.949  0.00  0.00    +0.000 C 
ATOM      8  O   UNL     1       5.527   4.107  14.218  0.00  0.00    +0.000 OA
ATOM      9  N   UNL     1       7.302   5.425  14.815  0.00  0.00    +0.000 N 
ATOM     10  H   UNL     1       8.222   5.822  14.624  0.00  0.00    +0.000 HD
ENDBRANCH   2   9
ENDBRANCH   1   3
BRANCH   1  11
ATOM     11  C   UNL     1       4.980   5.294  18.344  0.00  0.00    +0.000 C 
BRANCH  11  12
ATOM     12  N   UNL     1       4.483   4.223  19.181  0.00  0.00    +0.000 N 
ATOM     13  N   UNL     1       5.295   3.202  19.524  0.00  0.00    +0.000 NA
ATOM     14  N   UNL     1       4.590   2.364  20.273  0.00  0.00    +0.000 NA
ATOM     15  C   UNL     1       3.319   2.859  20.387  0.00  0.00    +0.000 A 
ATOM     16  C   UNL     1       2.193   2.353  21.051  0.00  0.00    +0.000 A 
ATOM     17  C   UNL     1       0.994   3.077  20.984  0.00  0.00    +0.000 A 
ATOM     18  C   UNL     1       0.924   4.283  20.284  0.00  0.00    +0.000 A 
ATOM     19  C   UNL     1       2.042   4.808  19.626  0.00  0.00    +0.000 A 
ATOM     20  C   UNL     1       3.223   4.062  19.693  0.00  0.00    +0.000 A 
ENDBRANCH  11  12
ENDBRANCH   1  11
TORSDOF 4
ENDMDL
MODEL 3
REMARK VINA RESULT:      -7.2      2.202      3.709
REMARK  Name = 
REMARK  5 active torsions:
REMARK  status: ('A' for Active; 'I' for Inactive)
REMARK    1  A    between atoms: C_1  and  C_2
REMARK    2  A    between atoms: N_4  and  N_5
REMARK    3  A    between atoms: C_6  and  C_8
REMARK    4  A    between atoms: C_8  and  C_9
REMARK    5  A    between atoms: C_9  and  N_10
REMARK                            x       y       z     vdW  Elec       q    Type
REMARK                         _______ _______ _______ _____ _____    ______ ____
ROOT
ATOM      1  C   UNL     1       5.269   4.018  16.202  0.00  0.00    +0.000 C 
ENDROOT
BRANCH   1   3
ATOM      2  N   UNL     1       6.022   6.104  17.175  0.00  0.00    +0.000 N 
ATOM      3  C   UNL     1       5.911   5.372  16.014  0.00  0.00    +0.000 C 
ATOM      4  O   UNL     1       6.298   5.795  14.924  0.00  0.00    +0.000 OA
ATOM      5  H   UNL     1       5.723   5.780  18.096  0.00  0.00    +0.000 HD
BRANCH   2   9
ATOM      6  C   UNL     1       8.268   9.003  17.809  0.00  0.00    +0.000 C 
ATOM      7  C   UNL     1       7.701   7.618  17.946  0.00  0.00    +0.000 C 
ATOM      8  O   UNL     1       8.156   6.780  18.723  0.00  0.00    +0.000 OA
ATOM      9  N   UNL     1       6.625   7.366  17.123  0.00  0.00    +0.000 N 
ATOM     10  H   UNL     1       6.215   8.053  16.491  0.00  0.00    +0.000 HD
ENDBRANCH   2   9
ENDBRANCH   1   3
BRANCH   1  11
ATOM     11  C   UNL     1       3.919   4.155  16.895  0.00  0.00    +0.000 C 
BRANCH  11  12
ATOM     12  N   UNL     1       3.940   3.669  18.258  0.00  0.00    +0.000 N 
ATOM     13  N   UNL     1       5.109   3.313  18.829  0.00  0.00    +0.000 NA
ATOM     14  N   UNL     1       4.843   2.897  20.061  0.00  0.00    +0.000 NA
ATOM     15  C   UNL     1       3.490   2.978  20.255  0.00  0.00    +0.000 A 
ATOM     16  C   UNL     1       2.702   2.648  21.366  0.00  0.00    +0.000 A 
ATOM     17  C   UNL     1       1.314   2.823  21.278  0.00  0.00    +0.000 A 
ATOM     18  C   UNL     1       0.728   3.329  20.115  0.00  0.00    +0.000 A 
ATOM     19  C   UNL     1       1.503   3.675  19.003  0.00  0.00    +0.000 A 
ATOM     20  C   UNL     1       2.883   3.479  19.107  0.00  0.00    +0.000 A 
ENDBRANCH  11  12
ENDBRANCH   1  11
TORSDOF 4
ENDMDL
MODEL 4
REMARK VINA RESULT:      -7.2      2.249      3.581
REMARK  Name = 
REMARK  5 active torsions:
REMARK  status: ('A' for Active; 'I' for Inactive)
REMARK    1  A    between atoms: C_1  and  C_2
REMARK    2  A    between atoms: N_4  and  N_5
REMARK    3  A    between atoms: C_6  and  C_8
REMARK    4  A    between atoms: C_8  and  C_9
REMARK    5  A    between atoms: C_9  and  N_10
REMARK                            x       y       z     vdW  Elec       q    Type
REMARK                         _______ _______ _______ _____ _____    ______ ____
ROOT
ATOM      1  C   UNL     1       4.889   4.381  15.924  0.00  0.00    +0.000 C 
ENDROOT
BRANCH   1   3
ATOM      2  N   UNL     1       6.292   6.065  16.953  0.00  0.00    +0.000 N 
ATOM      3  C   UNL     1       5.411   5.798  15.929  0.00  0.00    +0.000 C 
ATOM      4  O   UNL     1       5.080   6.647  15.100  0.00  0.00    +0.000 OA
ATOM      5  H   UNL     1       6.597   5.383  17.649  0.00  0.00    +0.000 HD
BRANCH   2   9
ATOM      6  C   UNL     1       8.337   8.985  18.024  0.00  0.00    +0.000 C 
ATOM      7  C   UNL     1       7.797   7.582  18.020  0.00  0.00    +0.000 C 
ATOM      8  O   UNL     1       8.160   6.721  18.821  0.00  0.00    +0.000 OA
ATOM      9  N   UNL     1       6.859   7.342  17.041  0.00  0.00    +0.000 N 
ATOM     10  H   UNL     1       6.524   8.046  16.383  0.00  0.00    +0.000 HD
ENDBRANCH   2   9
ENDBRANCH   1   3
BRANCH   1  11
ATOM     11  C   UNL     1       4.782   3.843  17.346  0.00  0.00    +0.000 C 
BRANCH  11  12
ATOM     12  N   UNL     1       3.410   3.686  17.781  0.00  0.00    +0.000 N 
ATOM     13  N   UNL     1       2.400   3.900  16.914  0.00  0.00    +0.000 NA
ATOM     14  N   UNL     1       1.262   3.703  17.570  0.00  0.00    +0.000 NA
ATOM     15  C   UNL     1       1.567   3.377  18.864  0.00  0.00    +0.000 A 
ATOM     16  C   UNL     1       0.737   3.092  19.957  0.00  0.00    +0.000 A 
ATOM     17  C   UNL     1       1.333   2.802  21.192  0.00  0.00    +0.000 A 
ATOM     18  C   UNL     1       2.723   2.783  21.330  0.00  0.00    +0.000 A 
ATOM     19  C   UNL     1       3.565   3.054  20.245  0.00  0.00    +0.000 A 
ATOM     20  C   UNL     1       2.948   3.355  19.026  0.00  0.00    +0.000 A 
ENDBRANCH  11  12
ENDBRANCH   1  11
TORSDOF 4
ENDMDL
MODEL 5
REMARK VINA RESULT:      -7.2      1.740      2.494
REMARK  Name = 
REMARK  5 active torsions:
REMARK  status: ('A' for Active; 'I' for Inactive)
REMARK    1  A    between atoms: C_1  and  C_2
REMARK    2  A    between atoms: N_4  and  N_5
REMARK    3  A    between atoms: C_6  and  C_8
REMARK    4  A    between atoms: C_8  and  C_9
REMARK    5  A    between atoms: C_9  and  N_10
REMARK                            x       y       z     vdW  Elec       q    Type
REMARK                         _______ _______ _______ _____ _____    ______ ____
ROOT
ATOM      1  C   UNL     1       5.228   6.037  15.987  0.00  0.00    +0.000 C 
ENDROOT
BRANCH   1   3
ATOM      2  N   UNL     1       5.520   4.369  14.256  0.00  0.00    +0.000 N 
ATOM      3  C   UNL     1       6.149   5.105  15.235  0.00  0.00    +0.000 C 
ATOM      4  O   UNL     1       7.352   5.000  15.474  0.00  0.00    +0.000 OA
ATOM      5  H   UNL     1       4.528   4.440  14.024  0.00  0.00    +0.000 HD
BRANCH   2   9
ATOM      6  C   UNL     1       6.689   2.153  11.504  0.00  0.00    +0.000 C 
ATOM      7  C   UNL     1       5.792   3.099  12.252  0.00  0.00    +0.000 C 
ATOM      8  O   UNL     1       4.713   3.493  11.808  0.00  0.00    +0.000 OA
ATOM      9  N   UNL     1       6.281   3.489  13.478  0.00  0.00    +0.000 N 
ATOM     10  H   UNL     1       7.159   3.156  13.876  0.00  0.00    +0.000 HD
ENDBRANCH   2   9
ENDBRANCH   1   3
BRANCH   1  11
ATOM     11  C   UNL     1       5.602   6.085  17.464  0.00  0.00    +0.000 C 
BRANCH  11  12
ATOM     12  N   UNL     1       5.094   4.950  18.205  0.00  0.00    +0.000 N 
ATOM     13  N   UNL     1       5.937   4.190  18.933  0.00  0.00    +0.000 NA
ATOM     14  N   UNL     1       5.220   3.222  19.492  0.00  0.00    +0.000 NA
ATOM     15  C   UNL     1       3.919   3.371  19.094  0.00  0.00    +0.000 A 
ATOM     16  C   UNL     1       2.778   2.610  19.386  0.00  0.00    +0.000 A 
ATOM     17  C   UNL     1       1.555   2.993  18.817  0.00  0.00    +0.000 A 
ATOM     18  C   UNL     1       1.469   4.115  17.990  0.00  0.00    +0.000 A 
ATOM     19  C   UNL     1       2.597   4.891  17.699  0.00  0.00    +0.000 A 
ATOM     20  C   UNL     1       3.809   4.483  18.265  0.00  0.00    +0.000 A 
ENDBRANCH  11  12
ENDBRANCH   1  11
TORSDOF 4
ENDMDL
MODEL 6
REMARK VINA RESULT:      -7.1      2.202      2.548
REMARK  Name = 
REMARK  5 active torsions:
REMARK  status: ('A' for Active; 'I' for Inactive)
REMARK    1  A    between atoms: C_1  and  C_2
REMARK    2  A    between atoms: N_4  and  N_5
REMARK    3  A    between atoms: C_6  and  C_8
REMARK    4  A    between atoms: C_8  and  C_9
REMARK    5  A    between atoms: C_9  and  N_10
REMARK                            x       y       z     vdW  Elec       q    Type
REMARK                         _______ _______ _______ _____ _____    ______ ____
ROOT
ATOM      1  C   UNL     1       5.300   5.716  16.296  0.00  0.00    +0.000 C 
ENDROOT
BRANCH   1   3
ATOM      2  N   UNL     1       5.605   4.272  14.376  0.00  0.00    +0.000 N 
ATOM      3  C   UNL     1       6.230   4.900  15.430  0.00  0.00    +0.000 C 
ATOM      4  O   UNL     1       7.438   4.794  15.643  0.00  0.00    +0.000 OA
ATOM      5  H   UNL     1       4.609   4.348  14.164  0.00  0.00    +0.000 HD
BRANCH   2   9
ATOM      6  C   UNL     1       6.735   2.318  11.417  0.00  0.00    +0.000 C 
ATOM      7  C   UNL     1       5.822   3.137  12.286  0.00  0.00    +0.000 C 
ATOM      8  O   UNL     1       4.681   3.451  11.951  0.00  0.00    +0.000 OA
ATOM      9  N   UNL     1       6.375   3.508  13.492  0.00  0.00    +0.000 N 
ATOM     10  H   UNL     1       7.309   3.238  13.801  0.00  0.00    +0.000 HD
ENDBRANCH   2   9
ENDBRANCH   1   3
BRANCH   1  11
ATOM     11  C   UNL     1       5.154   5.082  17.674  0.00  0.00    +0.000 C 
BRANCH  11  12
ATOM     12  N   UNL     1       3.942   4.302  17.804  0.00  0.00    +0.000 N 
ATOM     13  N   UNL     1       3.554   3.488  16.802  0.00  0.00    +0.000 NA
ATOM     14  N   UNL     1       2.417   2.911  17.173  0.00  0.00    +0.000 NA
ATOM     15  C   UNL     1       2.085   3.382  18.414  0.00  0.00    +0.000 A 
ATOM     16  C   UNL     1       0.983   3.105  19.236  0.00  0.00    +0.000 A 
ATOM     17  C   UNL     1       0.890   3.756  20.473  0.00  0.00    +0.000 A 
ATOM     18  C   UNL     1       1.879   4.651  20.888  0.00  0.00    +0.000 A 
ATOM     19  C   UNL     1       2.991   4.930  20.084  0.00  0.00    +0.000 A 
ATOM     20  C   UNL     1       3.056   4.279  18.847  0.00  0.00    +0.000 A 
ENDBRANCH  11  12
ENDBRANCH   1  11
TORSDOF 4
ENDMDL
MODEL 7
REMARK VINA RESULT:      -7.1      1.580      2.189
REMARK  Name = 
REMARK  5 active torsions:
REMARK  status: ('A' for Active; 'I' for Inactive)
REMARK    1  A    between atoms: C_1  and  C_2
REMARK    2  A    between atoms: N_4  and  N_5
REMARK    3  A    between atoms: C_6  and  C_8
REMARK    4  A    between atoms: C_8  and  C_9
REMARK    5  A    between atoms: C_9  and  N_10
REMARK                            x       y       z     vdW  Elec       q    Type
REMARK                         _______ _______ _______ _____ _____    ______ ____
ROOT
ATOM      1  C   UNL     1       6.812   5.112  18.297  0.00  0.00    +0.000 C 
ENDROOT
BRANCH   1   3
ATOM      2  N   UNL     1       7.494   4.817  15.992  0.00  0.00    +0.000 N 
ATOM      3  C   UNL     1       7.115   5.729  16.952  0.00  0.00    +0.000 C 
ATOM      4  O   UNL     1       7.039   6.937  16.726  0.00  0.00    +0.000 OA
ATOM      5  H   UNL     1       7.556   3.809  16.141  0.00  0.00    +0.000 HD
BRANCH   2   9
ATOM      6  C   UNL     1       7.524   5.238  12.294  0.00  0.00    +0.000 C 
ATOM      7  C   UNL     1       7.147   4.670  13.634  0.00  0.00    +0.000 C 
ATOM      8  O   UNL     1       6.347   3.745  13.769  0.00  0.00    +0.000 OA
ATOM      9  N   UNL     1       7.776   5.274  14.699  0.00  0.00    +0.000 N 
ATOM     10  H   UNL     1       8.461   6.024  14.609  0.00  0.00    +0.000 HD
ENDBRANCH   2   9
ENDBRANCH   1   3
BRANCH   1  11
ATOM     11  C   UNL     1       5.379   5.414  18.716  0.00  0.00    +0.000 C 
BRANCH  11  12
ATOM     12  N   UNL     1       4.646   4.224  19.094  0.00  0.00    +0.000 N 
ATOM     13  N   UNL     1       5.260   3.248  19.792  0.00  0.00    +0.000 NA
ATOM     14  N   UNL     1       4.374   2.280  19.991  0.00  0.00    +0.000 NA
ATOM     15  C   UNL     1       3.198   2.650  19.397  0.00  0.00    +0.000 A 
ATOM     16  C   UNL     1       1.968   1.984  19.304  0.00  0.00    +0.000 A 
ATOM     17  C   UNL     1       0.920   2.606  18.610  0.00  0.00    +0.000 A 
ATOM     18  C   UNL     1       1.091   3.867  18.035  0.00  0.00    +0.000 A 
ATOM     19  C   UNL     1       2.309   4.550  18.129  0.00  0.00    +0.000 A 
ATOM     20  C   UNL     1       3.345   3.905  18.814  0.00  0.00    +0.000 A 
ENDBRANCH  11  12
ENDBRANCH   1  11
TORSDOF 4
ENDMDL
MODEL 8
REMARK VINA RESULT:      -7.1      1.961      2.648
REMARK  Name = 
REMARK  5 active torsions:
REMARK  status: ('A' for Active; 'I' for Inactive)
REMARK    1  A    between atoms: C_1  and  C_2
REMARK    2  A    between atoms: N_4  and  N_5
REMARK    3  A    between atoms: C_6  and  C_8
REMARK    4  A    between atoms: C_8  and  C_9
REMARK    5  A    between atoms: C_9  and  N_10
REMARK                            x       y       z     vdW  Elec       q    Type
REMARK                         _______ _______ _______ _____ _____    ______ ____
ROOT
ATOM      1  C   UNL     1       5.476   5.670  16.695  0.00  0.00    +0.000 C 
ENDROOT
BRANCH   1   3
ATOM      2  N   UNL     1       5.754   4.101  14.871  0.00  0.00    +0.000 N 
ATOM      3  C   UNL     1       6.355   5.097  15.608  0.00  0.00    +0.000 C 
ATOM      4  O   UNL     1       7.508   5.474  15.398  0.00  0.00    +0.000 OA
ATOM      5  H   UNL     1       4.797   3.773  15.011  0.00  0.00    +0.000 HD
BRANCH   2   9
ATOM      6  C   UNL     1       6.698   2.713  11.550  0.00  0.00    +0.000 C 
ATOM      7  C   UNL     1       5.841   3.356  12.604  0.00  0.00    +0.000 C 
ATOM      8  O   UNL     1       4.681   3.711  12.400  0.00  0.00    +0.000 OA
ATOM      9  N   UNL     1       6.467   3.513  13.820  0.00  0.00    +0.000 N 
ATOM     10  H   UNL     1       7.418   3.203  14.019  0.00  0.00    +0.000 HD
ENDBRANCH   2   9
ENDBRANCH   1   3
BRANCH   1  11
ATOM     11  C   UNL     1       4.220   4.826  16.871  0.00  0.00    +0.000 C 
BRANCH  11  12
ATOM     12  N   UNL     1       4.171   4.160  18.155  0.00  0.00    +0.000 N 
ATOM     13  N   UNL     1       5.309   3.717  18.728  0.00  0.00    +0.000 NA
ATOM     14  N   UNL     1       4.980   3.140  19.878  0.00  0.00    +0.000 NA
ATOM     15  C   UNL     1       3.621   3.210  20.016  0.00  0.00    +0.000 A 
ATOM     16  C   UNL     1       2.776   2.740  21.032  0.00  0.00    +0.000 A 
ATOM     17  C   UNL     1       1.395   2.941  20.901  0.00  0.00    +0.000 A 
ATOM     18  C   UNL     1       0.870   3.606  19.791  0.00  0.00    +0.000 A 
ATOM     19  C   UNL     1       1.700   4.092  18.775  0.00  0.00    +0.000 A 
ATOM     20  C   UNL     1       3.073   3.868  18.918  0.00  0.00    +0.000 A 
ENDBRANCH  11  12
ENDBRANCH   1  11
TORSDOF 4
ENDMDL
MODEL 9
REMARK VINA RESULT:      -7.1      1.792      1.840
REMARK  Name = 
REMARK  5 active torsions:
REMARK  status: ('A' for Active; 'I' for Inactive)
REMARK    1  A    between atoms: C_1  and  C_2
REMARK    2  A    between atoms: N_4  and  N_5
REMARK    3  A    between atoms: C_6  and  C_8
REMARK    4  A    between atoms: C_8  and  C_9
REMARK    5  A    between atoms: C_9  and  N_10
REMARK                            x       y       z     vdW  Elec       q    Type
REMARK                         _______ _______ _______ _____ _____    ______ ____
ROOT
ATOM      1  C   UNL     1       6.375   5.454  18.389  0.00  0.00    +0.000 C 
ENDROOT
BRANCH   1   3
ATOM      2  N   UNL     1       7.255   4.983  16.182  0.00  0.00    +0.000 N 
ATOM      3  C   UNL     1       6.853   5.971  17.053  0.00  0.00    +0.000 C 
ATOM      4  O   UNL     1       6.890   7.167  16.761  0.00  0.00    +0.000 OA
ATOM      5  H   UNL     1       7.227   3.983  16.387  0.00  0.00    +0.000 HD
BRANCH   2   9
ATOM      6  C   UNL     1       7.678   5.190  12.490  0.00  0.00    +0.000 C 
ATOM      7  C   UNL     1       7.131   4.726  13.811  0.00  0.00    +0.000 C 
ATOM      8  O   UNL     1       6.256   3.867  13.910  0.00  0.00    +0.000 OA
ATOM      9  N   UNL     1       7.695   5.346  14.904  0.00  0.00    +0.000 N 
ATOM     10  H   UNL     1       8.439   6.042  14.847  0.00  0.00    +0.000 HD
ENDBRANCH   2   9
ENDBRANCH   1   3
BRANCH   1  11
ATOM     11  C   UNL     1       5.547   4.187  18.210  0.00  0.00    +0.000 C 
BRANCH  11  12
ATOM     12  N   UNL     1       4.141   4.397  18.484  0.00  0.00    +0.000 N 
ATOM     13  N   UNL     1       3.432   5.268  17.738  0.00  0.00    +0.000 NA
ATOM     14  N   UNL     1       2.190   5.276  18.206  0.00  0.00    +0.000 NA
ATOM     15  C   UNL     1       2.128   4.413  19.266  0.00  0.00    +0.000 A 
ATOM     16  C   UNL     1       1.062   4.072  20.111  0.00  0.00    +0.000 A 
ATOM     17  C   UNL     1       1.293   3.153  21.144  0.00  0.00    +0.000 A 
ATOM     18  C   UNL     1       2.553   2.577  21.321  0.00  0.00    +0.000 A 
ATOM     19  C   UNL     1       3.624   2.898  20.479  0.00  0.00    +0.000 A 
ATOM     20  C   UNL     1       3.375   3.827  19.465  0.00  0.00    +0.000 A 
ENDBRANCH  11  12
ENDBRANCH   1  11
TORSDOF 4
ENDMDL
