MODEL 1
REMARK VINA RESULT:      -7.6      0.000      0.000
REMARK  Name = 
REMARK  8 active torsions:
REMARK  status: ('A' for Active; 'I' for Inactive)
REMARK    1  A    between atoms: C_1  and  N_2
REMARK    2  A    between atoms: N_2  and  C_3
REMARK    3  A    between atoms: N_2  and  C_16
REMARK    4  A    between atoms: C_3  and  C_4
REMARK    5  A    between atoms: N_6  and  C_7
REMARK    6  A    between atoms: C_7  and  C_8
REMARK    7  A    between atoms: C_8  and  C_9
REMARK    8  A    between atoms: C_16  and  C_17
REMARK                            x       y       z     vdW  Elec       q    Type
REMARK                         _______ _______ _______ _____ _____    ______ ____
ROOT
ATOM      1  C   UNL     1       7.041   6.770  17.316  0.00  0.00    +0.000 C 
ATOM      2  O   UNL     1       6.254   7.385  16.599  0.00  0.00    +0.000 OA
ATOM      3  N   UNL     1       8.017   7.421  18.051  0.00  0.00    +0.000 N 
ATOM      4  H   UNL     1       8.804   6.880  18.388  0.00  0.00    +0.000 HD
ENDROOT
BRANCH   1   5
ATOM      5  C   UNL     1       7.032   5.244  17.472  0.00  0.00    +0.000 C 
BRANCH   5   7
ATOM      6  C   UNL     1       7.232   4.813  15.087  0.00  0.00    +0.000 C 
ATOM      7  N   UNL     1       6.482   4.514  16.308  0.00  0.00    +0.000 NA
BRANCH   7   8
ATOM      8  C   UNL     1       5.045   4.755  16.078  0.00  0.00    +0.000 C 
BRANCH   8   9
ATOM      9  C   UNL     1       4.127   4.385  17.225  0.00  0.00    +0.000 A 
ATOM     10  C   UNL     1       3.307   5.362  17.810  0.00  0.00    +0.000 A 
ATOM     11  C   UNL     1       2.394   5.025  18.811  0.00  0.00    +0.000 A 
ATOM     12  C   UNL     1       2.288   3.701  19.225  0.00  0.00    +0.000 A 
ATOM     13 BR   UNL     1       1.004   3.229  20.530  0.00  0.00    +0.000 Br
ATOM     14  C   UNL     1       3.110   2.719  18.673  0.00  0.00    +0.000 A 
ATOM     15  C   UNL     1       4.036   3.062  17.684  0.00  0.00    +0.000 A 
ENDBRANCH   8   9
ENDBRANCH   7   8
ENDBRANCH   5   7
ENDBRANCH   1   5
BRANCH   3  16
ATOM     16  C   UNL     1       8.134   8.859  17.931  0.00  0.00    +0.000 C 
BRANCH  16  17
ATOM     17  C   UNL     1       9.000   9.490  19.019  0.00  0.00    +0.000 C 
BRANCH  17  18
ATOM     18  C   UNL     1       9.496  10.854  18.607  0.00  0.00    +0.000 A 
ATOM     19  C   UNL     1      10.781  11.295  18.967  0.00  0.00    +0.000 A 
ATOM     20  C   UNL     1      11.220  12.567  18.599  0.00  0.00    +0.000 A 
ATOM     21  C   UNL     1      10.375  13.402  17.879  0.00  0.00    +0.000 A 
ATOM     22  F   UNL     1      10.799  14.623  17.526  0.00  0.00    +0.000 F 
ATOM     23  C   UNL     1       9.096  12.994  17.525  0.00  0.00    +0.000 A 
ATOM     24  C   UNL     1       8.656  11.719  17.890  0.00  0.00    +0.000 A 
ENDBRANCH  17  18
ENDBRANCH  16  17
ENDBRANCH   3  16
TORSDOF 7
ENDMDL
MODEL 2
REMARK VINA RESULT:      -7.5      1.639      2.007
REMARK  Name = 
REMARK  8 active torsions:
REMARK  status: ('A' for Active; 'I' for Inactive)
REMARK    1  A    between atoms: C_1  and  N_2
REMARK    2  A    between atoms: N_2  and  C_3
REMARK    3  A    between atoms: N_2  and  C_16
REMARK    4  A    between atoms: C_3  and  C_4
REMARK    5  A    between atoms: N_6  and  C_7
REMARK    6  A    between atoms: C_7  and  C_8
REMARK    7  A    between atoms: C_8  and  C_9
REMARK    8  A    between atoms: C_16  and  C_17
REMARK                            x       y       z     vdW  Elec       q    Type
REMARK                         _______ _______ _______ _____ _____    ______ ____
ROOT
ATOM      1  C   UNL     1       7.207   6.977  17.638  0.00  0.00    +0.000 C 
ATOM      2  O   UNL     1       7.811   6.308  18.475  0.00  0.00    +0.000 OA
ATOM      3  N   UNL     1       7.462   8.327  17.465  0.00  0.00    +0.000 N 
ATOM      4  H   UNL     1       6.766   8.889  16.988  0.00  0.00    +0.000 HD
ENDROOT
BRANCH   1   5
ATOM      5  C   UNL     1       6.127   6.404  16.713  0.00  0.00    +0.000 C 
BRANCH   5   7
ATOM      6  C   UNL     1       7.085   4.422  15.681  0.00  0.00    +0.000 C 
ATOM      7  N   UNL     1       6.103   4.926  16.643  0.00  0.00    +0.000 NA
BRANCH   7   8
ATOM      8  C   UNL     1       4.775   4.364  16.334  0.00  0.00    +0.000 C 
BRANCH   8   9
ATOM      9  C   UNL     1       3.974   3.885  17.527  0.00  0.00    +0.000 A 
ATOM     10  C   UNL     1       4.625   3.590  18.735  0.00  0.00    +0.000 A 
ATOM     11  C   UNL     1       3.897   3.228  19.870  0.00  0.00    +0.000 A 
ATOM     12  C   UNL     1       2.508   3.172  19.807  0.00  0.00    +0.000 A 
ATOM     13 BR   UNL     1       1.516   2.751  21.360  0.00  0.00    +0.000 Br
ATOM     14  C   UNL     1       1.844   3.439  18.610  0.00  0.00    +0.000 A 
ATOM     15  C   UNL     1       2.576   3.783  17.470  0.00  0.00    +0.000 A 
ENDBRANCH   8   9
ENDBRANCH   7   8
ENDBRANCH   5   7
ENDBRANCH   1   5
BRANCH   3  16
ATOM     16  C   UNL     1       8.432   8.968  18.327  0.00  0.00    +0.000 C 
BRANCH  16  17
ATOM     17  C   UNL     1       8.995  10.264  17.747  0.00  0.00    +0.000 C 
BRANCH  17  18
ATOM     18  C   UNL     1       9.312  11.262  18.834  0.00  0.00    +0.000 A 
ATOM     19  C   UNL     1       9.482  12.625  18.536  0.00  0.00    +0.000 A 
ATOM     20  C   UNL     1       9.796  13.534  19.546  0.00  0.00    +0.000 A 
ATOM     21  C   UNL     1       9.949  13.083  20.851  0.00  0.00    +0.000 A 
ATOM     22  F   UNL     1      10.250  13.958  21.821  0.00  0.00    +0.000 F 
ATOM     23  C   UNL     1       9.799  11.739  21.167  0.00  0.00    +0.000 A 
ATOM     24  C   UNL     1       9.481  10.828  20.157  0.00  0.00    +0.000 A 
ENDBRANCH  17  18
ENDBRANCH  16  17
ENDBRANCH   3  16
TORSDOF 7
ENDMDL
MODEL 3
REMARK VINA RESULT:      -7.4      5.345      7.807
REMARK  Name = 
REMARK  8 active torsions:
REMARK  status: ('A' for Active; 'I' for Inactive)
REMARK    1  A    between atoms: C_1  and  N_2
REMARK    2  A    between atoms: N_2  and  C_3
REMARK    3  A    between atoms: N_2  and  C_16
REMARK    4  A    between atoms: C_3  and  C_4
REMARK    5  A    between atoms: N_6  and  C_7
REMARK    6  A    between atoms: C_7  and  C_8
REMARK    7  A    between atoms: C_8  and  C_9
REMARK    8  A    between atoms: C_16  and  C_17
REMARK                            x       y       z     vdW  Elec       q    Type
REMARK                         _______ _______ _______ _____ _____    ______ ____
ROOT
ATOM      1  C   UNL     1       2.454   4.440  20.433  0.00  0.00    +0.000 C 
ATOM      2  O   UNL     1       1.604   3.987  21.198  0.00  0.00    +0.000 OA
ATOM      3  N   UNL     1       2.574   5.800  20.203  0.00  0.00    +0.000 N 
ATOM      4  H   UNL     1       3.073   6.104  19.375  0.00  0.00    +0.000 HD
ENDROOT
BRANCH   1   5
ATOM      5  C   UNL     1       3.454   3.568  19.663  0.00  0.00    +0.000 C 
BRANCH   5   7
ATOM      6  C   UNL     1       2.318   2.494  17.800  0.00  0.00    +0.000 C 
ATOM      7  N   UNL     1       3.249   3.552  18.197  0.00  0.00    +0.000 NA
BRANCH   7   8
ATOM      8  C   UNL     1       4.497   3.430  17.421  0.00  0.00    +0.000 C 
BRANCH   8   9
ATOM      9  C   UNL     1       5.389   4.654  17.421  0.00  0.00    +0.000 A 
ATOM     10  C   UNL     1       4.858   5.908  17.081  0.00  0.00    +0.000 A 
ATOM     11  C   UNL     1       5.642   7.061  17.156  0.00  0.00    +0.000 A 
ATOM     12  C   UNL     1       6.962   6.968  17.584  0.00  0.00    +0.000 A 
ATOM     13 BR   UNL     1       8.005   8.535  17.753  0.00  0.00    +0.000 Br
ATOM     14  C   UNL     1       7.516   5.728  17.903  0.00  0.00    +0.000 A 
ATOM     15  C   UNL     1       6.735   4.573  17.811  0.00  0.00    +0.000 A 
ENDBRANCH   8   9
ENDBRANCH   7   8
ENDBRANCH   5   7
ENDBRANCH   1   5
BRANCH   3  16
ATOM     16  C   UNL     1       1.642   6.700  20.848  0.00  0.00    +0.000 C 
BRANCH  16  17
ATOM     17  C   UNL     1       1.619   8.095  20.229  0.00  0.00    +0.000 C 
BRANCH  17  18
ATOM     18  C   UNL     1       0.799   9.053  21.059  0.00  0.00    +0.000 A 
ATOM     19  C   UNL     1       0.625   8.848  22.438  0.00  0.00    +0.000 A 
ATOM     20  C   UNL     1      -0.153   9.728  23.190  0.00  0.00    +0.000 A 
ATOM     21  C   UNL     1      -0.765  10.807  22.566  0.00  0.00    +0.000 A 
ATOM     22  F   UNL     1      -1.512  11.652  23.290  0.00  0.00    +0.000 F 
ATOM     23  C   UNL     1      -0.620  11.022  21.201  0.00  0.00    +0.000 A 
ATOM     24  C   UNL     1       0.163  10.143  20.447  0.00  0.00    +0.000 A 
ENDBRANCH  17  18
ENDBRANCH  16  17
ENDBRANCH   3  16
TORSDOF 7
ENDMDL
MODEL 4
REMARK VINA RESULT:      -7.4      5.018      6.617
REMARK  Name = 
REMARK  8 active torsions:
REMARK  status: ('A' for Active; 'I' for Inactive)
REMARK    1  A    between atoms: C_1  and  N_2
REMARK    2  A    between atoms: N_2  and  C_3
REMARK    3  A    between atoms: N_2  and  C_16
REMARK    4  A    between atoms: C_3  and  C_4
REMARK    5  A    between atoms: N_6  and  C_7
REMARK    6  A    between atoms: C_7  and  C_8
REMARK    7  A    between atoms: C_8  and  C_9
REMARK    8  A    between atoms: C_16  and  C_17
REMARK                            x       y       z     vdW  Elec       q    Type
REMARK                         _______ _______ _______ _____ _____    ______ ____
ROOT
ATOM      1  C   UNL     1       4.835   4.428  19.429  0.00  0.00    +0.000 C 
ATOM      2  O   UNL     1       5.326   3.369  19.042  0.00  0.00    +0.000 OA
ATOM      3  N   UNL     1       5.594   5.580  19.550  0.00  0.00    +0.000 N 
ATOM      4  H   UNL     1       5.236   6.331  20.128  0.00  0.00    +0.000 HD
ENDROOT
BRANCH   1   5
ATOM      5  C   UNL     1       3.359   4.588  19.815  0.00  0.00    +0.000 C 
BRANCH   5   7
ATOM      6  C   UNL     1       2.314   4.204  17.653  0.00  0.00    +0.000 C 
ATOM      7  N   UNL     1       2.507   5.157  18.747  0.00  0.00    +0.000 NA
BRANCH   7   8
ATOM      8  C   UNL     1       3.003   6.437  18.206  0.00  0.00    +0.000 C 
BRANCH   8   9
ATOM      9  C   UNL     1       2.289   7.678  18.704  0.00  0.00    +0.000 A 
ATOM     10  C   UNL     1       2.003   8.725  17.815  0.00  0.00    +0.000 A 
ATOM     11  C   UNL     1       1.273   9.839  18.233  0.00  0.00    +0.000 A 
ATOM     12  C   UNL     1       0.813   9.906  19.545  0.00  0.00    +0.000 A 
ATOM     13 BR   UNL     1      -0.235  11.379  20.096  0.00  0.00    +0.000 Br
ATOM     14  C   UNL     1       1.107   8.886  20.450  0.00  0.00    +0.000 A 
ATOM     15  C   UNL     1       1.853   7.781  20.033  0.00  0.00    +0.000 A 
ENDBRANCH   8   9
ENDBRANCH   7   8
ENDBRANCH   5   7
ENDBRANCH   1   5
BRANCH   3  16
ATOM     16  C   UNL     1       7.010   5.515  19.254  0.00  0.00    +0.000 C 
BRANCH  16  17
ATOM     17  C   UNL     1       7.398   6.266  17.983  0.00  0.00    +0.000 C 
BRANCH  17  18
ATOM     18  C   UNL     1       6.752   5.656  16.763  0.00  0.00    +0.000 A 
ATOM     19  C   UNL     1       7.176   4.411  16.268  0.00  0.00    +0.000 A 
ATOM     20  C   UNL     1       6.586   3.867  15.127  0.00  0.00    +0.000 A 
ATOM     21  C   UNL     1       5.580   4.569  14.474  0.00  0.00    +0.000 A 
ATOM     22  F   UNL     1       5.014   4.045  13.378  0.00  0.00    +0.000 F 
ATOM     23  C   UNL     1       5.155   5.807  14.937  0.00  0.00    +0.000 A 
ATOM     24  C   UNL     1       5.743   6.352  16.082  0.00  0.00    +0.000 A 
ENDBRANCH  17  18
ENDBRANCH  16  17
ENDBRANCH   3  16
TORSDOF 7
ENDMDL
MODEL 5
REMARK VINA RESULT:      -7.4      4.544      6.500
REMARK  Name = 
REMARK  8 active torsions:
REMARK  status: ('A' for Active; 'I' for Inactive)
REMARK    1  A    between atoms: C_1  and  N_2
REMARK    2  A    between atoms: N_2  and  C_3
REMARK    3  A    between atoms: N_2  and  C_16
REMARK    4  A    between atoms: C_3  and  C_4
REMARK    5  A    between atoms: N_6  and  C_7
REMARK    6  A    between atoms: C_7  and  C_8
REMARK    7  A    between atoms: C_8  and  C_9
REMARK    8  A    between atoms: C_16  and  C_17
REMARK                            x       y       z     vdW  Elec       q    Type
REMARK                         _______ _______ _______ _____ _____    ______ ____
ROOT
ATOM      1  C   UNL     1       3.963   2.905  19.819  0.00  0.00    +0.000 C 
ATOM      2  O   UNL     1       5.100   2.480  20.020  0.00  0.00    +0.000 OA
ATOM      3  N   UNL     1       3.466   3.074  18.537  0.00  0.00    +0.000 N 
ATOM      4  H   UNL     1       2.664   3.680  18.411  0.00  0.00    +0.000 HD
ENDROOT
BRANCH   1   5
ATOM      5  C   UNL     1       2.990   3.289  20.940  0.00  0.00    +0.000 C 
BRANCH   5   7
ATOM      6  C   UNL     1       0.940   4.385  20.226  0.00  0.00    +0.000 C 
ATOM      7  N   UNL     1       2.299   4.582  20.734  0.00  0.00    +0.000 NA
BRANCH   7   8
ATOM      8  C   UNL     1       3.027   5.514  19.852  0.00  0.00    +0.000 C 
BRANCH   8   9
ATOM      9  C   UNL     1       2.360   6.855  19.625  0.00  0.00    +0.000 A 
ATOM     10  C   UNL     1       1.695   7.495  20.683  0.00  0.00    +0.000 A 
ATOM     11  C   UNL     1       1.147   8.769  20.518  0.00  0.00    +0.000 A 
ATOM     12  C   UNL     1       1.273   9.416  19.293  0.00  0.00    +0.000 A 
ATOM     13 BR   UNL     1       0.593  11.168  19.086  0.00  0.00    +0.000 Br
ATOM     14  C   UNL     1       1.909   8.788  18.223  0.00  0.00    +0.000 A 
ATOM     15  C   UNL     1       2.441   7.506  18.385  0.00  0.00    +0.000 A 
ENDBRANCH   8   9
ENDBRANCH   7   8
ENDBRANCH   5   7
ENDBRANCH   1   5
BRANCH   3  16
ATOM     16  C   UNL     1       4.330   2.784  17.413  0.00  0.00    +0.000 C 
BRANCH  16  17
ATOM     17  C   UNL     1       4.509   3.968  16.465  0.00  0.00    +0.000 C 
BRANCH  17  18
ATOM     18  C   UNL     1       5.526   4.949  16.997  0.00  0.00    +0.000 A 
ATOM     19  C   UNL     1       5.389   6.328  16.765  0.00  0.00    +0.000 A 
ATOM     20  C   UNL     1       6.346   7.223  17.242  0.00  0.00    +0.000 A 
ATOM     21  C   UNL     1       7.445   6.742  17.942  0.00  0.00    +0.000 A 
ATOM     22  F   UNL     1       8.364   7.602  18.401  0.00  0.00    +0.000 F 
ATOM     23  C   UNL     1       7.609   5.382  18.171  0.00  0.00    +0.000 A 
ATOM     24  C   UNL     1       6.649   4.485  17.697  0.00  0.00    +0.000 A 
ENDBRANCH  17  18
ENDBRANCH  16  17
ENDBRANCH   3  16
TORSDOF 7
ENDMDL
MODEL 6
REMARK VINA RESULT:      -7.4      4.576      7.266
REMARK  Name = 
REMARK  8 active torsions:
REMARK  status: ('A' for Active; 'I' for Inactive)
REMARK    1  A    between atoms: C_1  and  N_2
REMARK    2  A    between atoms: N_2  and  C_3
REMARK    3  A    between atoms: N_2  and  C_16
REMARK    4  A    between atoms: C_3  and  C_4
REMARK    5  A    between atoms: N_6  and  C_7
REMARK    6  A    between atoms: C_7  and  C_8
REMARK    7  A    between atoms: C_8  and  C_9
REMARK    8  A    between atoms: C_16  and  C_17
REMARK                            x       y       z     vdW  Elec       q    Type
REMARK                         _______ _______ _______ _____ _____    ______ ____
ROOT
ATOM      1  C   UNL     1       6.146   4.628  18.566  0.00  0.00    +0.000 C 
ATOM      2  O   UNL     1       5.806   5.259  19.565  0.00  0.00    +0.000 OA
ATOM      3  N   UNL     1       5.350   3.630  18.030  0.00  0.00    +0.000 N 
ATOM      4  H   UNL     1       5.779   2.958  17.405  0.00  0.00    +0.000 HD
ENDROOT
BRANCH   1   5
ATOM      5  C   UNL     1       7.463   4.869  17.817  0.00  0.00    +0.000 C 
BRANCH   5   7
ATOM      6  C   UNL     1       7.618   7.288  17.623  0.00  0.00    +0.000 C 
ATOM      7  N   UNL     1       7.440   6.029  16.898  0.00  0.00    +0.000 NA
BRANCH   7   8
ATOM      8  C   UNL     1       6.226   6.105  16.064  0.00  0.00    +0.000 C 
BRANCH   8   9
ATOM      9  C   UNL     1       6.227   5.234  14.825  0.00  0.00    +0.000 A 
ATOM     10  C   UNL     1       7.342   5.230  13.973  0.00  0.00    +0.000 A 
ATOM     11  C   UNL     1       7.399   4.373  12.872  0.00  0.00    +0.000 A 
ATOM     12  C   UNL     1       6.341   3.503  12.624  0.00  0.00    +0.000 A 
ATOM     13 BR   UNL     1       6.445   2.293  11.176  0.00  0.00    +0.000 Br
ATOM     14  C   UNL     1       5.214   3.509  13.445  0.00  0.00    +0.000 A 
ATOM     15  C   UNL     1       5.152   4.380  14.536  0.00  0.00    +0.000 A 
ENDBRANCH   8   9
ENDBRANCH   7   8
ENDBRANCH   5   7
ENDBRANCH   1   5
BRANCH   3  16
ATOM     16  C   UNL     1       4.109   3.297  18.697  0.00  0.00    +0.000 C 
BRANCH  16  17
ATOM     17  C   UNL     1       2.887   3.963  18.069  0.00  0.00    +0.000 C 
BRANCH  17  18
ATOM     18  C   UNL     1       2.530   5.245  18.783  0.00  0.00    +0.000 A 
ATOM     19  C   UNL     1       1.996   5.224  20.083  0.00  0.00    +0.000 A 
ATOM     20  C   UNL     1       1.650   6.413  20.724  0.00  0.00    +0.000 A 
ATOM     21  C   UNL     1       1.829   7.623  20.065  0.00  0.00    +0.000 A 
ATOM     22  F   UNL     1       1.497   8.766  20.682  0.00  0.00    +0.000 F 
ATOM     23  C   UNL     1       2.342   7.668  18.776  0.00  0.00    +0.000 A 
ATOM     24  C   UNL     1       2.692   6.478  18.134  0.00  0.00    +0.000 A 
ENDBRANCH  17  18
ENDBRANCH  16  17
ENDBRANCH   3  16
TORSDOF 7
ENDMDL
MODEL 7
REMARK VINA RESULT:      -7.3      1.422      1.667
REMARK  Name = 
REMARK  8 active torsions:
REMARK  status: ('A' for Active; 'I' for Inactive)
REMARK    1  A    between atoms: C_1  and  N_2
REMARK    2  A    between atoms: N_2  and  C_3
REMARK    3  A    between atoms: N_2  and  C_16
REMARK    4  A    between atoms: C_3  and  C_4
REMARK    5  A    between atoms: N_6  and  C_7
REMARK    6  A    between atoms: C_7  and  C_8
REMARK    7  A    between atoms: C_8  and  C_9
REMARK    8  A    between atoms: C_16  and  C_17
REMARK                            x       y       z     vdW  Elec       q    Type
REMARK                         _______ _______ _______ _____ _____    ______ ____
ROOT
ATOM      1  C   UNL     1       7.413   6.166  17.671  0.00  0.00    +0.000 C 
ATOM      2  O   UNL     1       7.369   5.916  18.874  0.00  0.00    +0.000 OA
ATOM      3  N   UNL     1       7.845   7.394  17.199  0.00  0.00    +0.000 N 
ATOM      4  H   UNL     1       7.599   7.656  16.252  0.00  0.00    +0.000 HD
ENDROOT
BRANCH   1   5
ATOM      5  C   UNL     1       7.002   5.168  16.581  0.00  0.00    +0.000 C 
BRANCH   5   7
ATOM      6  C   UNL     1       5.462   5.835  14.822  0.00  0.00    +0.000 C 
ATOM      7  N   UNL     1       5.585   5.267  16.165  0.00  0.00    +0.000 NA
BRANCH   7   8
ATOM      8  C   UNL     1       4.739   6.028  17.103  0.00  0.00    +0.000 C 
BRANCH   8   9
ATOM      9  C   UNL     1       3.940   5.196  18.086  0.00  0.00    +0.000 A 
ATOM     10  C   UNL     1       3.715   5.672  19.387  0.00  0.00    +0.000 A 
ATOM     11  C   UNL     1       2.912   4.961  20.280  0.00  0.00    +0.000 A 
ATOM     12  C   UNL     1       2.318   3.771  19.872  0.00  0.00    +0.000 A 
ATOM     13 BR   UNL     1       1.174   2.841  21.056  0.00  0.00    +0.000 Br
ATOM     14  C   UNL     1       2.548   3.269  18.591  0.00  0.00    +0.000 A 
ATOM     15  C   UNL     1       3.367   3.973  17.705  0.00  0.00    +0.000 A 
ENDBRANCH   8   9
ENDBRANCH   7   8
ENDBRANCH   5   7
ENDBRANCH   1   5
BRANCH   3  16
ATOM     16  C   UNL     1       8.208   8.419  18.155  0.00  0.00    +0.000 C 
BRANCH  16  17
ATOM     17  C   UNL     1       8.319   9.811  17.538  0.00  0.00    +0.000 C 
BRANCH  17  18
ATOM     18  C   UNL     1       9.298  10.673  18.297  0.00  0.00    +0.000 A 
ATOM     19  C   UNL     1       9.333  10.662  19.702  0.00  0.00    +0.000 A 
ATOM     20  C   UNL     1      10.227  11.480  20.393  0.00  0.00    +0.000 A 
ATOM     21  C   UNL     1      11.081  12.314  19.683  0.00  0.00    +0.000 A 
ATOM     22  F   UNL     1      11.941  13.099  20.347  0.00  0.00    +0.000 F 
ATOM     23  C   UNL     1      11.055  12.352  18.295  0.00  0.00    +0.000 A 
ATOM     24  C   UNL     1      10.162  11.531  17.602  0.00  0.00    +0.000 A 
ENDBRANCH  17  18
ENDBRANCH  16  17
ENDBRANCH   3  16
TORSDOF 7
ENDMDL
MODEL 8
REMARK VINA RESULT:      -7.3      2.474      3.274
REMARK  Name = 
REMARK  8 active torsions:
REMARK  status: ('A' for Active; 'I' for Inactive)
REMARK    1  A    between atoms: C_1  and  N_2
REMARK    2  A    between atoms: N_2  and  C_3
REMARK    3  A    between atoms: N_2  and  C_16
REMARK    4  A    between atoms: C_3  and  C_4
REMARK    5  A    between atoms: N_6  and  C_7
REMARK    6  A    between atoms: C_7  and  C_8
REMARK    7  A    between atoms: C_8  and  C_9
REMARK    8  A    between atoms: C_16  and  C_17
REMARK                            x       y       z     vdW  Elec       q    Type
REMARK                         _______ _______ _______ _____ _____    ______ ____
ROOT
ATOM      1  C   UNL     1       6.868   6.273  16.870  0.00  0.00    +0.000 C 
ATOM      2  O   UNL     1       7.693   6.277  15.957  0.00  0.00    +0.000 OA
ATOM      3  N   UNL     1       6.710   7.360  17.713  0.00  0.00    +0.000 N 
ATOM      4  H   UNL     1       6.244   7.214  18.600  0.00  0.00    +0.000 HD
ENDROOT
BRANCH   1   5
ATOM      5  C   UNL     1       5.942   5.088  17.170  0.00  0.00    +0.000 C 
BRANCH   5   7
ATOM      6  C   UNL     1       5.038   4.295  19.284  0.00  0.00    +0.000 C 
ATOM      7  N   UNL     1       4.967   5.334  18.256  0.00  0.00    +0.000 NA
BRANCH   7   8
ATOM      8  C   UNL     1       3.575   5.472  17.788  0.00  0.00    +0.000 C 
BRANCH   8   9
ATOM      9  C   UNL     1       2.806   6.647  18.359  0.00  0.00    +0.000 A 
ATOM     10  C   UNL     1       2.385   6.624  19.697  0.00  0.00    +0.000 A 
ATOM     11  C   UNL     1       1.750   7.730  20.266  0.00  0.00    +0.000 A 
ATOM     12  C   UNL     1       1.543   8.873  19.500  0.00  0.00    +0.000 A 
ATOM     13 BR   UNL     1       0.746  10.396  20.286  0.00  0.00    +0.000 Br
ATOM     14  C   UNL     1       1.933   8.906  18.161  0.00  0.00    +0.000 A 
ATOM     15  C   UNL     1       2.552   7.792  17.589  0.00  0.00    +0.000 A 
ENDBRANCH   8   9
ENDBRANCH   7   8
ENDBRANCH   5   7
ENDBRANCH   1   5
BRANCH   3  16
ATOM     16  C   UNL     1       7.575   8.507  17.537  0.00  0.00    +0.000 C 
BRANCH  16  17
ATOM     17  C   UNL     1       8.651   8.626  18.613  0.00  0.00    +0.000 C 
BRANCH  17  18
ATOM     18  C   UNL     1       9.005  10.068  18.882  0.00  0.00    +0.000 A 
ATOM     19  C   UNL     1       9.035  11.011  17.841  0.00  0.00    +0.000 A 
ATOM     20  C   UNL     1       9.385  12.337  18.098  0.00  0.00    +0.000 A 
ATOM     21  C   UNL     1       9.713  12.720  19.392  0.00  0.00    +0.000 A 
ATOM     22  F   UNL     1      10.048  13.994  19.639  0.00  0.00    +0.000 F 
ATOM     23  C   UNL     1       9.704  11.803  20.435  0.00  0.00    +0.000 A 
ATOM     24  C   UNL     1       9.350  10.475  20.180  0.00  0.00    +0.000 A 
ENDBRANCH  17  18
ENDBRANCH  16  17
ENDBRANCH   3  16
TORSDOF 7
ENDMDL
MODEL 9
REMARK VINA RESULT:      -7.3      5.338      6.950
REMARK  Name = 
REMARK  8 active torsions:
REMARK  status: ('A' for Active; 'I' for Inactive)
REMARK    1  A    between atoms: C_1  and  N_2
REMARK    2  A    between atoms: N_2  and  C_3
REMARK    3  A    between atoms: N_2  and  C_16
REMARK    4  A    between atoms: C_3  and  C_4
REMARK    5  A    between atoms: N_6  and  C_7
REMARK    6  A    between atoms: C_7  and  C_8
REMARK    7  A    between atoms: C_8  and  C_9
REMARK    8  A    between atoms: C_16  and  C_17
REMARK                            x       y       z     vdW  Elec       q    Type
REMARK                         _______ _______ _______ _____ _____    ______ ____
ROOT
ATOM      1  C   UNL     1       5.519   4.477  19.059  0.00  0.00    +0.000 C 
ATOM      2  O   UNL     1       5.816   5.529  19.622  0.00  0.00    +0.000 OA
ATOM      3  N   UNL     1       6.278   3.969  18.019  0.00  0.00    +0.000 N 
ATOM      4  H   UNL     1       5.856   3.280  17.409  0.00  0.00    +0.000 HD
ENDROOT
BRANCH   1   5
ATOM      5  C   UNL     1       4.300   3.627  19.438  0.00  0.00    +0.000 C 
BRANCH   5   7
ATOM      6  C   UNL     1       2.234   3.133  18.253  0.00  0.00    +0.000 C 
ATOM      7  N   UNL     1       3.007   4.161  18.952  0.00  0.00    +0.000 NA
BRANCH   7   8
ATOM      8  C   UNL     1       3.140   5.351  18.090  0.00  0.00    +0.000 C 
BRANCH   8   9
ATOM      9  C   UNL     1       2.481   6.612  18.611  0.00  0.00    +0.000 A 
ATOM     10  C   UNL     1       2.117   6.705  19.964  0.00  0.00    +0.000 A 
ATOM     11  C   UNL     1       1.586   7.888  20.482  0.00  0.00    +0.000 A 
ATOM     12  C   UNL     1       1.427   8.992  19.650  0.00  0.00    +0.000 A 
ATOM     13 BR   UNL     1       0.774  10.615  20.364  0.00  0.00    +0.000 Br
ATOM     14  C   UNL     1       1.760   8.912  18.298  0.00  0.00    +0.000 A 
ATOM     15  C   UNL     1       2.275   7.721  17.778  0.00  0.00    +0.000 A 
ENDBRANCH   8   9
ENDBRANCH   7   8
ENDBRANCH   5   7
ENDBRANCH   1   5
BRANCH   3  16
ATOM     16  C   UNL     1       7.423   4.728  17.559  0.00  0.00    +0.000 C 
BRANCH  16  17
ATOM     17  C   UNL     1       7.080   5.738  16.467  0.00  0.00    +0.000 C 
BRANCH  17  18
ATOM     18  C   UNL     1       6.671   5.049  15.188  0.00  0.00    +0.000 A 
ATOM     19  C   UNL     1       5.441   4.377  15.090  0.00  0.00    +0.000 A 
ATOM     20  C   UNL     1       5.084   3.725  13.910  0.00  0.00    +0.000 A 
ATOM     21  C   UNL     1       5.957   3.736  12.830  0.00  0.00    +0.000 A 
ATOM     22  F   UNL     1       5.613   3.110  11.696  0.00  0.00    +0.000 F 
ATOM     23  C   UNL     1       7.185   4.381  12.908  0.00  0.00    +0.000 A 
ATOM     24  C   UNL     1       7.542   5.038  14.088  0.00  0.00    +0.000 A 
ENDBRANCH  17  18
ENDBRANCH  16  17
ENDBRANCH   3  16
TORSDOF 7
ENDMDL
