MODEL 1
REMARK VINA RESULT:      -8.7      0.000      0.000
REMARK  Name = 
REMARK  4 active torsions:
REMARK  status: ('A' for Active; 'I' for Inactive)
REMARK    1  A    between atoms: C_1  and  C_2
REMARK    2  A    between atoms: C_7  and  C_8
REMARK    3  A    between atoms: N_13  and  C_14
REMARK    4  A    between atoms: N_17  and  C_18
REMARK                            x       y       z     vdW  Elec       q    Type
REMARK                         _______ _______ _______ _____ _____    ______ ____
ROOT
ATOM      1  C   UNL     1       3.005   5.945  19.546  0.00  0.00    +0.000 C 
ATOM      2  O   UNL     1       2.793   5.187  20.494  0.00  0.00    +0.000 OA
ATOM      3  N   UNL     1       2.401   7.208  19.479  0.00  0.00    +0.000 N 
ATOM      4  C   UNL     1       1.557   7.600  20.613  0.00  0.00    +0.000 C 
ATOM      5  C   UNL     1       1.347   9.127  20.700  0.00  0.00    +0.000 C 
ATOM      6  N   UNL     1       0.879   9.660  19.407  0.00  0.00    +0.000 N 
ATOM      7  C   UNL     1       1.755   9.298  18.271  0.00  0.00    +0.000 C 
ATOM      8  C   UNL     1       1.985   7.780  18.192  0.00  0.00    +0.000 C 
ENDROOT
BRANCH   1  15
ATOM      9  C   UNL     1       6.412   3.815  13.349  0.00  0.00    +0.000 C 
ATOM     10  C   UNL     1       6.123   4.365  14.715  0.00  0.00    +0.000 A 
ATOM     11  C   UNL     1       7.217   5.030  15.424  0.00  0.00    +0.000 A 
ATOM     12  C   UNL     1       6.991   5.549  16.641  0.00  0.00    +0.000 A 
ATOM     13  N   UNL     1       5.722   5.437  17.202  0.00  0.00    +0.000 N 
ATOM     14  C   UNL     1       5.258   5.910  18.397  0.00  0.00    +0.000 A 
ATOM     15  C   UNL     1       3.925   5.545  18.469  0.00  0.00    +0.000 A 
ATOM     16  N   UNL     1       3.574   4.832  17.328  0.00  0.00    +0.000 NA
ATOM     17  C   UNL     1       4.659   4.797  16.580  0.00  0.00    +0.000 A 
ATOM     18  C   UNL     1       4.900   4.254  15.284  0.00  0.00    +0.000 A 
ENDBRANCH   1  15
BRANCH   6  19
ATOM     19  C   UNL     1      -0.316  10.365  19.256  0.00  0.00    +0.000 A 
ATOM     20  C   UNL     1      -1.403   9.743  18.453  0.00  0.00    +0.000 A 
ATOM     21  N   UNL     1      -2.590  10.208  18.239  0.00  0.00    +0.000 NA
ATOM     22  N   UNL     1      -2.902  11.439  18.779  0.00  0.00    +0.000 N 
ATOM     23  C   UNL     1      -2.011  12.165  19.580  0.00  0.00    +0.000 A 
ATOM     24  O   UNL     1      -2.265  13.227  20.151  0.00  0.00    +0.000 OA
ATOM     25  C   UNL     1      -0.667  11.548  19.783  0.00  0.00    +0.000 A 
ATOM     26 CL   UNL     1       0.449  12.497  20.720  0.00  0.00    +0.000 Cl
BRANCH  22  27
ATOM     27  C   UNL     1      -4.237  11.900  18.509  0.00  0.00    +0.000 A 
ATOM     28  C   UNL     1      -5.099  12.303  19.538  0.00  0.00    +0.000 A 
ATOM     29  C   UNL     1      -6.424  12.668  19.287  0.00  0.00    +0.000 A 
ATOM     30  C   UNL     1      -6.915  12.646  17.988  0.00  0.00    +0.000 A 
ATOM     31  C   UNL     1      -6.068  12.293  16.939  0.00  0.00    +0.000 A 
ATOM     32  C   UNL     1      -4.736  11.939  17.194  0.00  0.00    +0.000 A 
ENDBRANCH  22  27
ENDBRANCH   6  19
TORSDOF 3
ENDMDL
MODEL 2
REMARK VINA RESULT:      -8.3      1.650      2.088
REMARK  Name = 
REMARK  4 active torsions:
REMARK  status: ('A' for Active; 'I' for Inactive)
REMARK    1  A    between atoms: C_1  and  C_2
REMARK    2  A    between atoms: C_7  and  C_8
REMARK    3  A    between atoms: N_13  and  C_14
REMARK    4  A    between atoms: N_17  and  C_18
REMARK                            x       y       z     vdW  Elec       q    Type
REMARK                         _______ _______ _______ _____ _____    ______ ____
ROOT
ATOM      1  C   UNL     1       2.770   5.495  19.785  0.00  0.00    +0.000 C 
ATOM      2  O   UNL     1       2.410   4.608  20.559  0.00  0.00    +0.000 OA
ATOM      3  N   UNL     1       2.296   6.808  19.913  0.00  0.00    +0.000 N 
ATOM      4  C   UNL     1       1.400   7.080  21.044  0.00  0.00    +0.000 C 
ATOM      5  C   UNL     1       1.328   8.581  21.398  0.00  0.00    +0.000 C 
ATOM      6  N   UNL     1       1.022   9.383  20.199  0.00  0.00    +0.000 N 
ATOM      7  C   UNL     1       1.953   9.137  19.075  0.00  0.00    +0.000 C 
ATOM      8  C   UNL     1       2.045   7.642  18.730  0.00  0.00    +0.000 C 
ENDROOT
BRANCH   1  15
ATOM      9  C   UNL     1       6.451   4.038  13.549  0.00  0.00    +0.000 C 
ATOM     10  C   UNL     1       6.104   4.417  14.959  0.00  0.00    +0.000 A 
ATOM     11  C   UNL     1       7.180   4.931  15.808  0.00  0.00    +0.000 A 
ATOM     12  C   UNL     1       6.903   5.296  17.070  0.00  0.00    +0.000 A 
ATOM     13  N   UNL     1       5.600   5.171  17.542  0.00  0.00    +0.000 N 
ATOM     14  C   UNL     1       5.085   5.505  18.763  0.00  0.00    +0.000 A 
ATOM     15  C   UNL     1       3.736   5.197  18.714  0.00  0.00    +0.000 A 
ATOM     16  N   UNL     1       3.426   4.658  17.471  0.00  0.00    +0.000 NA
ATOM     17  C   UNL     1       4.551   4.670  16.784  0.00  0.00    +0.000 A 
ATOM     18  C   UNL     1       4.846   4.291  15.442  0.00  0.00    +0.000 A 
ENDBRANCH   1  15
BRANCH   6  19
ATOM     19  C   UNL     1      -0.084  10.228  20.103  0.00  0.00    +0.000 A 
ATOM     20  C   UNL     1      -0.501  10.982  21.316  0.00  0.00    +0.000 A 
ATOM     21  N   UNL     1      -1.458  11.844  21.419  0.00  0.00    +0.000 NA
ATOM     22  N   UNL     1      -2.221  12.090  20.296  0.00  0.00    +0.000 N 
ATOM     23  C   UNL     1      -1.966  11.487  19.057  0.00  0.00    +0.000 A 
ATOM     24  O   UNL     1      -2.563  11.729  18.007  0.00  0.00    +0.000 OA
ATOM     25  C   UNL     1      -0.835  10.513  19.028  0.00  0.00    +0.000 A 
ATOM     26 CL   UNL     1      -0.579   9.721  17.501  0.00  0.00    +0.000 Cl
BRANCH  22  27
ATOM     27  C   UNL     1      -3.267  13.061  20.472  0.00  0.00    +0.000 A 
ATOM     28  C   UNL     1      -4.619  12.726  20.305  0.00  0.00    +0.000 A 
ATOM     29  C   UNL     1      -5.630  13.686  20.391  0.00  0.00    +0.000 A 
ATOM     30  C   UNL     1      -5.308  15.010  20.656  0.00  0.00    +0.000 A 
ATOM     31  C   UNL     1      -3.977  15.364  20.872  0.00  0.00    +0.000 A 
ATOM     32  C   UNL     1      -2.967  14.395  20.798  0.00  0.00    +0.000 A 
ENDBRANCH  22  27
ENDBRANCH   6  19
TORSDOF 3
ENDMDL
MODEL 3
REMARK VINA RESULT:      -8.1      0.907      1.416
REMARK  Name = 
REMARK  4 active torsions:
REMARK  status: ('A' for Active; 'I' for Inactive)
REMARK    1  A    between atoms: C_1  and  C_2
REMARK    2  A    between atoms: C_7  and  C_8
REMARK    3  A    between atoms: N_13  and  C_14
REMARK    4  A    between atoms: N_17  and  C_18
REMARK                            x       y       z     vdW  Elec       q    Type
REMARK                         _______ _______ _______ _____ _____    ______ ____
ROOT
ATOM      1  C   UNL     1       2.768   6.440  19.383  0.00  0.00    +0.000 C 
ATOM      2  O   UNL     1       2.730   5.794  20.430  0.00  0.00    +0.000 OA
ATOM      3  N   UNL     1       2.082   7.656  19.255  0.00  0.00    +0.000 N 
ATOM      4  C   UNL     1       1.370   8.143  20.443  0.00  0.00    +0.000 C 
ATOM      5  C   UNL     1       1.078   9.657  20.383  0.00  0.00    +0.000 C 
ATOM      6  N   UNL     1       0.412  10.006  19.114  0.00  0.00    +0.000 N 
ATOM      7  C   UNL     1       1.153   9.551  17.917  0.00  0.00    +0.000 C 
ATOM      8  C   UNL     1       1.466   8.047  17.980  0.00  0.00    +0.000 C 
ENDROOT
BRANCH   1  15
ATOM      9  C   UNL     1       7.511   5.239  13.850  0.00  0.00    +0.000 C 
ATOM     10  C   UNL     1       6.469   5.061  14.915  0.00  0.00    +0.000 A 
ATOM     11  C   UNL     1       6.001   3.700  15.185  0.00  0.00    +0.000 A 
ATOM     12  C   UNL     1       5.082   3.501  16.143  0.00  0.00    +0.000 A 
ATOM     13  N   UNL     1       4.592   4.593  16.853  0.00  0.00    +0.000 N 
ATOM     14  C   UNL     1       3.690   4.627  17.879  0.00  0.00    +0.000 A 
ATOM     15  C   UNL     1       3.562   5.956  18.242  0.00  0.00    +0.000 A 
ATOM     16  N   UNL     1       4.371   6.742  17.428  0.00  0.00    +0.000 NA
ATOM     17  C   UNL     1       4.989   5.903  16.620  0.00  0.00    +0.000 A 
ATOM     18  C   UNL     1       5.971   6.111  15.607  0.00  0.00    +0.000 A 
ENDBRANCH   1  15
BRANCH   6  19
ATOM     19  C   UNL     1      -0.834  10.631  19.049  0.00  0.00    +0.000 A 
ATOM     20  C   UNL     1      -1.890  10.009  18.205  0.00  0.00    +0.000 A 
ATOM     21  N   UNL     1      -3.112  10.401  18.054  0.00  0.00    +0.000 NA
ATOM     22  N   UNL     1      -3.502  11.547  18.715  0.00  0.00    +0.000 N 
ATOM     23  C   UNL     1      -2.651  12.258  19.570  0.00  0.00    +0.000 A 
ATOM     24  O   UNL     1      -2.969  13.238  20.245  0.00  0.00    +0.000 OA
ATOM     25  C   UNL     1      -1.261  11.728  19.694  0.00  0.00    +0.000 A 
ATOM     26 CL   UNL     1      -0.198  12.664  20.702  0.00  0.00    +0.000 Cl
BRANCH  22  27
ATOM     27  C   UNL     1      -4.874  11.930  18.510  0.00  0.00    +0.000 A 
ATOM     28  C   UNL     1      -5.346  12.331  17.253  0.00  0.00    +0.000 A 
ATOM     29  C   UNL     1      -6.654  12.785  17.070  0.00  0.00    +0.000 A 
ATOM     30  C   UNL     1      -7.527  12.840  18.149  0.00  0.00    +0.000 A 
ATOM     31  C   UNL     1      -7.098  12.405  19.402  0.00  0.00    +0.000 A 
ATOM     32  C   UNL     1      -5.789  11.938  19.578  0.00  0.00    +0.000 A 
ENDBRANCH  22  27
ENDBRANCH   6  19
TORSDOF 3
ENDMDL
MODEL 4
REMARK VINA RESULT:      -8.0      4.194     10.995
REMARK  Name = 
REMARK  4 active torsions:
REMARK  status: ('A' for Active; 'I' for Inactive)
REMARK    1  A    between atoms: C_1  and  C_2
REMARK    2  A    between atoms: C_7  and  C_8
REMARK    3  A    between atoms: N_13  and  C_14
REMARK    4  A    between atoms: N_17  and  C_18
REMARK                            x       y       z     vdW  Elec       q    Type
REMARK                         _______ _______ _______ _____ _____    ______ ____
ROOT
ATOM      1  C   UNL     1      -2.245  13.516  21.666  0.00  0.00    +0.000 C 
ATOM      2  O   UNL     1      -3.440  13.390  21.396  0.00  0.00    +0.000 OA
ATOM      3  N   UNL     1      -1.265  12.780  20.985  0.00  0.00    +0.000 N 
ATOM      4  C   UNL     1      -1.729  11.902  19.905  0.00  0.00    +0.000 C 
ATOM      5  C   UNL     1      -0.604  11.529  18.916  0.00  0.00    +0.000 C 
ATOM      6  N   UNL     1       0.569  11.003  19.639  0.00  0.00    +0.000 N 
ATOM      7  C   UNL     1       1.060  11.910  20.701  0.00  0.00    +0.000 C 
ATOM      8  C   UNL     1      -0.061  12.301  21.677  0.00  0.00    +0.000 C 
ENDROOT
BRANCH   1  15
ATOM      9  C   UNL     1      -0.160  17.158  27.744  0.00  0.00    +0.000 C 
ATOM     10  C   UNL     1      -0.424  16.773  26.318  0.00  0.00    +0.000 A 
ATOM     11  C   UNL     1       0.104  17.648  25.270  0.00  0.00    +0.000 A 
ATOM     12  C   UNL     1      -0.099  17.326  23.983  0.00  0.00    +0.000 A 
ATOM     13  N   UNL     1      -0.810  16.170  23.675  0.00  0.00    +0.000 N 
ATOM     14  C   UNL     1      -1.106  15.633  22.454  0.00  0.00    +0.000 A 
ATOM     15  C   UNL     1      -1.816  14.471  22.701  0.00  0.00    +0.000 A 
ATOM     16  N   UNL     1      -1.972  14.303  24.073  0.00  0.00    +0.000 NA
ATOM     17  C   UNL     1      -1.347  15.320  24.632  0.00  0.00    +0.000 A 
ATOM     18  C   UNL     1      -1.124  15.660  25.999  0.00  0.00    +0.000 A 
ENDBRANCH   1  15
BRANCH   6  19
ATOM     19  C   UNL     1       1.111   9.739  19.404  0.00  0.00    +0.000 A 
ATOM     20  C   UNL     1       1.725   9.473  18.075  0.00  0.00    +0.000 A 
ATOM     21  N   UNL     1       2.320   8.394  17.683  0.00  0.00    +0.000 NA
ATOM     22  N   UNL     1       2.377   7.338  18.568  0.00  0.00    +0.000 N 
ATOM     23  C   UNL     1       1.870   7.410  19.871  0.00  0.00    +0.000 A 
ATOM     24  O   UNL     1       1.964   6.527  20.726  0.00  0.00    +0.000 OA
ATOM     25  C   UNL     1       1.210   8.696  20.243  0.00  0.00    +0.000 A 
ATOM     26 CL   UNL     1       0.522   8.741  21.839  0.00  0.00    +0.000 Cl
BRANCH  22  27
ATOM     27  C   UNL     1       3.054   6.168  18.074  0.00  0.00    +0.000 A 
ATOM     28  C   UNL     1       4.416   6.191  17.742  0.00  0.00    +0.000 A 
ATOM     29  C   UNL     1       5.054   5.081  17.182  0.00  0.00    +0.000 A 
ATOM     30  C   UNL     1       4.338   3.915  16.948  0.00  0.00    +0.000 A 
ATOM     31  C   UNL     1       2.995   3.848  17.309  0.00  0.00    +0.000 A 
ATOM     32  C   UNL     1       2.361   4.959  17.883  0.00  0.00    +0.000 A 
ENDBRANCH  22  27
ENDBRANCH   6  19
TORSDOF 3
ENDMDL
MODEL 5
REMARK VINA RESULT:      -7.8      0.582      1.010
REMARK  Name = 
REMARK  4 active torsions:
REMARK  status: ('A' for Active; 'I' for Inactive)
REMARK    1  A    between atoms: C_1  and  C_2
REMARK    2  A    between atoms: C_7  and  C_8
REMARK    3  A    between atoms: N_13  and  C_14
REMARK    4  A    between atoms: N_17  and  C_18
REMARK                            x       y       z     vdW  Elec       q    Type
REMARK                         _______ _______ _______ _____ _____    ______ ____
ROOT
ATOM      1  C   UNL     1       3.193   5.783  19.024  0.00  0.00    +0.000 C 
ATOM      2  O   UNL     1       2.931   4.946  19.889  0.00  0.00    +0.000 OA
ATOM      3  N   UNL     1       2.619   7.062  19.055  0.00  0.00    +0.000 N 
ATOM      4  C   UNL     1       1.743   7.368  20.193  0.00  0.00    +0.000 C 
ATOM      5  C   UNL     1       1.563   8.884  20.415  0.00  0.00    +0.000 C 
ATOM      6  N   UNL     1       1.152   9.546  19.162  0.00  0.00    +0.000 N 
ATOM      7  C   UNL     1       2.060   9.270  18.027  0.00  0.00    +0.000 C 
ATOM      8  C   UNL     1       2.261   7.761  17.814  0.00  0.00    +0.000 C 
ENDROOT
BRANCH   1  15
ATOM      9  C   UNL     1       6.761   3.879  12.844  0.00  0.00    +0.000 C 
ATOM     10  C   UNL     1       6.423   4.435  14.196  0.00  0.00    +0.000 A 
ATOM     11  C   UNL     1       7.436   5.252  14.866  0.00  0.00    +0.000 A 
ATOM     12  C   UNL     1       7.162   5.780  16.070  0.00  0.00    +0.000 A 
ATOM     13  N   UNL     1       5.924   5.533  16.655  0.00  0.00    +0.000 N 
ATOM     14  C   UNL     1       5.419   5.986  17.841  0.00  0.00    +0.000 A 
ATOM     15  C   UNL     1       4.142   5.463  17.946  0.00  0.00    +0.000 A 
ATOM     16  N   UNL     1       3.868   4.675  16.833  0.00  0.00    +0.000 NA
ATOM     17  C   UNL     1       4.939   4.748  16.069  0.00  0.00    +0.000 A 
ATOM     18  C   UNL     1       5.230   4.195  14.788  0.00  0.00    +0.000 A 
ENDBRANCH   1  15
BRANCH   6  19
ATOM     19  C   UNL     1      -0.021  10.291  19.038  0.00  0.00    +0.000 A 
ATOM     20  C   UNL     1      -1.261   9.586  18.614  0.00  0.00    +0.000 A 
ATOM     21  N   UNL     1      -2.448  10.083  18.490  0.00  0.00    +0.000 NA
ATOM     22  N   UNL     1      -2.607  11.430  18.742  0.00  0.00    +0.000 N 
ATOM     23  C   UNL     1      -1.557  12.251  19.170  0.00  0.00    +0.000 A 
ATOM     24  O   UNL     1      -1.659  13.439  19.485  0.00  0.00    +0.000 OA
ATOM     25  C   UNL     1      -0.223  11.592  19.297  0.00  0.00    +0.000 A 
ATOM     26 CL   UNL     1       1.082  12.643  19.759  0.00  0.00    +0.000 Cl
BRANCH  22  27
ATOM     27  C   UNL     1      -3.950  11.922  18.590  0.00  0.00    +0.000 A 
ATOM     28  C   UNL     1      -4.690  11.695  17.421  0.00  0.00    +0.000 A 
ATOM     29  C   UNL     1      -5.961  12.245  17.237  0.00  0.00    +0.000 A 
ATOM     30  C   UNL     1      -6.526  13.033  18.231  0.00  0.00    +0.000 A 
ATOM     31  C   UNL     1      -5.833  13.237  19.423  0.00  0.00    +0.000 A 
ATOM     32  C   UNL     1      -4.563  12.673  19.609  0.00  0.00    +0.000 A 
ENDBRANCH  22  27
ENDBRANCH   6  19
TORSDOF 3
ENDMDL
MODEL 6
REMARK VINA RESULT:      -7.6      3.208     10.558
REMARK  Name = 
REMARK  4 active torsions:
REMARK  status: ('A' for Active; 'I' for Inactive)
REMARK    1  A    between atoms: C_1  and  C_2
REMARK    2  A    between atoms: C_7  and  C_8
REMARK    3  A    between atoms: N_13  and  C_14
REMARK    4  A    between atoms: N_17  and  C_18
REMARK                            x       y       z     vdW  Elec       q    Type
REMARK                         _______ _______ _______ _____ _____    ______ ____
ROOT
ATOM      1  C   UNL     1      -0.170  12.798  21.640  0.00  0.00    +0.000 C 
ATOM      2  O   UNL     1      -0.200  12.750  22.871  0.00  0.00    +0.000 OA
ATOM      3  N   UNL     1       0.083  11.651  20.876  0.00  0.00    +0.000 N 
ATOM      4  C   UNL     1       0.251  10.390  21.609  0.00  0.00    +0.000 C 
ATOM      5  C   UNL     1       0.032   9.149  20.718  0.00  0.00    +0.000 C 
ATOM      6  N   UNL     1       0.857   9.234  19.499  0.00  0.00    +0.000 N 
ATOM      7  C   UNL     1       0.653  10.488  18.739  0.00  0.00    +0.000 C 
ATOM      8  C   UNL     1       0.850  11.728  19.626  0.00  0.00    +0.000 C 
ENDROOT
BRANCH   1  15
ATOM      9  C   UNL     1      -0.560  18.631  17.126  0.00  0.00    +0.000 C 
ATOM     10  C   UNL     1      -0.834  17.632  18.212  0.00  0.00    +0.000 A 
ATOM     11  C   UNL     1      -2.070  17.788  18.981  0.00  0.00    +0.000 A 
ATOM     12  C   UNL     1      -2.356  16.903  19.950  0.00  0.00    +0.000 A 
ATOM     13  N   UNL     1      -1.468  15.862  20.202  0.00  0.00    +0.000 N 
ATOM     14  C   UNL     1      -1.565  14.839  21.104  0.00  0.00    +0.000 A 
ATOM     15  C   UNL     1      -0.427  14.067  20.941  0.00  0.00    +0.000 A 
ATOM     16  N   UNL     1       0.377  14.625  19.953  0.00  0.00    +0.000 NA
ATOM     17  C   UNL     1      -0.274  15.684  19.515  0.00  0.00    +0.000 A 
ATOM     18  C   UNL     1       0.023  16.620  18.482  0.00  0.00    +0.000 A 
ENDBRANCH   1  15
BRANCH   6  19
ATOM     19  C   UNL     1       1.796   8.267  19.140  0.00  0.00    +0.000 A 
ATOM     20  C   UNL     1       2.619   8.503  17.923  0.00  0.00    +0.000 A 
ATOM     21  N   UNL     1       3.568   7.760  17.456  0.00  0.00    +0.000 NA
ATOM     22  N   UNL     1       3.850   6.588  18.125  0.00  0.00    +0.000 N 
ATOM     23  C   UNL     1       3.193   6.208  19.302  0.00  0.00    +0.000 A 
ATOM     24  O   UNL     1       3.459   5.215  19.982  0.00  0.00    +0.000 OA
ATOM     25  C   UNL     1       2.119   7.130  19.775  0.00  0.00    +0.000 A 
ATOM     26 CL   UNL     1       1.265   6.606  21.196  0.00  0.00    +0.000 Cl
BRANCH  22  27
ATOM     27  C   UNL     1       4.918   5.807  17.559  0.00  0.00    +0.000 A 
ATOM     28  C   UNL     1       6.228   5.882  18.054  0.00  0.00    +0.000 A 
ATOM     29  C   UNL     1       7.281   5.191  17.451  0.00  0.00    +0.000 A 
ATOM     30  C   UNL     1       7.043   4.397  16.337  0.00  0.00    +0.000 A 
ATOM     31  C   UNL     1       5.743   4.267  15.851  0.00  0.00    +0.000 A 
ATOM     32  C   UNL     1       4.686   4.952  16.467  0.00  0.00    +0.000 A 
ENDBRANCH  22  27
ENDBRANCH   6  19
TORSDOF 3
ENDMDL
MODEL 7
REMARK VINA RESULT:      -7.5      1.823      2.343
REMARK  Name = 
REMARK  4 active torsions:
REMARK  status: ('A' for Active; 'I' for Inactive)
REMARK    1  A    between atoms: C_1  and  C_2
REMARK    2  A    between atoms: C_7  and  C_8
REMARK    3  A    between atoms: N_13  and  C_14
REMARK    4  A    between atoms: N_17  and  C_18
REMARK                            x       y       z     vdW  Elec       q    Type
REMARK                         _______ _______ _______ _____ _____    ______ ____
ROOT
ATOM      1  C   UNL     1       2.710   5.993  19.648  0.00  0.00    +0.000 C 
ATOM      2  O   UNL     1       2.562   5.184  20.564  0.00  0.00    +0.000 OA
ATOM      3  N   UNL     1       2.163   7.282  19.723  0.00  0.00    +0.000 N 
ATOM      4  C   UNL     1       1.460   7.632  20.963  0.00  0.00    +0.000 C 
ATOM      5  C   UNL     1       1.333   9.157  21.165  0.00  0.00    +0.000 C 
ATOM      6  N   UNL     1       0.758   9.792  19.965  0.00  0.00    +0.000 N 
ATOM      7  C   UNL     1       1.494   9.471  18.721  0.00  0.00    +0.000 C 
ATOM      8  C   UNL     1       1.642   7.954  18.525  0.00  0.00    +0.000 C 
ENDROOT
BRANCH   1  15
ATOM      9  C   UNL     1       7.459   5.308  14.033  0.00  0.00    +0.000 C 
ATOM     10  C   UNL     1       6.394   5.042  15.056  0.00  0.00    +0.000 A 
ATOM     11  C   UNL     1       5.849   3.686  15.132  0.00  0.00    +0.000 A 
ATOM     12  C   UNL     1       4.907   3.407  16.047  0.00  0.00    +0.000 A 
ATOM     13  N   UNL     1       4.467   4.416  16.898  0.00  0.00    +0.000 N 
ATOM     14  C   UNL     1       3.554   4.357  17.913  0.00  0.00    +0.000 A 
ATOM     15  C   UNL     1       3.493   5.629  18.456  0.00  0.00    +0.000 A 
ATOM     16  N   UNL     1       4.355   6.473  17.764  0.00  0.00    +0.000 NA
ATOM     17  C   UNL     1       4.938   5.721  16.852  0.00  0.00    +0.000 A 
ATOM     18  C   UNL     1       5.943   6.013  15.885  0.00  0.00    +0.000 A 
ENDBRANCH   1  15
BRANCH   6  19
ATOM     19  C   UNL     1      -0.411  10.554  19.985  0.00  0.00    +0.000 A 
ATOM     20  C   UNL     1      -0.752  11.285  21.235  0.00  0.00    +0.000 A 
ATOM     21  N   UNL     1      -1.754  12.077  21.437  0.00  0.00    +0.000 NA
ATOM     22  N   UNL     1      -2.646  12.256  20.400  0.00  0.00    +0.000 N 
ATOM     23  C   UNL     1      -2.478  11.664  19.142  0.00  0.00    +0.000 A 
ATOM     24  O   UNL     1      -3.198  11.852  18.160  0.00  0.00    +0.000 OA
ATOM     25  C   UNL     1      -1.289  10.774  18.994  0.00  0.00    +0.000 A 
ATOM     26 CL   UNL     1      -1.136   9.991  17.450  0.00  0.00    +0.000 Cl
BRANCH  22  27
ATOM     27  C   UNL     1      -3.737  13.150  20.685  0.00  0.00    +0.000 A 
ATOM     28  C   UNL     1      -3.540  14.531  20.825  0.00  0.00    +0.000 A 
ATOM     29  C   UNL     1      -4.582  15.388  21.186  0.00  0.00    +0.000 A 
ATOM     30  C   UNL     1      -5.854  14.879  21.409  0.00  0.00    +0.000 A 
ATOM     31  C   UNL     1      -6.089  13.517  21.233  0.00  0.00    +0.000 A 
ATOM     32  C   UNL     1      -5.045  12.661  20.858  0.00  0.00    +0.000 A 
ENDBRANCH  22  27
ENDBRANCH   6  19
TORSDOF 3
ENDMDL
MODEL 8
REMARK VINA RESULT:      -7.4      3.550     11.195
REMARK  Name = 
REMARK  4 active torsions:
REMARK  status: ('A' for Active; 'I' for Inactive)
REMARK    1  A    between atoms: C_1  and  C_2
REMARK    2  A    between atoms: C_7  and  C_8
REMARK    3  A    between atoms: N_13  and  C_14
REMARK    4  A    between atoms: N_17  and  C_18
REMARK                            x       y       z     vdW  Elec       q    Type
REMARK                         _______ _______ _______ _____ _____    ______ ____
ROOT
ATOM      1  C   UNL     1      -3.006  12.967  20.485  0.00  0.00    +0.000 C 
ATOM      2  O   UNL     1      -4.100  12.726  19.972  0.00  0.00    +0.000 OA
ATOM      3  N   UNL     1      -1.836  12.349  20.023  0.00  0.00    +0.000 N 
ATOM      4  C   UNL     1      -1.972  11.453  18.868  0.00  0.00    +0.000 C 
ATOM      5  C   UNL     1      -0.634  11.219  18.135  0.00  0.00    +0.000 C 
ATOM      6  N   UNL     1       0.411  10.798  19.086  0.00  0.00    +0.000 N 
ATOM      7  C   UNL     1       0.575  11.726  20.227  0.00  0.00    +0.000 C 
ATOM      8  C   UNL     1      -0.758  11.979  20.949  0.00  0.00    +0.000 C 
ENDROOT
BRANCH   1  15
ATOM      9  C   UNL     1      -1.743  18.629  25.056  0.00  0.00    +0.000 C 
ATOM     10  C   UNL     1      -2.293  17.381  24.431  0.00  0.00    +0.000 A 
ATOM     11  C   UNL     1      -3.456  16.759  25.068  0.00  0.00    +0.000 A 
ATOM     12  C   UNL     1      -3.985  15.650  24.526  0.00  0.00    +0.000 A 
ATOM     13  N   UNL     1      -3.412  15.115  23.376  0.00  0.00    +0.000 N 
ATOM     14  C   UNL     1      -3.795  14.028  22.642  0.00  0.00    +0.000 A 
ATOM     15  C   UNL     1      -2.902  13.936  21.588  0.00  0.00    +0.000 A 
ATOM     16  N   UNL     1      -1.961  14.955  21.684  0.00  0.00    +0.000 NA
ATOM     17  C   UNL     1      -2.298  15.656  22.749  0.00  0.00    +0.000 A 
ATOM     18  C   UNL     1      -1.742  16.837  23.321  0.00  0.00    +0.000 A 
ENDBRANCH   1  15
BRANCH   6  19
ATOM     19  C   UNL     1       1.119   9.601  18.967  0.00  0.00    +0.000 A 
ATOM     20  C   UNL     1       1.917   9.375  17.732  0.00  0.00    +0.000 A 
ATOM     21  N   UNL     1       2.674   8.364  17.457  0.00  0.00    +0.000 NA
ATOM     22  N   UNL     1       2.743   7.345  18.383  0.00  0.00    +0.000 N 
ATOM     23  C   UNL     1       2.075   7.391  19.614  0.00  0.00    +0.000 A 
ATOM     24  O   UNL     1       2.164   6.548  20.509  0.00  0.00    +0.000 OA
ATOM     25  C   UNL     1       1.232   8.599  19.853  0.00  0.00    +0.000 A 
ATOM     26 CL   UNL     1       0.354   8.604  21.353  0.00  0.00    +0.000 Cl
BRANCH  22  27
ATOM     27  C   UNL     1       3.604   6.251  18.021  0.00  0.00    +0.000 A 
ATOM     28  C   UNL     1       4.997   6.397  17.967  0.00  0.00    +0.000 A 
ATOM     29  C   UNL     1       5.828   5.362  17.532  0.00  0.00    +0.000 A 
ATOM     30  C   UNL     1       5.278   4.147  17.146  0.00  0.00    +0.000 A 
ATOM     31  C   UNL     1       3.900   3.958  17.232  0.00  0.00    +0.000 A 
ATOM     32  C   UNL     1       3.071   4.994  17.682  0.00  0.00    +0.000 A 
ENDBRANCH  22  27
ENDBRANCH   6  19
TORSDOF 3
ENDMDL
MODEL 9
REMARK VINA RESULT:      -7.3      4.212      5.895
REMARK  Name = 
REMARK  4 active torsions:
REMARK  status: ('A' for Active; 'I' for Inactive)
REMARK    1  A    between atoms: C_1  and  C_2
REMARK    2  A    between atoms: C_7  and  C_8
REMARK    3  A    between atoms: N_13  and  C_14
REMARK    4  A    between atoms: N_17  and  C_18
REMARK                            x       y       z     vdW  Elec       q    Type
REMARK                         _______ _______ _______ _____ _____    ______ ____
ROOT
ATOM      1  C   UNL     1       1.850   8.899  18.410  0.00  0.00    +0.000 C 
ATOM      2  O   UNL     1       2.235   9.291  17.308  0.00  0.00    +0.000 OA
ATOM      3  N   UNL     1       1.036   9.702  19.221  0.00  0.00    +0.000 N 
ATOM      4  C   UNL     1       0.622  10.997  18.669  0.00  0.00    +0.000 C 
ATOM      5  C   UNL     1      -0.624  11.575  19.373  0.00  0.00    +0.000 C 
ATOM      6  N   UNL     1      -0.430  11.594  20.835  0.00  0.00    +0.000 N 
ATOM      7  C   UNL     1      -0.054  10.277  21.395  0.00  0.00    +0.000 C 
ATOM      8  C   UNL     1       1.174   9.687  20.684  0.00  0.00    +0.000 C 
ENDROOT
BRANCH   1  15
ATOM      9  C   UNL     1       2.511   2.291  21.642  0.00  0.00    +0.000 C 
ATOM     10  C   UNL     1       2.664   3.458  20.712  0.00  0.00    +0.000 A 
ATOM     11  C   UNL     1       3.465   3.262  19.503  0.00  0.00    +0.000 A 
ATOM     12  C   UNL     1       3.610   4.280  18.639  0.00  0.00    +0.000 A 
ATOM     13  N   UNL     1       2.999   5.499  18.917  0.00  0.00    +0.000 N 
ATOM     14  C   UNL     1       2.981   6.649  18.178  0.00  0.00    +0.000 A 
ATOM     15  C   UNL     1       2.220   7.558  18.892  0.00  0.00    +0.000 A 
ATOM     16  N   UNL     1       1.784   6.975  20.076  0.00  0.00    +0.000 NA
ATOM     17  C   UNL     1       2.247   5.740  20.059  0.00  0.00    +0.000 A 
ATOM     18  C   UNL     1       2.088   4.656  20.971  0.00  0.00    +0.000 A 
ENDBRANCH   1  15
BRANCH   6  19
ATOM     19  C   UNL     1      -0.511  12.756  21.604  0.00  0.00    +0.000 A 
ATOM     20  C   UNL     1      -1.717  12.956  22.452  0.00  0.00    +0.000 A 
ATOM     21  N   UNL     1      -1.956  13.931  23.266  0.00  0.00    +0.000 NA
ATOM     22  N   UNL     1      -1.015  14.935  23.355  0.00  0.00    +0.000 N 
ATOM     23  C   UNL     1       0.193  14.909  22.647  0.00  0.00    +0.000 A 
ATOM     24  O   UNL     1       1.101  15.736  22.748  0.00  0.00    +0.000 OA
ATOM     25  C   UNL     1       0.391  13.741  21.738  0.00  0.00    +0.000 A 
ATOM     26 CL   UNL     1       1.862  13.763  20.813  0.00  0.00    +0.000 Cl
BRANCH  22  27
ATOM     27  C   UNL     1      -1.336  15.989  24.280  0.00  0.00    +0.000 A 
ATOM     28  C   UNL     1      -2.002  17.152  23.868  0.00  0.00    +0.000 A 
ATOM     29  C   UNL     1      -2.238  18.213  24.745  0.00  0.00    +0.000 A 
ATOM     30  C   UNL     1      -1.816  18.129  26.065  0.00  0.00    +0.000 A 
ATOM     31  C   UNL     1      -1.192  16.967  26.514  0.00  0.00    +0.000 A 
ATOM     32  C   UNL     1      -0.969  15.899  25.634  0.00  0.00    +0.000 A 
ENDBRANCH  22  27
ENDBRANCH   6  19
TORSDOF 3
ENDMDL
