MODEL 1
REMARK VINA RESULT:      -7.2      0.000      0.000
REMARK  Name = 
REMARK  2 active torsions:
REMARK  status: ('A' for Active; 'I' for Inactive)
REMARK    1  A    between atoms: C_2  and  C_12
REMARK    2  A    between atoms: N_3  and  C_4
REMARK                            x       y       z     vdW  Elec       q    Type
REMARK                         _______ _______ _______ _____ _____    ______ ____
ROOT
ATOM      1  O   UNL     1       5.633   5.007  18.833  0.00  0.00    +0.000 OA
ATOM      2  C   UNL     1       5.169   4.369  17.894  0.00  0.00    +0.000 C 
ATOM      3  N   UNL     1       4.036   3.574  17.957  0.00  0.00    +0.000 N 
ATOM      4  H   UNL     1       3.844   3.030  17.118  0.00  0.00    +0.000 HD
ENDROOT
BRANCH   3   5
ATOM      5  C   UNL     1       3.239   3.327  19.101  0.00  0.00    +0.000 A 
ATOM      6  C   UNL     1       3.750   2.703  20.247  0.00  0.00    +0.000 A 
ATOM      7  C   UNL     1       2.924   2.409  21.334  0.00  0.00    +0.000 A 
ATOM      8  C   UNL     1       1.581   2.748  21.285  0.00  0.00    +0.000 A 
ATOM      9  F   UNL     1       0.787   2.441  22.318  0.00  0.00    +0.000 F 
ATOM     10  C   UNL     1       1.051   3.402  20.181  0.00  0.00    +0.000 A 
ATOM     11  C   UNL     1       1.882   3.702  19.097  0.00  0.00    +0.000 A 
ATOM     12 CL   UNL     1       1.180   4.509  17.736  0.00  0.00    +0.000 Cl
ENDBRANCH   3   5
BRANCH   2  13
ATOM     13  C   UNL     1       5.830   4.357  16.575  0.00  0.00    +0.000 A 
ATOM     14  N   UNL     1       5.658   3.322  15.711  0.00  0.00    +0.000 NA
ATOM     15  N   UNL     1       6.384   3.686  14.630  0.00  0.00    +0.000 N 
ATOM     16  C   UNL     1       7.025   4.869  14.789  0.00  0.00    +0.000 A 
ATOM     17 CL   UNL     1       8.005   5.445  13.534  0.00  0.00    +0.000 Cl
ATOM     18  C   UNL     1       6.695   5.337  16.023  0.00  0.00    +0.000 A 
ATOM     19 BR   UNL     1       7.283   6.926  16.820  0.00  0.00    +0.000 Br
ATOM     20  H   UNL     1       6.402   3.077  13.818  0.00  0.00    +0.000 HD
ENDBRANCH   2  13
TORSDOF 2
ENDMDL
MODEL 2
REMARK VINA RESULT:      -7.1      1.224      1.492
REMARK  Name = 
REMARK  2 active torsions:
REMARK  status: ('A' for Active; 'I' for Inactive)
REMARK    1  A    between atoms: C_2  and  C_12
REMARK    2  A    between atoms: N_3  and  C_4
REMARK                            x       y       z     vdW  Elec       q    Type
REMARK                         _______ _______ _______ _____ _____    ______ ____
ROOT
ATOM      1  O   UNL     1       5.971   4.115  18.787  0.00  0.00    +0.000 OA
ATOM      2  C   UNL     1       5.296   4.105  17.765  0.00  0.00    +0.000 C 
ATOM      3  N   UNL     1       3.923   3.924  17.721  0.00  0.00    +0.000 N 
ATOM      4  H   UNL     1       3.528   3.839  16.786  0.00  0.00    +0.000 HD
ENDROOT
BRANCH   3   5
ATOM      5  C   UNL     1       3.067   3.685  18.824  0.00  0.00    +0.000 A 
ATOM      6  C   UNL     1       2.377   4.719  19.473  0.00  0.00    +0.000 A 
ATOM      7  C   UNL     1       1.595   4.463  20.600  0.00  0.00    +0.000 A 
ATOM      8  C   UNL     1       1.488   3.167  21.081  0.00  0.00    +0.000 A 
ATOM      9  F   UNL     1       0.758   2.930  22.177  0.00  0.00    +0.000 F 
ATOM     10  C   UNL     1       2.126   2.114  20.439  0.00  0.00    +0.000 A 
ATOM     11  C   UNL     1       2.904   2.372  19.306  0.00  0.00    +0.000 A 
ATOM     12 CL   UNL     1       3.690   1.034  18.540  0.00  0.00    +0.000 Cl
ENDBRANCH   3   5
BRANCH   2  13
ATOM     13  C   UNL     1       5.917   4.248  16.434  0.00  0.00    +0.000 A 
ATOM     14  N   UNL     1       5.745   3.304  15.471  0.00  0.00    +0.000 NA
ATOM     15  N   UNL     1       6.430   3.797  14.415  0.00  0.00    +0.000 N 
ATOM     16  C   UNL     1       7.046   4.975  14.680  0.00  0.00    +0.000 A 
ATOM     17 CL   UNL     1       7.975   5.704  13.466  0.00  0.00    +0.000 Cl
ATOM     18  C   UNL     1       6.741   5.304  15.965  0.00  0.00    +0.000 A 
ATOM     19 BR   UNL     1       7.315   6.817  16.907  0.00  0.00    +0.000 Br
ATOM     20  H   UNL     1       6.439   3.277  13.544  0.00  0.00    +0.000 HD
ENDBRANCH   2  13
TORSDOF 2
ENDMDL
MODEL 3
REMARK VINA RESULT:      -6.9      4.847      6.103
REMARK  Name = 
REMARK  2 active torsions:
REMARK  status: ('A' for Active; 'I' for Inactive)
REMARK    1  A    between atoms: C_2  and  C_12
REMARK    2  A    between atoms: N_3  and  C_4
REMARK                            x       y       z     vdW  Elec       q    Type
REMARK                         _______ _______ _______ _____ _____    ______ ____
ROOT
ATOM      1  O   UNL     1       2.610   6.829  20.128  0.00  0.00    +0.000 OA
ATOM      2  C   UNL     1       2.234   7.166  19.012  0.00  0.00    +0.000 C 
ATOM      3  N   UNL     1       2.153   6.326  17.914  0.00  0.00    +0.000 N 
ATOM      4  H   UNL     1       1.921   6.785  17.034  0.00  0.00    +0.000 HD
ENDROOT
BRANCH   3   5
ATOM      5  C   UNL     1       2.516   4.957  17.867  0.00  0.00    +0.000 A 
ATOM      6  C   UNL     1       1.621   3.934  18.210  0.00  0.00    +0.000 A 
ATOM      7  C   UNL     1       2.027   2.599  18.222  0.00  0.00    +0.000 A 
ATOM      8  C   UNL     1       3.331   2.276  17.880  0.00  0.00    +0.000 A 
ATOM      9  F   UNL     1       3.723   0.997  17.919  0.00  0.00    +0.000 F 
ATOM     10  C   UNL     1       4.232   3.261  17.498  0.00  0.00    +0.000 A 
ATOM     11  C   UNL     1       3.821   4.597  17.480  0.00  0.00    +0.000 A 
ATOM     12 CL   UNL     1       4.977   5.795  17.007  0.00  0.00    +0.000 Cl
ENDBRANCH   3   5
BRANCH   2  13
ATOM     13  C   UNL     1       1.862   8.563  18.718  0.00  0.00    +0.000 A 
ATOM     14  N   UNL     1       2.279   9.179  17.581  0.00  0.00    +0.000 NA
ATOM     15  N   UNL     1       1.723  10.408  17.661  0.00  0.00    +0.000 N 
ATOM     16  C   UNL     1       1.015  10.602  18.800  0.00  0.00    +0.000 A 
ATOM     17 CL   UNL     1       0.285  12.107  19.066  0.00  0.00    +0.000 Cl
ATOM     18  C   UNL     1       1.075   9.441  19.508  0.00  0.00    +0.000 A 
ATOM     19 BR   UNL     1       0.301   9.098  21.178  0.00  0.00    +0.000 Br
ATOM     20  H   UNL     1       1.869  11.069  16.905  0.00  0.00    +0.000 HD
ENDBRANCH   2  13
TORSDOF 2
ENDMDL
MODEL 4
REMARK VINA RESULT:      -6.9      3.949      6.975
REMARK  Name = 
REMARK  2 active torsions:
REMARK  status: ('A' for Active; 'I' for Inactive)
REMARK    1  A    between atoms: C_2  and  C_12
REMARK    2  A    between atoms: N_3  and  C_4
REMARK                            x       y       z     vdW  Elec       q    Type
REMARK                         _______ _______ _______ _____ _____    ______ ____
ROOT
ATOM      1  O   UNL     1       3.622   6.441  17.275  0.00  0.00    +0.000 OA
ATOM      2  C   UNL     1       3.895   5.361  17.787  0.00  0.00    +0.000 C 
ATOM      3  N   UNL     1       4.791   4.440  17.268  0.00  0.00    +0.000 N 
ATOM      4  H   UNL     1       4.826   3.549  17.760  0.00  0.00    +0.000 HD
ENDROOT
BRANCH   3   5
ATOM      5  C   UNL     1       5.516   4.555  16.057  0.00  0.00    +0.000 A 
ATOM      6  C   UNL     1       5.068   3.980  14.860  0.00  0.00    +0.000 A 
ATOM      7  C   UNL     1       5.837   4.050  13.698  0.00  0.00    +0.000 A 
ATOM      8  C   UNL     1       7.058   4.706  13.722  0.00  0.00    +0.000 A 
ATOM      9  F   UNL     1       7.804   4.748  12.612  0.00  0.00    +0.000 F 
ATOM     10  C   UNL     1       7.514   5.320  14.881  0.00  0.00    +0.000 A 
ATOM     11  C   UNL     1       6.738   5.255  16.042  0.00  0.00    +0.000 A 
ATOM     12 CL   UNL     1       7.346   6.025  17.468  0.00  0.00    +0.000 Cl
ENDBRANCH   3   5
BRANCH   2  13
ATOM     13  C   UNL     1       3.234   4.912  19.027  0.00  0.00    +0.000 A 
ATOM     14  N   UNL     1       3.215   5.695  20.138  0.00  0.00    +0.000 NA
ATOM     15  N   UNL     1       2.510   4.965  21.031  0.00  0.00    +0.000 N 
ATOM     16  C   UNL     1       2.122   3.759  20.548  0.00  0.00    +0.000 A 
ATOM     17 CL   UNL     1       1.259   2.711  21.561  0.00  0.00    +0.000 Cl
ATOM     18  C   UNL     1       2.563   3.684  19.263  0.00  0.00    +0.000 A 
ATOM     19 BR   UNL     1       2.346   2.250  18.079  0.00  0.00    +0.000 Br
ATOM     20  H   UNL     1       2.334   5.347  21.954  0.00  0.00    +0.000 HD
ENDBRANCH   2  13
TORSDOF 2
ENDMDL
MODEL 5
REMARK VINA RESULT:      -6.8      4.538      5.833
REMARK  Name = 
REMARK  2 active torsions:
REMARK  status: ('A' for Active; 'I' for Inactive)
REMARK    1  A    between atoms: C_2  and  C_12
REMARK    2  A    between atoms: N_3  and  C_4
REMARK                            x       y       z     vdW  Elec       q    Type
REMARK                         _______ _______ _______ _____ _____    ______ ____
ROOT
ATOM      1  O   UNL     1       4.092   7.160  17.916  0.00  0.00    +0.000 OA
ATOM      2  C   UNL     1       2.925   7.142  18.288  0.00  0.00    +0.000 C 
ATOM      3  N   UNL     1       2.218   6.001  18.631  0.00  0.00    +0.000 N 
ATOM      4  H   UNL     1       1.228   6.147  18.820  0.00  0.00    +0.000 HD
ENDROOT
BRANCH   3   5
ATOM      5  C   UNL     1       2.691   4.666  18.580  0.00  0.00    +0.000 A 
ATOM      6  C   UNL     1       3.123   4.071  17.387  0.00  0.00    +0.000 A 
ATOM      7  C   UNL     1       3.518   2.733  17.354  0.00  0.00    +0.000 A 
ATOM      8  C   UNL     1       3.494   1.982  18.519  0.00  0.00    +0.000 A 
ATOM      9  F   UNL     1       3.848   0.692  18.477  0.00  0.00    +0.000 F 
ATOM     10  C   UNL     1       3.108   2.551  19.726  0.00  0.00    +0.000 A 
ATOM     11  C   UNL     1       2.719   3.894  19.757  0.00  0.00    +0.000 A 
ATOM     12 CL   UNL     1       2.237   4.563  21.279  0.00  0.00    +0.000 Cl
ENDBRANCH   3   5
BRANCH   2  13
ATOM     13  C   UNL     1       2.126   8.379  18.367  0.00  0.00    +0.000 A 
ATOM     14  N   UNL     1       2.018   9.217  17.302  0.00  0.00    +0.000 NA
ATOM     15  N   UNL     1       1.203  10.198  17.748  0.00  0.00    +0.000 N 
ATOM     16  C   UNL     1       0.828  10.036  19.041  0.00  0.00    +0.000 A 
ATOM     17 CL   UNL     1      -0.167  11.203  19.758  0.00  0.00    +0.000 Cl
ATOM     18  C   UNL     1       1.396   8.879  19.477  0.00  0.00    +0.000 A 
ATOM     19 BR   UNL     1       1.256   8.129  21.187  0.00  0.00    +0.000 Br
ATOM     20  H   UNL     1       0.944  10.952  17.120  0.00  0.00    +0.000 HD
ENDBRANCH   2  13
TORSDOF 2
ENDMDL
MODEL 6
REMARK VINA RESULT:      -6.8      3.838      6.947
REMARK  Name = 
REMARK  2 active torsions:
REMARK  status: ('A' for Active; 'I' for Inactive)
REMARK    1  A    between atoms: C_2  and  C_12
REMARK    2  A    between atoms: N_3  and  C_4
REMARK                            x       y       z     vdW  Elec       q    Type
REMARK                         _______ _______ _______ _____ _____    ______ ____
ROOT
ATOM      1  O   UNL     1       3.759   5.436  17.209  0.00  0.00    +0.000 OA
ATOM      2  C   UNL     1       4.060   4.267  17.420  0.00  0.00    +0.000 C 
ATOM      3  N   UNL     1       4.997   3.545  16.699  0.00  0.00    +0.000 N 
ATOM      4  H   UNL     1       5.054   2.556  16.935  0.00  0.00    +0.000 HD
ENDROOT
BRANCH   3   5
ATOM      5  C   UNL     1       5.739   4.002  15.582  0.00  0.00    +0.000 A 
ATOM      6  C   UNL     1       5.393   3.664  14.266  0.00  0.00    +0.000 A 
ATOM      7  C   UNL     1       6.183   4.071  13.190  0.00  0.00    +0.000 A 
ATOM      8  C   UNL     1       7.320   4.828  13.421  0.00  0.00    +0.000 A 
ATOM      9  F   UNL     1       8.089   5.193  12.388  0.00  0.00    +0.000 F 
ATOM     10  C   UNL     1       7.670   5.213  14.709  0.00  0.00    +0.000 A 
ATOM     11  C   UNL     1       6.874   4.810  15.785  0.00  0.00    +0.000 A 
ATOM     12 CL   UNL     1       7.349   5.303  17.375  0.00  0.00    +0.000 Cl
ENDBRANCH   3   5
BRANCH   2  13
ATOM     13  C   UNL     1       3.393   3.484  18.477  0.00  0.00    +0.000 A 
ATOM     14  N   UNL     1       3.412   2.124  18.465  0.00  0.00    +0.000 NA
ATOM     15  N   UNL     1       2.735   1.785  19.584  0.00  0.00    +0.000 N 
ATOM     16  C   UNL     1       2.265   2.856  20.271  0.00  0.00    +0.000 A 
ATOM     17 CL   UNL     1       1.363   2.594  21.680  0.00  0.00    +0.000 Cl
ATOM     18  C   UNL     1       2.668   3.967  19.597  0.00  0.00    +0.000 A 
ATOM     19 BR   UNL     1       2.312   5.749  20.049  0.00  0.00    +0.000 Br
ATOM     20  H   UNL     1       2.625   0.804  19.819  0.00  0.00    +0.000 HD
ENDBRANCH   2  13
TORSDOF 2
ENDMDL
MODEL 7
REMARK VINA RESULT:      -6.8      4.791      5.931
REMARK  Name = 
REMARK  2 active torsions:
REMARK  status: ('A' for Active; 'I' for Inactive)
REMARK    1  A    between atoms: C_2  and  C_12
REMARK    2  A    between atoms: N_3  and  C_4
REMARK                            x       y       z     vdW  Elec       q    Type
REMARK                         _______ _______ _______ _____ _____    ______ ____
ROOT
ATOM      1  O   UNL     1       1.601   5.129  18.365  0.00  0.00    +0.000 OA
ATOM      2  C   UNL     1       2.499   5.243  19.191  0.00  0.00    +0.000 C 
ATOM      3  N   UNL     1       2.723   6.367  19.970  0.00  0.00    +0.000 N 
ATOM      4  H   UNL     1       3.573   6.341  20.531  0.00  0.00    +0.000 HD
ENDROOT
BRANCH   3   5
ATOM      5  C   UNL     1       1.994   7.581  19.932  0.00  0.00    +0.000 A 
ATOM      6  C   UNL     1       1.167   7.989  20.988  0.00  0.00    +0.000 A 
ATOM      7  C   UNL     1       0.407   9.155  20.895  0.00  0.00    +0.000 A 
ATOM      8  C   UNL     1       0.476   9.929  19.747  0.00  0.00    +0.000 A 
ATOM      9  F   UNL     1      -0.276  11.032  19.651  0.00  0.00    +0.000 F 
ATOM     10  C   UNL     1       1.314   9.574  18.698  0.00  0.00    +0.000 A 
ATOM     11  C   UNL     1       2.080   8.409  18.797  0.00  0.00    +0.000 A 
ATOM     12 CL   UNL     1       3.105   7.997  17.464  0.00  0.00    +0.000 Cl
ENDBRANCH   3   5
BRANCH   2  13
ATOM     13  C   UNL     1       3.486   4.168  19.404  0.00  0.00    +0.000 A 
ATOM     14  N   UNL     1       4.641   4.120  18.689  0.00  0.00    +0.000 NA
ATOM     15  N   UNL     1       5.276   3.032  19.181  0.00  0.00    +0.000 N 
ATOM     16  C   UNL     1       4.564   2.382  20.134  0.00  0.00    +0.000 A 
ATOM     17 CL   UNL     1       5.210   0.977  20.824  0.00  0.00    +0.000 Cl
ATOM     18  C   UNL     1       3.408   3.079  20.311  0.00  0.00    +0.000 A 
ATOM     19 BR   UNL     1       2.011   2.664  21.487  0.00  0.00    +0.000 Br
ATOM     20  H   UNL     1       6.191   2.787  18.819  0.00  0.00    +0.000 HD
ENDBRANCH   2  13
TORSDOF 2
ENDMDL
MODEL 8
REMARK VINA RESULT:      -6.7      2.012      2.108
REMARK  Name = 
REMARK  2 active torsions:
REMARK  status: ('A' for Active; 'I' for Inactive)
REMARK    1  A    between atoms: C_2  and  C_12
REMARK    2  A    between atoms: N_3  and  C_4
REMARK                            x       y       z     vdW  Elec       q    Type
REMARK                         _______ _______ _______ _____ _____    ______ ____
ROOT
ATOM      1  O   UNL     1       6.220   4.522  19.559  0.00  0.00    +0.000 OA
ATOM      2  C   UNL     1       5.628   4.729  18.506  0.00  0.00    +0.000 C 
ATOM      3  N   UNL     1       4.267   4.559  18.314  0.00  0.00    +0.000 N 
ATOM      4  H   UNL     1       3.949   4.674  17.353  0.00  0.00    +0.000 HD
ENDROOT
BRANCH   3   5
ATOM      5  C   UNL     1       3.330   4.090  19.267  0.00  0.00    +0.000 A 
ATOM      6  C   UNL     1       2.778   4.927  20.247  0.00  0.00    +0.000 A 
ATOM      7  C   UNL     1       1.910   4.421  21.217  0.00  0.00    +0.000 A 
ATOM      8  C   UNL     1       1.580   3.075  21.206  0.00  0.00    +0.000 A 
ATOM      9  F   UNL     1       0.769   2.590  22.154  0.00  0.00    +0.000 F 
ATOM     10  C   UNL     1       2.078   2.227  20.227  0.00  0.00    +0.000 A 
ATOM     11  C   UNL     1       2.941   2.737  19.252  0.00  0.00    +0.000 A 
ATOM     12 CL   UNL     1       3.548   1.644  18.054  0.00  0.00    +0.000 Cl
ENDBRANCH   3   5
BRANCH   2  13
ATOM     13  C   UNL     1       6.350   5.152  17.292  0.00  0.00    +0.000 A 
ATOM     14  N   UNL     1       7.218   6.198  17.317  0.00  0.00    +0.000 NA
ATOM     15  N   UNL     1       7.686   6.255  16.050  0.00  0.00    +0.000 N 
ATOM     16  C   UNL     1       7.131   5.327  15.232  0.00  0.00    +0.000 A 
ATOM     17 CL   UNL     1       7.589   5.293  13.602  0.00  0.00    +0.000 Cl
ATOM     18  C   UNL     1       6.269   4.595  15.989  0.00  0.00    +0.000 A 
ATOM     19 BR   UNL     1       5.193   3.174  15.415  0.00  0.00    +0.000 Br
ATOM     20  H   UNL     1       8.381   6.954  15.809  0.00  0.00    +0.000 HD
ENDBRANCH   2  13
TORSDOF 2
ENDMDL
MODEL 9
REMARK VINA RESULT:      -6.7      3.954      7.040
REMARK  Name = 
REMARK  2 active torsions:
REMARK  status: ('A' for Active; 'I' for Inactive)
REMARK    1  A    between atoms: C_2  and  C_12
REMARK    2  A    between atoms: N_3  and  C_4
REMARK                            x       y       z     vdW  Elec       q    Type
REMARK                         _______ _______ _______ _____ _____    ______ ____
ROOT
ATOM      1  O   UNL     1       4.055   5.452  17.081  0.00  0.00    +0.000 OA
ATOM      2  C   UNL     1       4.529   4.370  17.408  0.00  0.00    +0.000 C 
ATOM      3  N   UNL     1       5.440   3.644  16.658  0.00  0.00    +0.000 N 
ATOM      4  H   UNL     1       5.655   2.716  17.021  0.00  0.00    +0.000 HD
ENDROOT
BRANCH   3   5
ATOM      5  C   UNL     1       5.955   3.990  15.386  0.00  0.00    +0.000 A 
ATOM      6  C   UNL     1       5.546   3.343  14.212  0.00  0.00    +0.000 A 
ATOM      7  C   UNL     1       6.122   3.658  12.980  0.00  0.00    +0.000 A 
ATOM      8  C   UNL     1       7.106   4.632  12.912  0.00  0.00    +0.000 A 
ATOM      9  F   UNL     1       7.675   4.912  11.733  0.00  0.00    +0.000 F 
ATOM     10  C   UNL     1       7.508   5.320  14.050  0.00  0.00    +0.000 A 
ATOM     11  C   UNL     1       6.924   5.007  15.282  0.00  0.00    +0.000 A 
ATOM     12 CL   UNL     1       7.458   5.881  16.677  0.00  0.00    +0.000 Cl
ENDBRANCH   3   5
BRANCH   2  13
ATOM     13  C   UNL     1       4.120   3.701  18.657  0.00  0.00    +0.000 A 
ATOM     14  N   UNL     1       5.042   3.204  19.524  0.00  0.00    +0.000 NA
ATOM     15  N   UNL     1       4.294   2.705  20.533  0.00  0.00    +0.000 N 
ATOM     16  C   UNL     1       2.961   2.831  20.324  0.00  0.00    +0.000 A 
ATOM     17 CL   UNL     1       1.889   2.220  21.485  0.00  0.00    +0.000 Cl
ATOM     18  C   UNL     1       2.804   3.467  19.132  0.00  0.00    +0.000 A 
ATOM     19 BR   UNL     1       1.188   3.912  18.297  0.00  0.00    +0.000 Br
ATOM     20  H   UNL     1       4.757   2.288  21.334  0.00  0.00    +0.000 HD
ENDBRANCH   2  13
TORSDOF 2
ENDMDL
