MODEL 1
REMARK VINA RESULT:      -7.3      0.000      0.000
REMARK  Name = 
REMARK  11 active torsions:
REMARK  status: ('A' for Active; 'I' for Inactive)
REMARK    1  A    between atoms: C_1  and  C_2
REMARK    2  A    between atoms: C_5  and  N_6
REMARK    3  A    between atoms: N_6  and  C_18
REMARK    4  A    between atoms: C_7  and  C_9
REMARK    5  A    between atoms: C_9  and  N_10
REMARK    6  A    between atoms: C_11  and  C_13
REMARK    7  A    between atoms: C_18  and  C_19
REMARK    8  A    between atoms: C_18  and  C_28
REMARK    9  A    between atoms: N_21  and  C_22
REMARK   10  A    between atoms: C_22  and  C_23
REMARK   11  A    between atoms: C_35  and  C_36
REMARK                            x       y       z     vdW  Elec       q    Type
REMARK                         _______ _______ _______ _____ _____    ______ ____
ROOT
ATOM      1  N   UNL     1       0.369  11.054  19.644  0.00  0.00    +0.000 N 
ATOM      2  C   UNL     1      -0.858  11.166  18.971  0.00  0.00    +0.000 C 
ATOM      3  O   UNL     1      -1.248  10.326  18.148  0.00  0.00    +0.000 OA
ENDROOT
BRANCH   1   8
ATOM      4  C   UNL     1       2.907   6.124  18.019  0.00  0.00    +0.000 C 
ATOM      5  C   UNL     1       2.375   7.444  18.505  0.00  0.00    +0.000 A 
ATOM      6  C   UNL     1       2.423   8.574  17.679  0.00  0.00    +0.000 A 
ATOM      7  C   UNL     1       1.836   9.799  18.074  0.00  0.00    +0.000 A 
ATOM      8  C   UNL     1       1.166   9.893  19.300  0.00  0.00    +0.000 A 
ATOM      9  C   UNL     1       1.161   8.775  20.142  0.00  0.00    +0.000 A 
ATOM     10  C   UNL     1       1.794   7.570  19.780  0.00  0.00    +0.000 A 
ATOM     11  C   UNL     1       1.825   6.430  20.758  0.00  0.00    +0.000 C 
ENDBRANCH   1   8
BRANCH   2  12
ATOM     12  C   UNL     1      -1.792  12.343  19.262  0.00  0.00    +0.000 C 
BRANCH  12  13
ATOM     13  N   UNL     1      -3.182  11.999  19.421  0.00  0.00    +0.000 N 
ATOM     14  C   UNL     1      -4.018  12.861  20.091  0.00  0.00    +0.000 C 
ATOM     15  O   UNL     1      -3.638  13.980  20.440  0.00  0.00    +0.000 OA
ATOM     16  H   UNL     1      -3.519  11.078  19.165  0.00  0.00    +0.000 HD
BRANCH  14  17
ATOM     17  C   UNL     1      -5.331  12.360  20.384  0.00  0.00    +0.000 A 
ATOM     18  C   UNL     1      -6.144  12.593  21.473  0.00  0.00    +0.000 A 
ATOM     19  C   UNL     1      -7.304  11.811  21.277  0.00  0.00    +0.000 A 
ATOM     20  C   UNL     1      -7.120  11.143  20.090  0.00  0.00    +0.000 A 
ATOM     21  O   UNL     1      -5.924  11.471  19.534  0.00  0.00    +0.000 OA
ENDBRANCH  14  17
ENDBRANCH  12  13
ENDBRANCH   2  12
BRANCH   1  22
ATOM     22  C   UNL     1       0.907  11.896  20.797  0.00  0.00    +0.000 C 
BRANCH  22  23
ATOM     23  C   UNL     1      -0.127  12.192  21.914  0.00  0.00    +0.000 A 
ATOM     24  C   UNL     1      -0.893  11.138  22.449  0.00  0.00    +0.000 A 
ATOM     25  C   UNL     1      -2.036  11.403  23.216  0.00  0.00    +0.000 A 
ATOM     26  C   UNL     1      -2.427  12.716  23.472  0.00  0.00    +0.000 A 
ATOM     27  C   UNL     1      -1.636  13.768  23.026  0.00  0.00    +0.000 A 
ATOM     28  C   UNL     1      -0.474  13.510  22.291  0.00  0.00    +0.000 A 
ENDBRANCH  22  23
BRANCH  22  29
ATOM     29  C   UNL     1       1.731  13.153  20.364  0.00  0.00    +0.000 C 
ATOM     30  O   UNL     1       2.672  13.560  21.050  0.00  0.00    +0.000 OA
ATOM     31  N   UNL     1       1.301  13.853  19.256  0.00  0.00    +0.000 N 
ATOM     32  H   UNL     1       0.343  13.717  18.934  0.00  0.00    +0.000 HD
BRANCH  31  33
ATOM     33  C   UNL     1       1.915  15.108  18.834  0.00  0.00    +0.000 C 
BRANCH  33  34
ATOM     34  C   UNL     1       1.019  16.318  19.125  0.00  0.00    +0.000 C 
ATOM     35  C   UNL     1      -0.436  15.927  19.350  0.00  0.00    +0.000 C 
ATOM     36  C   UNL     1      -1.174  17.147  18.869  0.00  0.00    +0.000 C 
ATOM     37  C   UNL     1      -0.325  17.579  17.695  0.00  0.00    +0.000 C 
ATOM     38  O   UNL     1       1.031  17.244  18.020  0.00  0.00    +0.000 OA
ENDBRANCH  33  34
ENDBRANCH  31  33
ENDBRANCH  22  29
ENDBRANCH   1  22
TORSDOF 9
ENDMDL
MODEL 2
REMARK VINA RESULT:      -7.3      2.407      7.480
REMARK  Name = 
REMARK  11 active torsions:
REMARK  status: ('A' for Active; 'I' for Inactive)
REMARK    1  A    between atoms: C_1  and  C_2
REMARK    2  A    between atoms: C_5  and  N_6
REMARK    3  A    between atoms: N_6  and  C_18
REMARK    4  A    between atoms: C_7  and  C_9
REMARK    5  A    between atoms: C_9  and  N_10
REMARK    6  A    between atoms: C_11  and  C_13
REMARK    7  A    between atoms: C_18  and  C_19
REMARK    8  A    between atoms: C_18  and  C_28
REMARK    9  A    between atoms: N_21  and  C_22
REMARK   10  A    between atoms: C_22  and  C_23
REMARK   11  A    between atoms: C_35  and  C_36
REMARK                            x       y       z     vdW  Elec       q    Type
REMARK                         _______ _______ _______ _____ _____    ______ ____
ROOT
ATOM      1  N   UNL     1       0.368  10.634  20.559  0.00  0.00    +0.000 N 
ATOM      2  C   UNL     1       0.988   9.468  21.036  0.00  0.00    +0.000 C 
ATOM      3  O   UNL     1       0.983   9.151  22.234  0.00  0.00    +0.000 OA
ENDROOT
BRANCH   1   8
ATOM      4  C   UNL     1      -2.609  14.179  24.017  0.00  0.00    +0.000 C 
ATOM      5  C   UNL     1      -1.745  13.232  23.232  0.00  0.00    +0.000 A 
ATOM      6  C   UNL     1      -2.069  11.871  23.159  0.00  0.00    +0.000 A 
ATOM      7  C   UNL     1      -1.331  10.981  22.343  0.00  0.00    +0.000 A 
ATOM      8  C   UNL     1      -0.269  11.459  21.565  0.00  0.00    +0.000 A 
ATOM      9  C   UNL     1       0.080  12.810  21.677  0.00  0.00    +0.000 A 
ATOM     10  C   UNL     1      -0.613  13.689  22.532  0.00  0.00    +0.000 A 
ATOM     11  C   UNL     1      -0.142  15.109  22.671  0.00  0.00    +0.000 C 
ENDBRANCH   1   8
BRANCH   2  12
ATOM     12  C   UNL     1       1.682   8.512  20.064  0.00  0.00    +0.000 C 
BRANCH  12  13
ATOM     13  N   UNL     1       1.814   7.154  20.527  0.00  0.00    +0.000 N 
ATOM     14  C   UNL     1       2.292   6.191  19.670  0.00  0.00    +0.000 C 
ATOM     15  O   UNL     1       2.737   6.487  18.559  0.00  0.00    +0.000 OA
ATOM     16  H   UNL     1       1.437   6.876  21.426  0.00  0.00    +0.000 HD
BRANCH  14  17
ATOM     17  C   UNL     1       2.204   4.836  20.136  0.00  0.00    +0.000 A 
ATOM     18  C   UNL     1       1.119   4.138  20.623  0.00  0.00    +0.000 A 
ATOM     19  C   UNL     1       1.601   2.860  20.986  0.00  0.00    +0.000 A 
ATOM     20  C   UNL     1       2.947   2.865  20.709  0.00  0.00    +0.000 A 
ATOM     21  O   UNL     1       3.327   4.061  20.188  0.00  0.00    +0.000 OA
ENDBRANCH  14  17
ENDBRANCH  12  13
ENDBRANCH   2  12
BRANCH   1  22
ATOM     22  C   UNL     1       0.137  11.071  19.115  0.00  0.00    +0.000 C 
BRANCH  22  23
ATOM     23  C   UNL     1       0.625  12.507  18.792  0.00  0.00    +0.000 A 
ATOM     24  C   UNL     1       1.996  12.813  18.890  0.00  0.00    +0.000 A 
ATOM     25  C   UNL     1       2.431  14.146  18.916  0.00  0.00    +0.000 A 
ATOM     26  C   UNL     1       1.512  15.191  18.834  0.00  0.00    +0.000 A 
ATOM     27  C   UNL     1       0.163  14.908  18.651  0.00  0.00    +0.000 A 
ATOM     28  C   UNL     1      -0.273  13.580  18.587  0.00  0.00    +0.000 A 
ENDBRANCH  22  23
BRANCH  22  29
ATOM     29  C   UNL     1      -1.288  10.757  18.553  0.00  0.00    +0.000 C 
ATOM     30  O   UNL     1      -1.442   9.946  17.637  0.00  0.00    +0.000 OA
ATOM     31  N   UNL     1      -2.346  11.499  19.035  0.00  0.00    +0.000 N 
ATOM     32  H   UNL     1      -2.150  12.382  19.505  0.00  0.00    +0.000 HD
BRANCH  31  33
ATOM     33  C   UNL     1      -3.698  11.381  18.495  0.00  0.00    +0.000 C 
BRANCH  33  34
ATOM     34  C   UNL     1      -4.666  12.382  19.135  0.00  0.00    +0.000 C 
ATOM     35  C   UNL     1      -4.073  13.070  20.357  0.00  0.00    +0.000 C 
ATOM     36  C   UNL     1      -5.293  13.351  21.192  0.00  0.00    +0.000 C 
ATOM     37  C   UNL     1      -6.137  12.124  20.928  0.00  0.00    +0.000 C 
ATOM     38  O   UNL     1      -5.870  11.722  19.577  0.00  0.00    +0.000 OA
ENDBRANCH  33  34
ENDBRANCH  31  33
ENDBRANCH  22  29
ENDBRANCH   1  22
TORSDOF 9
ENDMDL
MODEL 3
REMARK VINA RESULT:      -7.2      1.417      1.752
REMARK  Name = 
REMARK  11 active torsions:
REMARK  status: ('A' for Active; 'I' for Inactive)
REMARK    1  A    between atoms: C_1  and  C_2
REMARK    2  A    between atoms: C_5  and  N_6
REMARK    3  A    between atoms: N_6  and  C_18
REMARK    4  A    between atoms: C_7  and  C_9
REMARK    5  A    between atoms: C_9  and  N_10
REMARK    6  A    between atoms: C_11  and  C_13
REMARK    7  A    between atoms: C_18  and  C_19
REMARK    8  A    between atoms: C_18  and  C_28
REMARK    9  A    between atoms: N_21  and  C_22
REMARK   10  A    between atoms: C_22  and  C_23
REMARK   11  A    between atoms: C_35  and  C_36
REMARK                            x       y       z     vdW  Elec       q    Type
REMARK                         _______ _______ _______ _____ _____    ______ ____
ROOT
ATOM      1  N   UNL     1       0.581  10.822  19.232  0.00  0.00    +0.000 N 
ATOM      2  C   UNL     1      -0.636  10.880  18.533  0.00  0.00    +0.000 C 
ATOM      3  O   UNL     1      -1.025   9.966  17.792  0.00  0.00    +0.000 OA
ENDROOT
BRANCH   1   8
ATOM      4  C   UNL     1       3.087   5.740  18.104  0.00  0.00    +0.000 C 
ATOM      5  C   UNL     1       2.560   7.101  18.465  0.00  0.00    +0.000 A 
ATOM      6  C   UNL     1       2.690   8.171  17.572  0.00  0.00    +0.000 A 
ATOM      7  C   UNL     1       2.111   9.433  17.846  0.00  0.00    +0.000 A 
ATOM      8  C   UNL     1       1.368   9.624  19.017  0.00  0.00    +0.000 A 
ATOM      9  C   UNL     1       1.280   8.566  19.929  0.00  0.00    +0.000 A 
ATOM     10  C   UNL     1       1.903   7.325  19.689  0.00  0.00    +0.000 A 
ATOM     11  C   UNL     1       1.842   6.253  20.740  0.00  0.00    +0.000 C 
ENDBRANCH   1   8
BRANCH   2  12
ATOM     12  C   UNL     1      -1.558  12.091  18.690  0.00  0.00    +0.000 C 
BRANCH  12  13
ATOM     13  N   UNL     1      -2.851  11.808  19.261  0.00  0.00    +0.000 N 
ATOM     14  C   UNL     1      -3.942  11.688  18.434  0.00  0.00    +0.000 C 
ATOM     15  O   UNL     1      -3.819  11.680  17.207  0.00  0.00    +0.000 OA
ATOM     16  H   UNL     1      -2.987  11.831  20.265  0.00  0.00    +0.000 HD
BRANCH  14  17
ATOM     17  C   UNL     1      -5.218  11.610  19.087  0.00  0.00    +0.000 A 
ATOM     18  C   UNL     1      -6.298  10.793  18.824  0.00  0.00    +0.000 A 
ATOM     19  C   UNL     1      -7.311  11.168  19.734  0.00  0.00    +0.000 A 
ATOM     20  C   UNL     1      -6.790  12.196  20.484  0.00  0.00    +0.000 A 
ATOM     21  O   UNL     1      -5.516  12.473  20.103  0.00  0.00    +0.000 OA
ENDBRANCH  14  17
ENDBRANCH  12  13
ENDBRANCH   2  12
BRANCH   1  22
ATOM     22  C   UNL     1       1.114  11.771  20.301  0.00  0.00    +0.000 C 
BRANCH  22  23
ATOM     23  C   UNL     1       0.133  12.036  21.472  0.00  0.00    +0.000 A 
ATOM     24  C   UNL     1      -0.400  10.949  22.193  0.00  0.00    +0.000 A 
ATOM     25  C   UNL     1      -1.509  11.122  23.031  0.00  0.00    +0.000 A 
ATOM     26  C   UNL     1      -2.098  12.377  23.174  0.00  0.00    +0.000 A 
ATOM     27  C   UNL     1      -1.534  13.478  22.539  0.00  0.00    +0.000 A 
ATOM     28  C   UNL     1      -0.405  13.318  21.730  0.00  0.00    +0.000 A 
ENDBRANCH  22  23
BRANCH  22  29
ATOM     29  C   UNL     1       1.791  13.069  19.751  0.00  0.00    +0.000 C 
ATOM     30  O   UNL     1       1.486  13.522  18.646  0.00  0.00    +0.000 OA
ATOM     31  N   UNL     1       2.818  13.620  20.490  0.00  0.00    +0.000 N 
ATOM     32  H   UNL     1       3.282  13.041  21.189  0.00  0.00    +0.000 HD
BRANCH  31  33
ATOM     33  C   UNL     1       3.605  14.754  20.015  0.00  0.00    +0.000 C 
BRANCH  33  34
ATOM     34  C   UNL     1       3.085  16.088  20.561  0.00  0.00    +0.000 C 
ATOM     35  C   UNL     1       2.447  15.949  21.938  0.00  0.00    +0.000 C 
ATOM     36  C   UNL     1       1.420  17.048  21.929  0.00  0.00    +0.000 C 
ATOM     37  C   UNL     1       0.945  17.016  20.493  0.00  0.00    +0.000 C 
ATOM     38  O   UNL     1       2.075  16.641  19.693  0.00  0.00    +0.000 OA
ENDBRANCH  33  34
ENDBRANCH  31  33
ENDBRANCH  22  29
ENDBRANCH   1  22
TORSDOF 9
ENDMDL
MODEL 4
REMARK VINA RESULT:      -7.1      1.519      1.910
REMARK  Name = 
REMARK  11 active torsions:
REMARK  status: ('A' for Active; 'I' for Inactive)
REMARK    1  A    between atoms: C_1  and  C_2
REMARK    2  A    between atoms: C_5  and  N_6
REMARK    3  A    between atoms: N_6  and  C_18
REMARK    4  A    between atoms: C_7  and  C_9
REMARK    5  A    between atoms: C_9  and  N_10
REMARK    6  A    between atoms: C_11  and  C_13
REMARK    7  A    between atoms: C_18  and  C_19
REMARK    8  A    between atoms: C_18  and  C_28
REMARK    9  A    between atoms: N_21  and  C_22
REMARK   10  A    between atoms: C_22  and  C_23
REMARK   11  A    between atoms: C_35  and  C_36
REMARK                            x       y       z     vdW  Elec       q    Type
REMARK                         _______ _______ _______ _____ _____    ______ ____
ROOT
ATOM      1  N   UNL     1       0.526  10.742  18.982  0.00  0.00    +0.000 N 
ATOM      2  C   UNL     1      -0.650  10.722  18.215  0.00  0.00    +0.000 C 
ATOM      3  O   UNL     1      -0.967   9.757  17.504  0.00  0.00    +0.000 OA
ENDROOT
BRANCH   1   8
ATOM      4  C   UNL     1       3.251   5.697  18.270  0.00  0.00    +0.000 C 
ATOM      5  C   UNL     1       2.662   7.056  18.528  0.00  0.00    +0.000 A 
ATOM      6  C   UNL     1       2.807   8.082  17.586  0.00  0.00    +0.000 A 
ATOM      7  C   UNL     1       2.174   9.335  17.759  0.00  0.00    +0.000 A 
ATOM      8  C   UNL     1       1.361   9.562  18.876  0.00  0.00    +0.000 A 
ATOM      9  C   UNL     1       1.256   8.551  19.838  0.00  0.00    +0.000 A 
ATOM     10  C   UNL     1       1.931   7.322  19.701  0.00  0.00    +0.000 A 
ATOM     11  C   UNL     1       1.846   6.306  20.804  0.00  0.00    +0.000 C 
ENDBRANCH   1   8
BRANCH   2  12
ATOM     12  C   UNL     1      -1.618  11.906  18.256  0.00  0.00    +0.000 C 
BRANCH  12  13
ATOM     13  N   UNL     1      -2.913  11.622  18.818  0.00  0.00    +0.000 N 
ATOM     14  C   UNL     1      -4.010  11.567  17.992  0.00  0.00    +0.000 C 
ATOM     15  O   UNL     1      -3.892  11.619  16.766  0.00  0.00    +0.000 OA
ATOM     16  H   UNL     1      -3.045  11.596  19.823  0.00  0.00    +0.000 HD
BRANCH  14  17
ATOM     17  C   UNL     1      -5.285  11.482  18.647  0.00  0.00    +0.000 A 
ATOM     18  C   UNL     1      -5.993  12.447  19.332  0.00  0.00    +0.000 A 
ATOM     19  C   UNL     1      -7.160  11.814  19.817  0.00  0.00    +0.000 A 
ATOM     20  C   UNL     1      -7.082  10.504  19.408  0.00  0.00    +0.000 A 
ATOM     21  O   UNL     1      -5.948  10.288  18.692  0.00  0.00    +0.000 OA
ENDBRANCH  14  17
ENDBRANCH  12  13
ENDBRANCH   2  12
BRANCH   1  22
ATOM     22  C   UNL     1       0.967  11.762  20.028  0.00  0.00    +0.000 C 
BRANCH  22  23
ATOM     23  C   UNL     1      -0.125  12.133  21.064  0.00  0.00    +0.000 A 
ATOM     24  C   UNL     1      -0.417  13.489  21.311  0.00  0.00    +0.000 A 
ATOM     25  C   UNL     1      -1.153  13.867  22.442  0.00  0.00    +0.000 A 
ATOM     26  C   UNL     1      -1.617  12.904  23.337  0.00  0.00    +0.000 A 
ATOM     27  C   UNL     1      -1.413  11.556  23.066  0.00  0.00    +0.000 A 
ATOM     28  C   UNL     1      -0.711  11.171  21.919  0.00  0.00    +0.000 A 
ENDBRANCH  22  23
BRANCH  22  29
ATOM     29  C   UNL     1       1.729  13.002  19.456  0.00  0.00    +0.000 C 
ATOM     30  O   UNL     1       1.490  13.425  18.322  0.00  0.00    +0.000 OA
ATOM     31  N   UNL     1       2.753  13.531  20.213  0.00  0.00    +0.000 N 
ATOM     32  H   UNL     1       3.161  12.959  20.953  0.00  0.00    +0.000 HD
BRANCH  31  33
ATOM     33  C   UNL     1       3.614  14.606  19.728  0.00  0.00    +0.000 C 
BRANCH  33  34
ATOM     34  C   UNL     1       3.131  15.986  20.186  0.00  0.00    +0.000 C 
ATOM     35  C   UNL     1       2.418  15.941  21.531  0.00  0.00    +0.000 C 
ATOM     36  C   UNL     1       1.446  17.084  21.419  0.00  0.00    +0.000 C 
ATOM     37  C   UNL     1       1.044  17.006  19.963  0.00  0.00    +0.000 C 
ATOM     38  O   UNL     1       2.194  16.543  19.241  0.00  0.00    +0.000 OA
ENDBRANCH  33  34
ENDBRANCH  31  33
ENDBRANCH  22  29
ENDBRANCH   1  22
TORSDOF 9
ENDMDL
MODEL 5
REMARK VINA RESULT:      -7.1      2.361      6.734
REMARK  Name = 
REMARK  11 active torsions:
REMARK  status: ('A' for Active; 'I' for Inactive)
REMARK    1  A    between atoms: C_1  and  C_2
REMARK    2  A    between atoms: C_5  and  N_6
REMARK    3  A    between atoms: N_6  and  C_18
REMARK    4  A    between atoms: C_7  and  C_9
REMARK    5  A    between atoms: C_9  and  N_10
REMARK    6  A    between atoms: C_11  and  C_13
REMARK    7  A    between atoms: C_18  and  C_19
REMARK    8  A    between atoms: C_18  and  C_28
REMARK    9  A    between atoms: N_21  and  C_22
REMARK   10  A    between atoms: C_22  and  C_23
REMARK   11  A    between atoms: C_35  and  C_36
REMARK                            x       y       z     vdW  Elec       q    Type
REMARK                         _______ _______ _______ _____ _____    ______ ____
ROOT
ATOM      1  N   UNL     1       0.221  11.332  18.965  0.00  0.00    +0.000 N 
ATOM      2  C   UNL     1       0.790  12.513  18.459  0.00  0.00    +0.000 C 
ATOM      3  O   UNL     1       0.144  13.334  17.794  0.00  0.00    +0.000 OA
ENDROOT
BRANCH   1   8
ATOM      4  C   UNL     1      -5.288  11.112  17.238  0.00  0.00    +0.000 C 
ATOM      5  C   UNL     1      -3.888  11.062  17.783  0.00  0.00    +0.000 A 
ATOM      6  C   UNL     1      -2.920  10.252  17.176  0.00  0.00    +0.000 A 
ATOM      7  C   UNL     1      -1.572  10.269  17.607  0.00  0.00    +0.000 A 
ATOM      8  C   UNL     1      -1.176  11.125  18.642  0.00  0.00    +0.000 A 
ATOM      9  C   UNL     1      -2.155  11.897  19.276  0.00  0.00    +0.000 A 
ATOM     10  C   UNL     1      -3.510  11.843  18.891  0.00  0.00    +0.000 A 
ATOM     11  C   UNL     1      -4.529  12.634  19.661  0.00  0.00    +0.000 C 
ENDBRANCH   1   8
BRANCH   2  12
ATOM     12  C   UNL     1       2.255  12.846  18.747  0.00  0.00    +0.000 C 
BRANCH  12  13
ATOM     13  N   UNL     1       2.477  14.079  19.458  0.00  0.00    +0.000 N 
ATOM     14  C   UNL     1       2.304  14.112  20.822  0.00  0.00    +0.000 C 
ATOM     15  O   UNL     1       2.098  13.082  21.467  0.00  0.00    +0.000 OA
ATOM     16  H   UNL     1       2.625  14.946  18.955  0.00  0.00    +0.000 HD
BRANCH  14  17
ATOM     17  C   UNL     1       2.344  15.413  21.428  0.00  0.00    +0.000 A 
ATOM     18  C   UNL     1       2.421  16.660  20.842  0.00  0.00    +0.000 A 
ATOM     19  C   UNL     1       2.481  17.592  21.902  0.00  0.00    +0.000 A 
ATOM     20  C   UNL     1       2.449  16.857  23.062  0.00  0.00    +0.000 A 
ATOM     21  O   UNL     1       2.362  15.529  22.789  0.00  0.00    +0.000 OA
ENDBRANCH  14  17
ENDBRANCH  12  13
ENDBRANCH   2  12
BRANCH   1  22
ATOM     22  C   UNL     1       0.825  10.320  19.933  0.00  0.00    +0.000 C 
BRANCH  22  23
ATOM     23  C   UNL     1       1.406   9.051  19.257  0.00  0.00    +0.000 A 
ATOM     24  C   UNL     1       1.716   7.925  20.044  0.00  0.00    +0.000 A 
ATOM     25  C   UNL     1       2.521   6.897  19.534  0.00  0.00    +0.000 A 
ATOM     26  C   UNL     1       3.019   6.968  18.234  0.00  0.00    +0.000 A 
ATOM     27  C   UNL     1       2.654   8.029  17.414  0.00  0.00    +0.000 A 
ATOM     28  C   UNL     1       1.821   9.040  17.905  0.00  0.00    +0.000 A 
ENDBRANCH  22  23
BRANCH  22  29
ATOM     29  C   UNL     1      -0.052  10.009  21.191  0.00  0.00    +0.000 C 
ATOM     30  O   UNL     1      -0.567   8.900  21.345  0.00  0.00    +0.000 OA
ATOM     31  N   UNL     1      -0.321  11.047  22.058  0.00  0.00    +0.000 N 
ATOM     32  H   UNL     1      -0.195  12.005  21.729  0.00  0.00    +0.000 HD
BRANCH  31  33
ATOM     33  C   UNL     1      -1.228  10.907  23.194  0.00  0.00    +0.000 C 
BRANCH  33  34
ATOM     34  C   UNL     1      -1.848  12.245  23.609  0.00  0.00    +0.000 C 
ATOM     35  C   UNL     1      -3.298  12.382  23.161  0.00  0.00    +0.000 C 
ATOM     36  C   UNL     1      -3.436  13.868  22.970  0.00  0.00    +0.000 C 
ATOM     37  C   UNL     1      -2.079  14.236  22.414  0.00  0.00    +0.000 C 
ATOM     38  O   UNL     1      -1.129  13.349  23.022  0.00  0.00    +0.000 OA
ENDBRANCH  33  34
ENDBRANCH  31  33
ENDBRANCH  22  29
ENDBRANCH   1  22
TORSDOF 9
ENDMDL
MODEL 6
REMARK VINA RESULT:      -7.0      2.430      6.184
REMARK  Name = 
REMARK  11 active torsions:
REMARK  status: ('A' for Active; 'I' for Inactive)
REMARK    1  A    between atoms: C_1  and  C_2
REMARK    2  A    between atoms: C_5  and  N_6
REMARK    3  A    between atoms: N_6  and  C_18
REMARK    4  A    between atoms: C_7  and  C_9
REMARK    5  A    between atoms: C_9  and  N_10
REMARK    6  A    between atoms: C_11  and  C_13
REMARK    7  A    between atoms: C_18  and  C_19
REMARK    8  A    between atoms: C_18  and  C_28
REMARK    9  A    between atoms: N_21  and  C_22
REMARK   10  A    between atoms: C_22  and  C_23
REMARK   11  A    between atoms: C_35  and  C_36
REMARK                            x       y       z     vdW  Elec       q    Type
REMARK                         _______ _______ _______ _____ _____    ______ ____
ROOT
ATOM      1  N   UNL     1       0.238  11.626  18.879  0.00  0.00    +0.000 N 
ATOM      2  C   UNL     1      -0.723  12.307  18.114  0.00  0.00    +0.000 C 
ATOM      3  O   UNL     1      -0.650  13.521  17.877  0.00  0.00    +0.000 OA
ENDROOT
BRANCH   1   8
ATOM      4  C   UNL     1       4.134  15.474  20.725  0.00  0.00    +0.000 C 
ATOM      5  C   UNL     1       3.221  14.368  20.272  0.00  0.00    +0.000 A 
ATOM      6  C   UNL     1       2.327  13.774  21.171  0.00  0.00    +0.000 A 
ATOM      7  C   UNL     1       1.388  12.806  20.744  0.00  0.00    +0.000 A 
ATOM      8  C   UNL     1       1.320  12.442  19.393  0.00  0.00    +0.000 A 
ATOM      9  C   UNL     1       2.245  13.004  18.507  0.00  0.00    +0.000 A 
ATOM     10  C   UNL     1       3.221  13.925  18.936  0.00  0.00    +0.000 A 
ATOM     11  C   UNL     1       4.239  14.433  17.955  0.00  0.00    +0.000 C 
ENDBRANCH   1   8
BRANCH   2  12
ATOM     12  C   UNL     1      -1.904  11.547  17.507  0.00  0.00    +0.000 C 
BRANCH  12  13
ATOM     13  N   UNL     1      -3.059  11.425  18.358  0.00  0.00    +0.000 N 
ATOM     14  C   UNL     1      -4.315  11.446  17.799  0.00  0.00    +0.000 C 
ATOM     15  O   UNL     1      -4.472  11.431  16.577  0.00  0.00    +0.000 OA
ATOM     16  H   UNL     1      -2.963  11.458  19.367  0.00  0.00    +0.000 HD
BRANCH  14  17
ATOM     17  C   UNL     1      -5.412  11.525  18.722  0.00  0.00    +0.000 A 
ATOM     18  C   UNL     1      -6.731  11.155  18.562  0.00  0.00    +0.000 A 
ATOM     19  C   UNL     1      -7.387  11.497  19.766  0.00  0.00    +0.000 A 
ATOM     20  C   UNL     1      -6.432  12.063  20.576  0.00  0.00    +0.000 A 
ATOM     21  O   UNL     1      -5.224  12.083  19.955  0.00  0.00    +0.000 OA
ENDBRANCH  14  17
ENDBRANCH  12  13
ENDBRANCH   2  12
BRANCH   1  22
ATOM     22  C   UNL     1       0.385  10.126  19.113  0.00  0.00    +0.000 C 
BRANCH  22  23
ATOM     23  C   UNL     1       0.282   9.693  20.598  0.00  0.00    +0.000 A 
ATOM     24  C   UNL     1      -0.827  10.099  21.365  0.00  0.00    +0.000 A 
ATOM     25  C   UNL     1      -0.803  10.001  22.763  0.00  0.00    +0.000 A 
ATOM     26  C   UNL     1       0.316   9.488  23.417  0.00  0.00    +0.000 A 
ATOM     27  C   UNL     1       1.385   9.003  22.673  0.00  0.00    +0.000 A 
ATOM     28  C   UNL     1       1.352   9.064  21.276  0.00  0.00    +0.000 A 
ENDBRANCH  22  23
BRANCH  22  29
ATOM     29  C   UNL     1       1.575   9.455  18.350  0.00  0.00    +0.000 C 
ATOM     30  O   UNL     1       2.083   9.998  17.366  0.00  0.00    +0.000 OA
ATOM     31  N   UNL     1       1.957   8.189  18.743  0.00  0.00    +0.000 N 
ATOM     32  H   UNL     1       1.307   7.631  19.297  0.00  0.00    +0.000 HD
BRANCH  31  33
ATOM     33  C   UNL     1       2.967   7.416  18.026  0.00  0.00    +0.000 C 
BRANCH  33  34
ATOM     34  C   UNL     1       3.056   5.972  18.530  0.00  0.00    +0.000 C 
ATOM     35  C   UNL     1       1.942   5.090  17.980  0.00  0.00    +0.000 C 
ATOM     36  C   UNL     1       1.757   4.081  19.081  0.00  0.00    +0.000 C 
ATOM     37  C   UNL     1       1.977   4.926  20.315  0.00  0.00    +0.000 C 
ATOM     38  O   UNL     1       2.952   5.921  19.967  0.00  0.00    +0.000 OA
ENDBRANCH  33  34
ENDBRANCH  31  33
ENDBRANCH  22  29
ENDBRANCH   1  22
TORSDOF 9
ENDMDL
MODEL 7
REMARK VINA RESULT:      -7.0      1.506      2.267
REMARK  Name = 
REMARK  11 active torsions:
REMARK  status: ('A' for Active; 'I' for Inactive)
REMARK    1  A    between atoms: C_1  and  C_2
REMARK    2  A    between atoms: C_5  and  N_6
REMARK    3  A    between atoms: N_6  and  C_18
REMARK    4  A    between atoms: C_7  and  C_9
REMARK    5  A    between atoms: C_9  and  N_10
REMARK    6  A    between atoms: C_11  and  C_13
REMARK    7  A    between atoms: C_18  and  C_19
REMARK    8  A    between atoms: C_18  and  C_28
REMARK    9  A    between atoms: N_21  and  C_22
REMARK   10  A    between atoms: C_22  and  C_23
REMARK   11  A    between atoms: C_35  and  C_36
REMARK                            x       y       z     vdW  Elec       q    Type
REMARK                         _______ _______ _______ _____ _____    ______ ____
ROOT
ATOM      1  N   UNL     1       0.400  10.597  19.086  0.00  0.00    +0.000 N 
ATOM      2  C   UNL     1      -0.719  10.658  18.238  0.00  0.00    +0.000 C 
ATOM      3  O   UNL     1      -1.138   9.674  17.613  0.00  0.00    +0.000 OA
ENDROOT
BRANCH   1   8
ATOM      4  C   UNL     1       3.591   5.816  19.673  0.00  0.00    +0.000 C 
ATOM      5  C   UNL     1       2.659   6.975  19.454  0.00  0.00    +0.000 A 
ATOM      6  C   UNL     1       1.742   7.344  20.446  0.00  0.00    +0.000 A 
ATOM      7  C   UNL     1       0.928   8.494  20.306  0.00  0.00    +0.000 A 
ATOM      8  C   UNL     1       1.049   9.304  19.170  0.00  0.00    +0.000 A 
ATOM      9  C   UNL     1       1.933   8.906  18.161  0.00  0.00    +0.000 A 
ATOM     10  C   UNL     1       2.703   7.731  18.268  0.00  0.00    +0.000 A 
ATOM     11  C   UNL     1       3.575   7.312  17.118  0.00  0.00    +0.000 C 
ENDBRANCH   1   8
BRANCH   2  12
ATOM     12  C   UNL     1      -1.495  11.967  18.080  0.00  0.00    +0.000 C 
BRANCH  12  13
ATOM     13  N   UNL     1      -2.814  11.974  18.659  0.00  0.00    +0.000 N 
ATOM     14  C   UNL     1      -3.905  11.750  17.853  0.00  0.00    +0.000 C 
ATOM     15  O   UNL     1      -3.774  11.410  16.676  0.00  0.00    +0.000 OA
ATOM     16  H   UNL     1      -2.955  12.272  19.617  0.00  0.00    +0.000 HD
BRANCH  14  17
ATOM     17  C   UNL     1      -5.188  11.973  18.459  0.00  0.00    +0.000 A 
ATOM     18  C   UNL     1      -6.408  11.390  18.187  0.00  0.00    +0.000 A 
ATOM     19  C   UNL     1      -7.344  12.013  19.042  0.00  0.00    +0.000 A 
ATOM     20  C   UNL     1      -6.640  12.942  19.770  0.00  0.00    +0.000 A 
ATOM     21  O   UNL     1      -5.326  12.926  19.428  0.00  0.00    +0.000 OA
ENDBRANCH  14  17
ENDBRANCH  12  13
ENDBRANCH   2  12
BRANCH   1  22
ATOM     22  C   UNL     1       0.930  11.657  20.046  0.00  0.00    +0.000 C 
BRANCH  22  23
ATOM     23  C   UNL     1      -0.116  12.187  21.060  0.00  0.00    +0.000 A 
ATOM     24  C   UNL     1      -0.302  13.576  21.206  0.00  0.00    +0.000 A 
ATOM     25  C   UNL     1      -0.991  14.092  22.311  0.00  0.00    +0.000 A 
ATOM     26  C   UNL     1      -1.515  13.238  23.280  0.00  0.00    +0.000 A 
ATOM     27  C   UNL     1      -1.416  11.862  23.110  0.00  0.00    +0.000 A 
ATOM     28  C   UNL     1      -0.761  11.339  21.990  0.00  0.00    +0.000 A 
ENDBRANCH  22  23
BRANCH  22  29
ATOM     29  C   UNL     1       1.774  12.789  19.374  0.00  0.00    +0.000 C 
ATOM     30  O   UNL     1       1.694  13.005  18.162  0.00  0.00    +0.000 OA
ATOM     31  N   UNL     1       2.692  13.457  20.158  0.00  0.00    +0.000 N 
ATOM     32  H   UNL     1       2.990  13.029  21.034  0.00  0.00    +0.000 HD
BRANCH  31  33
ATOM     33  C   UNL     1       3.620  14.443  19.613  0.00  0.00    +0.000 C 
BRANCH  33  34
ATOM     34  C   UNL     1       3.110  15.878  19.785  0.00  0.00    +0.000 C 
ATOM     35  C   UNL     1       2.364  16.080  21.099  0.00  0.00    +0.000 C 
ATOM     36  C   UNL     1       1.382  17.163  20.747  0.00  0.00    +0.000 C 
ATOM     37  C   UNL     1       1.017  16.800  19.325  0.00  0.00    +0.000 C 
ATOM     38  O   UNL     1       2.190  16.227  18.731  0.00  0.00    +0.000 OA
ENDBRANCH  33  34
ENDBRANCH  31  33
ENDBRANCH  22  29
ENDBRANCH   1  22
TORSDOF 9
ENDMDL
MODEL 8
REMARK VINA RESULT:      -6.9      1.132      1.674
REMARK  Name = 
REMARK  11 active torsions:
REMARK  status: ('A' for Active; 'I' for Inactive)
REMARK    1  A    between atoms: C_1  and  C_2
REMARK    2  A    between atoms: C_5  and  N_6
REMARK    3  A    between atoms: N_6  and  C_18
REMARK    4  A    between atoms: C_7  and  C_9
REMARK    5  A    between atoms: C_9  and  N_10
REMARK    6  A    between atoms: C_11  and  C_13
REMARK    7  A    between atoms: C_18  and  C_19
REMARK    8  A    between atoms: C_18  and  C_28
REMARK    9  A    between atoms: N_21  and  C_22
REMARK   10  A    between atoms: C_22  and  C_23
REMARK   11  A    between atoms: C_35  and  C_36
REMARK                            x       y       z     vdW  Elec       q    Type
REMARK                         _______ _______ _______ _____ _____    ______ ____
ROOT
ATOM      1  N   UNL     1       0.515  10.793  19.208  0.00  0.00    +0.000 N 
ATOM      2  C   UNL     1      -0.630  10.867  18.397  0.00  0.00    +0.000 C 
ATOM      3  O   UNL     1      -0.928   9.984  17.581  0.00  0.00    +0.000 OA
ENDROOT
BRANCH   1   8
ATOM      4  C   UNL     1       3.197   5.786  18.150  0.00  0.00    +0.000 C 
ATOM      5  C   UNL     1       2.621   7.131  18.497  0.00  0.00    +0.000 A 
ATOM      6  C   UNL     1       2.746   8.206  17.608  0.00  0.00    +0.000 A 
ATOM      7  C   UNL     1       2.123   9.450  17.866  0.00  0.00    +0.000 A 
ATOM      8  C   UNL     1       1.341   9.618  19.016  0.00  0.00    +0.000 A 
ATOM      9  C   UNL     1       1.257   8.557  19.924  0.00  0.00    +0.000 A 
ATOM     10  C   UNL     1       1.922   7.335  19.702  0.00  0.00    +0.000 A 
ATOM     11  C   UNL     1       1.862   6.260  20.750  0.00  0.00    +0.000 C 
ENDBRANCH   1   8
BRANCH   2  12
ATOM     12  C   UNL     1      -1.586  12.055  18.521  0.00  0.00    +0.000 C 
BRANCH  12  13
ATOM     13  N   UNL     1      -2.866  11.754  19.109  0.00  0.00    +0.000 N 
ATOM     14  C   UNL     1      -3.974  11.656  18.301  0.00  0.00    +0.000 C 
ATOM     15  O   UNL     1      -3.876  11.684  17.072  0.00  0.00    +0.000 OA
ATOM     16  H   UNL     1      -2.983  11.748  20.116  0.00  0.00    +0.000 HD
BRANCH  14  17
ATOM     17  C   UNL     1      -5.237  11.557  18.977  0.00  0.00    +0.000 A 
ATOM     18  C   UNL     1      -6.378  10.868  18.624  0.00  0.00    +0.000 A 
ATOM     19  C   UNL     1      -7.339  11.157  19.617  0.00  0.00    +0.000 A 
ATOM     20  C   UNL     1      -6.730  12.012  20.504  0.00  0.00    +0.000 A 
ATOM     21  O   UNL     1      -5.448  12.262  20.128  0.00  0.00    +0.000 OA
ENDBRANCH  14  17
ENDBRANCH  12  13
ENDBRANCH   2  12
BRANCH   1  22
ATOM     22  C   UNL     1       0.923  11.696  20.368  0.00  0.00    +0.000 C 
BRANCH  22  23
ATOM     23  C   UNL     1      -0.217  12.013  21.369  0.00  0.00    +0.000 A 
ATOM     24  C   UNL     1      -0.472  13.349  21.733  0.00  0.00    +0.000 A 
ATOM     25  C   UNL     1      -1.263  13.648  22.851  0.00  0.00    +0.000 A 
ATOM     26  C   UNL     1      -1.821  12.624  23.615  0.00  0.00    +0.000 A 
ATOM     27  C   UNL     1      -1.653  11.301  23.221  0.00  0.00    +0.000 A 
ATOM     28  C   UNL     1      -0.894  10.999  22.086  0.00  0.00    +0.000 A 
ENDBRANCH  22  23
BRANCH  22  29
ATOM     29  C   UNL     1       1.760  12.953  19.959  0.00  0.00    +0.000 C 
ATOM     30  O   UNL     1       2.693  13.348  20.662  0.00  0.00    +0.000 OA
ATOM     31  N   UNL     1       1.348  13.667  18.854  0.00  0.00    +0.000 N 
ATOM     32  H   UNL     1       0.394  13.539  18.517  0.00  0.00    +0.000 HD
BRANCH  31  33
ATOM     33  C   UNL     1       1.973  14.924  18.453  0.00  0.00    +0.000 C 
BRANCH  33  34
ATOM     34  C   UNL     1       1.216  16.144  18.988  0.00  0.00    +0.000 C 
ATOM     35  C   UNL     1       1.227  17.314  18.012  0.00  0.00    +0.000 C 
ATOM     36  C   UNL     1       1.156  18.501  18.932  0.00  0.00    +0.000 C 
ATOM     37  C   UNL     1       2.001  18.040  20.098  0.00  0.00    +0.000 C 
ATOM     38  O   UNL     1       1.810  16.622  20.212  0.00  0.00    +0.000 OA
ENDBRANCH  33  34
ENDBRANCH  31  33
ENDBRANCH  22  29
ENDBRANCH   1  22
TORSDOF 9
ENDMDL
MODEL 9
REMARK VINA RESULT:      -6.9      1.762      2.625
REMARK  Name = 
REMARK  11 active torsions:
REMARK  status: ('A' for Active; 'I' for Inactive)
REMARK    1  A    between atoms: C_1  and  C_2
REMARK    2  A    between atoms: C_5  and  N_6
REMARK    3  A    between atoms: N_6  and  C_18
REMARK    4  A    between atoms: C_7  and  C_9
REMARK    5  A    between atoms: C_9  and  N_10
REMARK    6  A    between atoms: C_11  and  C_13
REMARK    7  A    between atoms: C_18  and  C_19
REMARK    8  A    between atoms: C_18  and  C_28
REMARK    9  A    between atoms: N_21  and  C_22
REMARK   10  A    between atoms: C_22  and  C_23
REMARK   11  A    between atoms: C_35  and  C_36
REMARK                            x       y       z     vdW  Elec       q    Type
REMARK                         _______ _______ _______ _____ _____    ______ ____
ROOT
ATOM      1  N   UNL     1       0.493  11.026  19.009  0.00  0.00    +0.000 N 
ATOM      2  C   UNL     1      -0.768  10.963  18.394  0.00  0.00    +0.000 C 
ATOM      3  O   UNL     1      -1.180   9.945  17.819  0.00  0.00    +0.000 OA
ENDROOT
BRANCH   1   8
ATOM      4  C   UNL     1       3.080   5.903  18.340  0.00  0.00    +0.000 C 
ATOM      5  C   UNL     1       2.528   7.279  18.586  0.00  0.00    +0.000 A 
ATOM      6  C   UNL     1       2.699   8.292  17.634  0.00  0.00    +0.000 A 
ATOM      7  C   UNL     1       2.100   9.564  17.797  0.00  0.00    +0.000 A 
ATOM      8  C   UNL     1       1.296   9.823  18.913  0.00  0.00    +0.000 A 
ATOM      9  C   UNL     1       1.166   8.824  19.884  0.00  0.00    +0.000 A 
ATOM     10  C   UNL     1       1.807   7.576  19.758  0.00  0.00    +0.000 A 
ATOM     11  C   UNL     1       1.696   6.572  20.870  0.00  0.00    +0.000 C 
ENDBRANCH   1   8
BRANCH   2  12
ATOM     12  C   UNL     1      -1.710  12.167  18.442  0.00  0.00    +0.000 C 
BRANCH  12  13
ATOM     13  N   UNL     1      -2.974  11.933  19.092  0.00  0.00    +0.000 N 
ATOM     14  C   UNL     1      -4.098  11.731  18.327  0.00  0.00    +0.000 C 
ATOM     15  O   UNL     1      -4.027  11.609  17.102  0.00  0.00    +0.000 OA
ATOM     16  H   UNL     1      -3.068  12.049  20.094  0.00  0.00    +0.000 HD
BRANCH  14  17
ATOM     17  C   UNL     1      -5.345  11.708  19.038  0.00  0.00    +0.000 A 
ATOM     18  C   UNL     1      -6.581  11.239  18.643  0.00  0.00    +0.000 A 
ATOM     19  C   UNL     1      -7.467  11.508  19.710  0.00  0.00    +0.000 A 
ATOM     20  C   UNL     1      -6.720  12.133  20.680  0.00  0.00    +0.000 A 
ATOM     21  O   UNL     1      -5.426  12.258  20.286  0.00  0.00    +0.000 OA
ENDBRANCH  14  17
ENDBRANCH  12  13
ENDBRANCH   2  12
BRANCH   1  22
ATOM     22  C   UNL     1       1.070  12.126  19.895  0.00  0.00    +0.000 C 
BRANCH  22  23
ATOM     23  C   UNL     1       0.268  12.390  21.196  0.00  0.00    +0.000 A 
ATOM     24  C   UNL     1      -0.311  11.309  21.887  0.00  0.00    +0.000 A 
ATOM     25  C   UNL     1      -1.289  11.528  22.867  0.00  0.00    +0.000 A 
ATOM     26  C   UNL     1      -1.696  12.824  23.182  0.00  0.00    +0.000 A 
ATOM     27  C   UNL     1      -1.074  13.908  22.572  0.00  0.00    +0.000 A 
ATOM     28  C   UNL     1      -0.072  13.696  21.620  0.00  0.00    +0.000 A 
ENDBRANCH  22  23
BRANCH  22  29
ATOM     29  C   UNL     1       1.478  13.433  19.139  0.00  0.00    +0.000 C 
ATOM     30  O   UNL     1       0.644  14.306  18.888  0.00  0.00    +0.000 OA
ATOM     31  N   UNL     1       2.770  13.523  18.665  0.00  0.00    +0.000 N 
ATOM     32  H   UNL     1       3.316  12.667  18.567  0.00  0.00    +0.000 HD
BRANCH  31  33
ATOM     33  C   UNL     1       3.227  14.637  17.839  0.00  0.00    +0.000 C 
BRANCH  33  34
ATOM     34  C   UNL     1       4.389  15.399  18.486  0.00  0.00    +0.000 C 
ATOM     35  C   UNL     1       5.747  14.812  18.124  0.00  0.00    +0.000 C 
ATOM     36  C   UNL     1       6.574  15.142  19.337  0.00  0.00    +0.000 C 
ATOM     37  C   UNL     1       5.568  14.968  20.453  0.00  0.00    +0.000 C 
ATOM     38  O   UNL     1       4.293  15.360  19.924  0.00  0.00    +0.000 OA
ENDBRANCH  33  34
ENDBRANCH  31  33
ENDBRANCH  22  29
ENDBRANCH   1  22
TORSDOF 9
ENDMDL
