MODEL 1
REMARK VINA RESULT:      -6.0      0.000      0.000
REMARK  Name = 
REMARK  5 active torsions:
REMARK  status: ('A' for Active; 'I' for Inactive)
REMARK    1  A    between atoms: C_1  and  C_2
REMARK    2  A    between atoms: C_4  and  N_5
REMARK    3  A    between atoms: N_5  and  C_6
REMARK    4  A    between atoms: C_6  and  C_7
REMARK    5  A    between atoms: C_12  and  C_13
REMARK                            x       y       z     vdW  Elec       q    Type
REMARK                         _______ _______ _______ _____ _____    ______ ____
ROOT
ATOM      1  C   UNL     1       2.195   8.833  17.656  0.00  0.00    +0.000 C 
ATOM      2  C   UNL     1       2.888   7.596  18.161  0.00  0.00    +0.000 A 
ATOM      3  C   UNL     1       2.298   6.947  19.363  0.00  0.00    +0.000 A 
ATOM      4  C   UNL     1       2.884   5.825  19.808  0.00  0.00    +0.000 A 
ATOM      5  N   UNL     1       4.030   5.344  19.118  0.00  0.00    +0.000 N 
ATOM      6  N   UNL     1       4.787   4.239  19.398  0.00  0.00    +0.000 NA
ATOM      7  C   UNL     1       5.752   4.254  18.473  0.00  0.00    +0.000 A 
ATOM      8  C   UNL     1       5.648   5.336  17.584  0.00  0.00    +0.000 A 
ATOM      9  C   UNL     1       4.536   6.035  18.000  0.00  0.00    +0.000 A 
ATOM     10  N   UNL     1       3.943   7.173  17.524  0.00  0.00    +0.000 NA
ENDROOT
BRANCH   4  11
ATOM     11  N   UNL     1       2.343   5.132  20.899  0.00  0.00    +0.000 N 
ATOM     12  H   UNL     1       2.021   5.801  21.605  0.00  0.00    +0.000 HD
BRANCH  11  13
ATOM     13  C   UNL     1       1.279   4.130  20.708  0.00  0.00    +0.000 C 
BRANCH  13  14
ATOM     14  C   UNL     1       1.790   2.733  21.054  0.00  0.00    +0.000 C 
ATOM     15  F   UNL     1       1.616   1.904  19.987  0.00  0.00    +0.000 F 
ENDBRANCH  13  14
ENDBRANCH  11  13
ENDBRANCH   4  11
BRANCH   8  16
ATOM     16  C   UNL     1       6.499   5.650  16.487  0.00  0.00    +0.000 C 
ATOM     17  N   UNL     1       7.169   5.875  15.561  0.00  0.00    +0.000 NA
ENDBRANCH   8  16
TORSDOF 4
ENDMDL
MODEL 2
REMARK VINA RESULT:      -6.0      3.361      5.753
REMARK  Name = 
REMARK  5 active torsions:
REMARK  status: ('A' for Active; 'I' for Inactive)
REMARK    1  A    between atoms: C_1  and  C_2
REMARK    2  A    between atoms: C_4  and  N_5
REMARK    3  A    between atoms: N_5  and  C_6
REMARK    4  A    between atoms: C_6  and  C_7
REMARK    5  A    between atoms: C_12  and  C_13
REMARK                            x       y       z     vdW  Elec       q    Type
REMARK                         _______ _______ _______ _____ _____    ______ ____
ROOT
ATOM      1  C   UNL     1       7.419   5.640  19.306  0.00  0.00    +0.000 C 
ATOM      2  C   UNL     1       6.241   4.942  18.678  0.00  0.00    +0.000 A 
ATOM      3  C   UNL     1       6.183   4.943  17.191  0.00  0.00    +0.000 A 
ATOM      4  C   UNL     1       5.157   4.298  16.615  0.00  0.00    +0.000 A 
ATOM      5  N   UNL     1       4.194   3.676  17.455  0.00  0.00    +0.000 N 
ATOM      6  N   UNL     1       3.072   2.982  17.091  0.00  0.00    +0.000 NA
ATOM      7  C   UNL     1       2.505   2.636  18.250  0.00  0.00    +0.000 A 
ATOM      8  C   UNL     1       3.225   3.078  19.372  0.00  0.00    +0.000 A 
ATOM      9  C   UNL     1       4.314   3.745  18.856  0.00  0.00    +0.000 A 
ATOM     10  N   UNL     1       5.362   4.386  19.461  0.00  0.00    +0.000 NA
ENDROOT
BRANCH   4  11
ATOM     11  N   UNL     1       5.076   4.210  15.218  0.00  0.00    +0.000 N 
ATOM     12  H   UNL     1       4.286   4.771  14.885  0.00  0.00    +0.000 HD
BRANCH  11  13
ATOM     13  C   UNL     1       6.241   4.520  14.371  0.00  0.00    +0.000 C 
BRANCH  13  14
ATOM     14  C   UNL     1       6.208   3.688  13.090  0.00  0.00    +0.000 C 
ATOM     15  F   UNL     1       4.939   3.658  12.596  0.00  0.00    +0.000 F 
ENDBRANCH  13  14
ENDBRANCH  11  13
ENDBRANCH   4  11
BRANCH   8  16
ATOM     16  C   UNL     1       2.909   2.880  20.746  0.00  0.00    +0.000 C 
ATOM     17  N   UNL     1       2.686   2.683  21.872  0.00  0.00    +0.000 NA
ENDBRANCH   8  16
TORSDOF 4
ENDMDL
MODEL 3
REMARK VINA RESULT:      -5.9      2.724      5.166
REMARK  Name = 
REMARK  5 active torsions:
REMARK  status: ('A' for Active; 'I' for Inactive)
REMARK    1  A    between atoms: C_1  and  C_2
REMARK    2  A    between atoms: C_4  and  N_5
REMARK    3  A    between atoms: N_5  and  C_6
REMARK    4  A    between atoms: C_6  and  C_7
REMARK    5  A    between atoms: C_12  and  C_13
REMARK                            x       y       z     vdW  Elec       q    Type
REMARK                         _______ _______ _______ _____ _____    ______ ____
ROOT
ATOM      1  C   UNL     1       2.267   6.911  17.962  0.00  0.00    +0.000 C 
ATOM      2  C   UNL     1       3.073   5.710  18.383  0.00  0.00    +0.000 A 
ATOM      3  C   UNL     1       4.363   5.493  17.673  0.00  0.00    +0.000 A 
ATOM      4  C   UNL     1       5.108   4.445  18.057  0.00  0.00    +0.000 A 
ATOM      5  N   UNL     1       4.613   3.611  19.096  0.00  0.00    +0.000 N 
ATOM      6  N   UNL     1       5.191   2.493  19.635  0.00  0.00    +0.000 NA
ATOM      7  C   UNL     1       4.311   2.072  20.548  0.00  0.00    +0.000 A 
ATOM      8  C   UNL     1       3.170   2.885  20.633  0.00  0.00    +0.000 A 
ATOM      9  C   UNL     1       3.368   3.878  19.698  0.00  0.00    +0.000 A 
ATOM     10  N   UNL     1       2.602   4.950  19.329  0.00  0.00    +0.000 NA
ENDROOT
BRANCH   4  11
ATOM     11  N   UNL     1       6.361   4.219  17.471  0.00  0.00    +0.000 N 
ATOM     12  H   UNL     1       6.235   3.908  16.503  0.00  0.00    +0.000 HD
BRANCH  11  13
ATOM     13  C   UNL     1       7.401   5.263  17.480  0.00  0.00    +0.000 C 
BRANCH  13  14
ATOM     14  C   UNL     1       7.663   5.746  18.904  0.00  0.00    +0.000 C 
ATOM     15  F   UNL     1       8.349   6.923  18.871  0.00  0.00    +0.000 F 
ENDBRANCH  13  14
ENDBRANCH  11  13
ENDBRANCH   4  11
BRANCH   8  16
ATOM     16  C   UNL     1       2.048   2.730  21.496  0.00  0.00    +0.000 C 
ATOM     17  N   UNL     1       1.137   2.649  22.217  0.00  0.00    +0.000 NA
ENDBRANCH   8  16
TORSDOF 4
ENDMDL
MODEL 4
REMARK VINA RESULT:      -5.9      3.504      5.540
REMARK  Name = 
REMARK  5 active torsions:
REMARK  status: ('A' for Active; 'I' for Inactive)
REMARK    1  A    between atoms: C_1  and  C_2
REMARK    2  A    between atoms: C_4  and  N_5
REMARK    3  A    between atoms: N_5  and  C_6
REMARK    4  A    between atoms: C_6  and  C_7
REMARK    5  A    between atoms: C_12  and  C_13
REMARK                            x       y       z     vdW  Elec       q    Type
REMARK                         _______ _______ _______ _____ _____    ______ ____
ROOT
ATOM      1  C   UNL     1       5.963   4.049  14.096  0.00  0.00    +0.000 C 
ATOM      2  C   UNL     1       5.780   4.219  15.581  0.00  0.00    +0.000 A 
ATOM      3  C   UNL     1       7.010   4.479  16.377  0.00  0.00    +0.000 A 
ATOM      4  C   UNL     1       6.861   4.665  17.698  0.00  0.00    +0.000 A 
ATOM      5  N   UNL     1       5.552   4.585  18.246  0.00  0.00    +0.000 N 
ATOM      6  N   UNL     1       5.169   4.727  19.553  0.00  0.00    +0.000 NA
ATOM      7  C   UNL     1       3.847   4.535  19.533  0.00  0.00    +0.000 A 
ATOM      8  C   UNL     1       3.344   4.276  18.249  0.00  0.00    +0.000 A 
ATOM      9  C   UNL     1       4.444   4.312  17.420  0.00  0.00    +0.000 A 
ATOM     10  N   UNL     1       4.576   4.134  16.070  0.00  0.00    +0.000 NA
ENDROOT
BRANCH   4  11
ATOM     11  N   UNL     1       7.971   4.972  18.496  0.00  0.00    +0.000 N 
ATOM     12  H   UNL     1       8.831   4.728  17.995  0.00  0.00    +0.000 HD
BRANCH  11  13
ATOM     13  C   UNL     1       8.146   6.321  19.063  0.00  0.00    +0.000 C 
BRANCH  13  14
ATOM     14  C   UNL     1       7.849   7.388  18.011  0.00  0.00    +0.000 C 
ATOM     15  F   UNL     1       8.391   8.576  18.397  0.00  0.00    +0.000 F 
ENDBRANCH  13  14
ENDBRANCH  11  13
ENDBRANCH   4  11
BRANCH   8  16
ATOM     16  C   UNL     1       1.992   4.032  17.872  0.00  0.00    +0.000 C 
ATOM     17  N   UNL     1       0.875   3.875  17.585  0.00  0.00    +0.000 NA
ENDBRANCH   8  16
TORSDOF 4
ENDMDL
MODEL 5
REMARK VINA RESULT:      -5.9      2.611      3.883
REMARK  Name = 
REMARK  5 active torsions:
REMARK  status: ('A' for Active; 'I' for Inactive)
REMARK    1  A    between atoms: C_1  and  C_2
REMARK    2  A    between atoms: C_4  and  N_5
REMARK    3  A    between atoms: N_5  and  C_6
REMARK    4  A    between atoms: C_6  and  C_7
REMARK    5  A    between atoms: C_12  and  C_13
REMARK                            x       y       z     vdW  Elec       q    Type
REMARK                         _______ _______ _______ _____ _____    ______ ____
ROOT
ATOM      1  C   UNL     1       8.139   7.881  18.327  0.00  0.00    +0.000 C 
ATOM      2  C   UNL     1       7.496   6.650  17.746  0.00  0.00    +0.000 A 
ATOM      3  C   UNL     1       6.763   5.770  18.698  0.00  0.00    +0.000 A 
ATOM      4  C   UNL     1       6.156   4.686  18.192  0.00  0.00    +0.000 A 
ATOM      5  N   UNL     1       6.267   4.442  16.796  0.00  0.00    +0.000 N 
ATOM      6  N   UNL     1       5.747   3.402  16.073  0.00  0.00    +0.000 NA
ATOM      7  C   UNL     1       6.162   3.628  14.823  0.00  0.00    +0.000 A 
ATOM      8  C   UNL     1       6.938   4.791  14.699  0.00  0.00    +0.000 A 
ATOM      9  C   UNL     1       7.001   5.316  15.971  0.00  0.00    +0.000 A 
ATOM     10  N   UNL     1       7.614   6.434  16.468  0.00  0.00    +0.000 NA
ENDROOT
BRANCH   4  11
ATOM     11  N   UNL     1       5.400   3.849  19.024  0.00  0.00    +0.000 N 
ATOM     12  H   UNL     1       5.684   3.988  19.998  0.00  0.00    +0.000 HD
BRANCH  11  13
ATOM     13  C   UNL     1       3.927   3.863  18.975  0.00  0.00    +0.000 C 
BRANCH  13  14
ATOM     14  C   UNL     1       3.377   5.066  19.738  0.00  0.00    +0.000 C 
ATOM     15  F   UNL     1       2.650   5.851  18.894  0.00  0.00    +0.000 F 
ENDBRANCH  13  14
ENDBRANCH  11  13
ENDBRANCH   4  11
BRANCH   8  16
ATOM     16  C   UNL     1       7.530   5.325  13.519  0.00  0.00    +0.000 C 
ATOM     17  N   UNL     1       8.004   5.719  12.531  0.00  0.00    +0.000 NA
ENDBRANCH   8  16
TORSDOF 4
ENDMDL
MODEL 6
REMARK VINA RESULT:      -5.8      2.732      4.675
REMARK  Name = 
REMARK  5 active torsions:
REMARK  status: ('A' for Active; 'I' for Inactive)
REMARK    1  A    between atoms: C_1  and  C_2
REMARK    2  A    between atoms: C_4  and  N_5
REMARK    3  A    between atoms: N_5  and  C_6
REMARK    4  A    between atoms: C_6  and  C_7
REMARK    5  A    between atoms: C_12  and  C_13
REMARK                            x       y       z     vdW  Elec       q    Type
REMARK                         _______ _______ _______ _____ _____    ______ ____
ROOT
ATOM      1  C   UNL     1       2.712   7.686  17.784  0.00  0.00    +0.000 C 
ATOM      2  C   UNL     1       3.322   6.396  18.264  0.00  0.00    +0.000 A 
ATOM      3  C   UNL     1       4.767   6.434  18.616  0.00  0.00    +0.000 A 
ATOM      4  C   UNL     1       5.319   5.300  19.076  0.00  0.00    +0.000 A 
ATOM      5  N   UNL     1       4.498   4.145  19.180  0.00  0.00    +0.000 N 
ATOM      6  N   UNL     1       4.847   2.892  19.607  0.00  0.00    +0.000 NA
ATOM      7  C   UNL     1       3.725   2.176  19.485  0.00  0.00    +0.000 A 
ATOM      8  C   UNL     1       2.642   2.924  18.995  0.00  0.00    +0.000 A 
ATOM      9  C   UNL     1       3.142   4.193  18.803  0.00  0.00    +0.000 A 
ATOM     10  N   UNL     1       2.559   5.343  18.345  0.00  0.00    +0.000 NA
ENDROOT
BRANCH   4  11
ATOM     11  N   UNL     1       6.660   5.284  19.482  0.00  0.00    +0.000 N 
ATOM     12  H   UNL     1       6.846   4.432  20.020  0.00  0.00    +0.000 HD
BRANCH  11  13
ATOM     13  C   UNL     1       7.750   5.446  18.502  0.00  0.00    +0.000 C 
BRANCH  13  14
ATOM     14  C   UNL     1       7.497   4.578  17.271  0.00  0.00    +0.000 C 
ATOM     15  F   UNL     1       7.231   5.372  16.197  0.00  0.00    +0.000 F 
ENDBRANCH  13  14
ENDBRANCH  11  13
ENDBRANCH   4  11
BRANCH   8  16
ATOM     16  C   UNL     1       1.312   2.478  18.751  0.00  0.00    +0.000 C 
ATOM     17  N   UNL     1       0.237   2.069  18.569  0.00  0.00    +0.000 NA
ENDBRANCH   8  16
TORSDOF 4
ENDMDL
MODEL 7
REMARK VINA RESULT:      -5.8      3.054      4.895
REMARK  Name = 
REMARK  5 active torsions:
REMARK  status: ('A' for Active; 'I' for Inactive)
REMARK    1  A    between atoms: C_1  and  C_2
REMARK    2  A    between atoms: C_4  and  N_5
REMARK    3  A    between atoms: N_5  and  C_6
REMARK    4  A    between atoms: C_6  and  C_7
REMARK    5  A    between atoms: C_12  and  C_13
REMARK                            x       y       z     vdW  Elec       q    Type
REMARK                         _______ _______ _______ _____ _____    ______ ____
ROOT
ATOM      1  C   UNL     1       1.921   8.268  18.554  0.00  0.00    +0.000 C 
ATOM      2  C   UNL     1       2.688   7.056  18.093  0.00  0.00    +0.000 A 
ATOM      3  C   UNL     1       4.005   7.308  17.446  0.00  0.00    +0.000 A 
ATOM      4  C   UNL     1       4.716   6.238  17.059  0.00  0.00    +0.000 A 
ATOM      5  N   UNL     1       4.161   4.947  17.276  0.00  0.00    +0.000 N 
ATOM      6  N   UNL     1       4.697   3.729  16.954  0.00  0.00    +0.000 NA
ATOM      7  C   UNL     1       3.771   2.847  17.341  0.00  0.00    +0.000 A 
ATOM      8  C   UNL     1       2.640   3.448  17.916  0.00  0.00    +0.000 A 
ATOM      9  C   UNL     1       2.896   4.801  17.876  0.00  0.00    +0.000 A 
ATOM     10  N   UNL     1       2.163   5.881  18.289  0.00  0.00    +0.000 NA
ENDROOT
BRANCH   4  11
ATOM     11  N   UNL     1       5.989   6.404  16.499  0.00  0.00    +0.000 N 
ATOM     12  H   UNL     1       5.900   6.784  15.552  0.00  0.00    +0.000 HD
BRANCH  11  13
ATOM     13  C   UNL     1       7.031   7.174  17.200  0.00  0.00    +0.000 C 
BRANCH  13  14
ATOM     14  C   UNL     1       7.611   6.362  18.356  0.00  0.00    +0.000 C 
ATOM     15  F   UNL     1       8.590   7.080  18.974  0.00  0.00    +0.000 F 
ENDBRANCH  13  14
ENDBRANCH  11  13
ENDBRANCH   4  11
BRANCH   8  16
ATOM     16  C   UNL     1       1.479   2.808  18.435  0.00  0.00    +0.000 C 
ATOM     17  N   UNL     1       0.502   2.316  18.834  0.00  0.00    +0.000 NA
ENDBRANCH   8  16
TORSDOF 4
ENDMDL
MODEL 8
REMARK VINA RESULT:      -5.7      2.295      4.788
REMARK  Name = 
REMARK  5 active torsions:
REMARK  status: ('A' for Active; 'I' for Inactive)
REMARK    1  A    between atoms: C_1  and  C_2
REMARK    2  A    between atoms: C_4  and  N_5
REMARK    3  A    between atoms: N_5  and  C_6
REMARK    4  A    between atoms: C_6  and  C_7
REMARK    5  A    between atoms: C_12  and  C_13
REMARK                            x       y       z     vdW  Elec       q    Type
REMARK                         _______ _______ _______ _____ _____    ______ ____
ROOT
ATOM      1  C   UNL     1       1.863   8.067  19.603  0.00  0.00    +0.000 C 
ATOM      2  C   UNL     1       2.573   6.786  19.253  0.00  0.00    +0.000 A 
ATOM      3  C   UNL     1       3.495   6.833  18.085  0.00  0.00    +0.000 A 
ATOM      4  C   UNL     1       4.161   5.709  17.780  0.00  0.00    +0.000 A 
ATOM      5  N   UNL     1       3.931   4.553  18.575  0.00  0.00    +0.000 N 
ATOM      6  N   UNL     1       4.484   3.308  18.440  0.00  0.00    +0.000 NA
ATOM      7  C   UNL     1       3.917   2.587  19.412  0.00  0.00    +0.000 A 
ATOM      8  C   UNL     1       3.009   3.323  20.190  0.00  0.00    +0.000 A 
ATOM      9  C   UNL     1       3.023   4.591  19.650  0.00  0.00    +0.000 A 
ATOM     10  N   UNL     1       2.346   5.732  19.984  0.00  0.00    +0.000 NA
ENDROOT
BRANCH   4  11
ATOM     11  N   UNL     1       5.088   5.703  16.730  0.00  0.00    +0.000 N 
ATOM     12  H   UNL     1       4.655   6.094  15.887  0.00  0.00    +0.000 HD
BRANCH  11  13
ATOM     13  C   UNL     1       6.414   6.325  16.886  0.00  0.00    +0.000 C 
BRANCH  13  14
ATOM     14  C   UNL     1       7.350   5.403  17.664  0.00  0.00    +0.000 C 
ATOM     15  F   UNL     1       7.561   4.259  16.955  0.00  0.00    +0.000 F 
ENDBRANCH  13  14
ENDBRANCH  11  13
ENDBRANCH   4  11
BRANCH   8  16
ATOM     16  C   UNL     1       2.240   2.870  21.299  0.00  0.00    +0.000 C 
ATOM     17  N   UNL     1       1.592   2.545  22.210  0.00  0.00    +0.000 NA
ENDBRANCH   8  16
TORSDOF 4
ENDMDL
MODEL 9
REMARK VINA RESULT:      -5.7      2.458      4.962
REMARK  Name = 
REMARK  5 active torsions:
REMARK  status: ('A' for Active; 'I' for Inactive)
REMARK    1  A    between atoms: C_1  and  C_2
REMARK    2  A    between atoms: C_4  and  N_5
REMARK    3  A    between atoms: N_5  and  C_6
REMARK    4  A    between atoms: C_6  and  C_7
REMARK    5  A    between atoms: C_12  and  C_13
REMARK                            x       y       z     vdW  Elec       q    Type
REMARK                         _______ _______ _______ _____ _____    ______ ____
ROOT
ATOM      1  C   UNL     1       2.208   7.725  18.842  0.00  0.00    +0.000 C 
ATOM      2  C   UNL     1       2.972   6.428  18.883  0.00  0.00    +0.000 A 
ATOM      3  C   UNL     1       4.123   6.303  17.947  0.00  0.00    +0.000 A 
ATOM      4  C   UNL     1       4.834   5.166  17.994  0.00  0.00    +0.000 A 
ATOM      5  N   UNL     1       4.436   4.159  18.914  0.00  0.00    +0.000 N 
ATOM      6  N   UNL     1       5.000   2.930  19.123  0.00  0.00    +0.000 NA
ATOM      7  C   UNL     1       4.236   2.370  20.065  0.00  0.00    +0.000 A 
ATOM      8  C   UNL     1       3.185   3.199  20.490  0.00  0.00    +0.000 A 
ATOM      9  C   UNL     1       3.318   4.352  19.749  0.00  0.00    +0.000 A 
ATOM     10  N   UNL     1       2.590   5.511  19.725  0.00  0.00    +0.000 NA
ENDROOT
BRANCH   4  11
ATOM     11  N   UNL     1       5.965   5.010  17.181  0.00  0.00    +0.000 N 
ATOM     12  H   UNL     1       6.777   4.784  17.763  0.00  0.00    +0.000 HD
BRANCH  11  13
ATOM     13  C   UNL     1       5.954   4.078  16.039  0.00  0.00    +0.000 C 
BRANCH  13  14
ATOM     14  C   UNL     1       5.890   4.846  14.721  0.00  0.00    +0.000 C 
ATOM     15  F   UNL     1       5.345   6.076  14.933  0.00  0.00    +0.000 F 
ENDBRANCH  13  14
ENDBRANCH  11  13
ENDBRANCH   4  11
BRANCH   8  16
ATOM     16  C   UNL     1       2.195   2.919  21.474  0.00  0.00    +0.000 C 
ATOM     17  N   UNL     1       1.367   2.655  22.249  0.00  0.00    +0.000 NA
ENDBRANCH   8  16
TORSDOF 4
ENDMDL
