MODEL 1
REMARK VINA RESULT:      -7.7      0.000      0.000
REMARK  Name = 
REMARK  7 active torsions:
REMARK  status: ('A' for Active; 'I' for Inactive)
REMARK    1  A    between atoms: C_1  and  C_2
REMARK    2  A    between atoms: C_2  and  C_3
REMARK    3  A    between atoms: C_3  and  N_4
REMARK    4  A    between atoms: C_9  and  C_10
REMARK    5  A    between atoms: N_17  and  C_18
REMARK    6  A    between atoms: C_18  and  C_19
REMARK    7  A    between atoms: C_19  and  C_20
REMARK                            x       y       z     vdW  Elec       q    Type
REMARK                         _______ _______ _______ _____ _____    ______ ____
ROOT
ATOM      1  N   UNL     1       3.178   4.196  19.728  0.00  0.00    +0.000 N 
ATOM      2  C   UNL     1       3.866   3.250  18.957  0.00  0.00    +0.000 A 
ATOM      3  O   UNL     1       4.006   2.065  19.248  0.00  0.00    +0.000 OA
ATOM      4  C   UNL     1       4.427   3.802  17.778  0.00  0.00    +0.000 A 
ATOM      5  N   UNL     1       5.186   3.221  16.804  0.00  0.00    +0.000 N 
ATOM      6  C   UNL     1       5.499   4.209  15.892  0.00  0.00    +0.000 A 
ATOM      7  N   UNL     1       4.951   5.359  16.247  0.00  0.00    +0.000 NA
ATOM      8  C   UNL     1       4.311   5.103  17.421  0.00  0.00    +0.000 A 
ATOM      9  N   UNL     1       3.644   6.006  18.212  0.00  0.00    +0.000 N 
ATOM     10  C   UNL     1       3.097   5.576  19.431  0.00  0.00    +0.000 A 
ATOM     11  O   UNL     1       2.575   6.375  20.214  0.00  0.00    +0.000 OA
ATOM     12  H   UNL     1       5.483   2.254  16.775  0.00  0.00    +0.000 HD
ENDROOT
BRANCH   6  13
ATOM     13  C   UNL     1       6.359   3.946  14.702  0.00  0.00    +0.000 C 
ATOM     14  C   UNL     1       5.556   3.623  13.445  0.00  0.00    +0.000 C 
ATOM     15  C   UNL     1       6.555   3.833  12.315  0.00  0.00    +0.000 C 
ATOM     16  C   UNL     1       7.516   4.916  12.804  0.00  0.00    +0.000 C 
ATOM     17  C   UNL     1       7.173   5.166  14.272  0.00  0.00    +0.000 C 
ENDBRANCH   6  13
BRANCH   1  18
ATOM     18  C   UNL     1       2.650   3.743  21.017  0.00  0.00    +0.000 C 
BRANCH  18  20
ATOM     19  C   UNL     1       0.573   3.107  19.654  0.00  0.00    +0.000 C 
ATOM     20  C   UNL     1       1.343   2.940  20.954  0.00  0.00    +0.000 C 
ENDBRANCH  18  20
ENDBRANCH   1  18
BRANCH   9  21
ATOM     21  C   UNL     1       3.526   7.406  17.807  0.00  0.00    +0.000 C 
BRANCH  21  22
ATOM     22  C   UNL     1       2.087   7.912  17.673  0.00  0.00    +0.000 C 
ATOM     23  C   UNL     1       1.934   9.416  17.844  0.00  0.00    +0.000 C 
ENDBRANCH  21  22
ENDBRANCH   9  21
TORSDOF 5
ENDMDL
MODEL 2
REMARK VINA RESULT:      -7.7      1.984      6.639
REMARK  Name = 
REMARK  7 active torsions:
REMARK  status: ('A' for Active; 'I' for Inactive)
REMARK    1  A    between atoms: C_1  and  C_2
REMARK    2  A    between atoms: C_2  and  C_3
REMARK    3  A    between atoms: C_3  and  N_4
REMARK    4  A    between atoms: C_9  and  C_10
REMARK    5  A    between atoms: N_17  and  C_18
REMARK    6  A    between atoms: C_18  and  C_19
REMARK    7  A    between atoms: C_19  and  C_20
REMARK                            x       y       z     vdW  Elec       q    Type
REMARK                         _______ _______ _______ _____ _____    ______ ____
ROOT
ATOM      1  N   UNL     1       5.111   5.163  17.484  0.00  0.00    +0.000 N 
ATOM      2  C   UNL     1       4.697   6.408  16.990  0.00  0.00    +0.000 A 
ATOM      3  O   UNL     1       5.166   6.970  16.004  0.00  0.00    +0.000 OA
ATOM      4  C   UNL     1       3.669   6.996  17.769  0.00  0.00    +0.000 A 
ATOM      5  N   UNL     1       3.037   8.199  17.636  0.00  0.00    +0.000 N 
ATOM      6  C   UNL     1       2.136   8.299  18.677  0.00  0.00    +0.000 A 
ATOM      7  N   UNL     1       2.169   7.210  19.426  0.00  0.00    +0.000 NA
ATOM      8  C   UNL     1       3.131   6.423  18.872  0.00  0.00    +0.000 A 
ATOM      9  N   UNL     1       3.575   5.209  19.337  0.00  0.00    +0.000 N 
ATOM     10  C   UNL     1       4.629   4.564  18.671  0.00  0.00    +0.000 A 
ATOM     11  O   UNL     1       5.121   3.521  19.112  0.00  0.00    +0.000 OA
ATOM     12  H   UNL     1       3.219   8.893  16.923  0.00  0.00    +0.000 HD
ENDROOT
BRANCH   6  13
ATOM     13  C   UNL     1       1.288   9.510  18.877  0.00  0.00    +0.000 C 
ATOM     14  C   UNL     1       0.127   9.594  17.890  0.00  0.00    +0.000 C 
ATOM     15  C   UNL     1      -0.820  10.600  18.533  0.00  0.00    +0.000 C 
ATOM     16  C   UNL     1      -0.615  10.460  20.041  0.00  0.00    +0.000 C 
ATOM     17  C   UNL     1       0.576   9.523  20.230  0.00  0.00    +0.000 C 
ENDBRANCH   6  13
BRANCH   1  18
ATOM     18  C   UNL     1       6.240   4.523  16.806  0.00  0.00    +0.000 C 
BRANCH  18  20
ATOM     19  C   UNL     1       6.298   4.159  14.268  0.00  0.00    +0.000 C 
ATOM     20  C   UNL     1       5.875   3.615  15.623  0.00  0.00    +0.000 C 
ENDBRANCH  18  20
ENDBRANCH   1  18
BRANCH   9  21
ATOM     21  C   UNL     1       2.978   4.604  20.527  0.00  0.00    +0.000 C 
BRANCH  21  22
ATOM     22  C   UNL     1       1.721   3.771  20.256  0.00  0.00    +0.000 C 
ATOM     23  C   UNL     1       1.378   2.781  21.359  0.00  0.00    +0.000 C 
ENDBRANCH  21  22
ENDBRANCH   9  21
TORSDOF 5
ENDMDL
MODEL 3
REMARK VINA RESULT:      -7.5      2.314      6.691
REMARK  Name = 
REMARK  7 active torsions:
REMARK  status: ('A' for Active; 'I' for Inactive)
REMARK    1  A    between atoms: C_1  and  C_2
REMARK    2  A    between atoms: C_2  and  C_3
REMARK    3  A    between atoms: C_3  and  N_4
REMARK    4  A    between atoms: C_9  and  C_10
REMARK    5  A    between atoms: N_17  and  C_18
REMARK    6  A    between atoms: C_18  and  C_19
REMARK    7  A    between atoms: C_19  and  C_20
REMARK                            x       y       z     vdW  Elec       q    Type
REMARK                         _______ _______ _______ _____ _____    ______ ____
ROOT
ATOM      1  N   UNL     1       4.714   5.165  17.783  0.00  0.00    +0.000 N 
ATOM      2  C   UNL     1       4.383   6.385  17.178  0.00  0.00    +0.000 A 
ATOM      3  O   UNL     1       4.899   6.832  16.157  0.00  0.00    +0.000 OA
ATOM      4  C   UNL     1       3.381   7.097  17.883  0.00  0.00    +0.000 A 
ATOM      5  N   UNL     1       2.824   8.319  17.636  0.00  0.00    +0.000 N 
ATOM      6  C   UNL     1       1.916   8.562  18.646  0.00  0.00    +0.000 A 
ATOM      7  N   UNL     1       1.871   7.540  19.486  0.00  0.00    +0.000 NA
ATOM      8  C   UNL     1       2.793   6.654  19.019  0.00  0.00    +0.000 A 
ATOM      9  N   UNL     1       3.155   5.460  19.594  0.00  0.00    +0.000 N 
ATOM     10  C   UNL     1       4.179   4.700  19.007  0.00  0.00    +0.000 A 
ATOM     11  O   UNL     1       4.600   3.672  19.545  0.00  0.00    +0.000 OA
ATOM     12  H   UNL     1       3.058   8.938  16.870  0.00  0.00    +0.000 HD
ENDROOT
BRANCH   6  13
ATOM     13  C   UNL     1       1.138   9.832  18.726  0.00  0.00    +0.000 C 
ATOM     14  C   UNL     1      -0.181   9.773  17.961  0.00  0.00    +0.000 C 
ATOM     15  C   UNL     1      -0.977  10.942  18.526  0.00  0.00    +0.000 C 
ATOM     16  C   UNL     1      -0.505  11.108  19.970  0.00  0.00    +0.000 C 
ATOM     17  C   UNL     1       0.684  10.166  20.146  0.00  0.00    +0.000 C 
ENDBRANCH   6  13
BRANCH   1  18
ATOM     18  C   UNL     1       5.812   4.404  17.185  0.00  0.00    +0.000 C 
BRANCH  18  20
ATOM     19  C   UNL     1       7.582   5.483  18.695  0.00  0.00    +0.000 C 
ATOM     20  C   UNL     1       7.201   5.050  17.289  0.00  0.00    +0.000 C 
ENDBRANCH  18  20
ENDBRANCH   1  18
BRANCH   9  21
ATOM     21  C   UNL     1       2.506   4.996  20.819  0.00  0.00    +0.000 C 
BRANCH  21  22
ATOM     22  C   UNL     1       1.266   4.125  20.592  0.00  0.00    +0.000 C 
ATOM     23  C   UNL     1       1.346   2.745  21.229  0.00  0.00    +0.000 C 
ENDBRANCH  21  22
ENDBRANCH   9  21
TORSDOF 5
ENDMDL
MODEL 4
REMARK VINA RESULT:      -7.4      1.945      6.557
REMARK  Name = 
REMARK  7 active torsions:
REMARK  status: ('A' for Active; 'I' for Inactive)
REMARK    1  A    between atoms: C_1  and  C_2
REMARK    2  A    between atoms: C_2  and  C_3
REMARK    3  A    between atoms: C_3  and  N_4
REMARK    4  A    between atoms: C_9  and  C_10
REMARK    5  A    between atoms: N_17  and  C_18
REMARK    6  A    between atoms: C_18  and  C_19
REMARK    7  A    between atoms: C_19  and  C_20
REMARK                            x       y       z     vdW  Elec       q    Type
REMARK                         _______ _______ _______ _____ _____    ______ ____
ROOT
ATOM      1  N   UNL     1       5.289   5.204  17.339  0.00  0.00    +0.000 N 
ATOM      2  C   UNL     1       4.788   6.409  16.829  0.00  0.00    +0.000 A 
ATOM      3  O   UNL     1       5.203   6.980  15.824  0.00  0.00    +0.000 OA
ATOM      4  C   UNL     1       3.736   6.945  17.613  0.00  0.00    +0.000 A 
ATOM      5  N   UNL     1       3.025   8.101  17.468  0.00  0.00    +0.000 N 
ATOM      6  C   UNL     1       2.136   8.164  18.522  0.00  0.00    +0.000 A 
ATOM      7  N   UNL     1       2.251   7.094  19.291  0.00  0.00    +0.000 NA
ATOM      8  C   UNL     1       3.254   6.360  18.736  0.00  0.00    +0.000 A 
ATOM      9  N   UNL     1       3.783   5.187  19.216  0.00  0.00    +0.000 N 
ATOM     10  C   UNL     1       4.867   4.599  18.545  0.00  0.00    +0.000 A 
ATOM     11  O   UNL     1       5.432   3.599  18.998  0.00  0.00    +0.000 OA
ATOM     12  H   UNL     1       3.150   8.791  16.738  0.00  0.00    +0.000 HD
ENDROOT
BRANCH   6  13
ATOM     13  C   UNL     1       1.213   9.321  18.713  0.00  0.00    +0.000 C 
ATOM     14  C   UNL     1       0.884   9.584  20.179  0.00  0.00    +0.000 C 
ATOM     15  C   UNL     1       0.334  11.005  20.175  0.00  0.00    +0.000 C 
ATOM     16  C   UNL     1       1.033  11.719  19.019  0.00  0.00    +0.000 C 
ATOM     17  C   UNL     1       1.821  10.649  18.264  0.00  0.00    +0.000 C 
ENDBRANCH   6  13
BRANCH   1  18
ATOM     18  C   UNL     1       6.447   4.624  16.654  0.00  0.00    +0.000 C 
BRANCH  18  20
ATOM     19  C   UNL     1       6.435   4.240  14.119  0.00  0.00    +0.000 C 
ATOM     20  C   UNL     1       6.123   3.673  15.494  0.00  0.00    +0.000 C 
ENDBRANCH  18  20
ENDBRANCH   1  18
BRANCH   9  21
ATOM     21  C   UNL     1       3.246   4.569  20.428  0.00  0.00    +0.000 C 
BRANCH  21  22
ATOM     22  C   UNL     1       2.246   3.436  20.176  0.00  0.00    +0.000 C 
ATOM     23  C   UNL     1       0.787   3.853  20.288  0.00  0.00    +0.000 C 
ENDBRANCH  21  22
ENDBRANCH   9  21
TORSDOF 5
ENDMDL
MODEL 5
REMARK VINA RESULT:      -7.3      2.316      6.525
REMARK  Name = 
REMARK  7 active torsions:
REMARK  status: ('A' for Active; 'I' for Inactive)
REMARK    1  A    between atoms: C_1  and  C_2
REMARK    2  A    between atoms: C_2  and  C_3
REMARK    3  A    between atoms: C_3  and  N_4
REMARK    4  A    between atoms: C_9  and  C_10
REMARK    5  A    between atoms: N_17  and  C_18
REMARK    6  A    between atoms: C_18  and  C_19
REMARK    7  A    between atoms: C_19  and  C_20
REMARK                            x       y       z     vdW  Elec       q    Type
REMARK                         _______ _______ _______ _____ _____    ______ ____
ROOT
ATOM      1  N   UNL     1       5.195   5.122  17.679  0.00  0.00    +0.000 N 
ATOM      2  C   UNL     1       4.821   6.336  17.087  0.00  0.00    +0.000 A 
ATOM      3  O   UNL     1       5.378   6.854  16.123  0.00  0.00    +0.000 OA
ATOM      4  C   UNL     1       3.718   6.948  17.733  0.00  0.00    +0.000 A 
ATOM      5  N   UNL     1       3.093   8.135  17.480  0.00  0.00    +0.000 N 
ATOM      6  C   UNL     1       2.095   8.275  18.423  0.00  0.00    +0.000 A 
ATOM      7  N   UNL     1       2.063   7.224  19.225  0.00  0.00    +0.000 NA
ATOM      8  C   UNL     1       3.081   6.423  18.806  0.00  0.00    +0.000 A 
ATOM      9  N   UNL     1       3.487   5.239  19.371  0.00  0.00    +0.000 N 
ATOM     10  C   UNL     1       4.605   4.576  18.843  0.00  0.00    +0.000 A 
ATOM     11  O   UNL     1       5.060   3.562  19.381  0.00  0.00    +0.000 OA
ATOM     12  H   UNL     1       3.337   8.796  16.753  0.00  0.00    +0.000 HD
ENDROOT
BRANCH   6  13
ATOM     13  C   UNL     1       1.221   9.483  18.480  0.00  0.00    +0.000 C 
ATOM     14  C   UNL     1       0.643   9.735  19.869  0.00  0.00    +0.000 C 
ATOM     15  C   UNL     1       0.186  11.187  19.811  0.00  0.00    +0.000 C 
ATOM     16  C   UNL     1       1.127  11.881  18.826  0.00  0.00    +0.000 C 
ATOM     17  C   UNL     1       1.977  10.780  18.194  0.00  0.00    +0.000 C 
ENDBRANCH   6  13
BRANCH   1  18
ATOM     18  C   UNL     1       6.389   4.463  17.145  0.00  0.00    +0.000 C 
BRANCH  18  20
ATOM     19  C   UNL     1       7.787   6.076  18.567  0.00  0.00    +0.000 C 
ATOM     20  C   UNL     1       7.684   4.697  17.935  0.00  0.00    +0.000 C 
ENDBRANCH  18  20
ENDBRANCH   1  18
BRANCH   9  21
ATOM     21  C   UNL     1       2.783   4.686  20.527  0.00  0.00    +0.000 C 
BRANCH  21  22
ATOM     22  C   UNL     1       1.464   3.981  20.193  0.00  0.00    +0.000 C 
ATOM     23  C   UNL     1       1.593   2.480  19.985  0.00  0.00    +0.000 C 
ENDBRANCH  21  22
ENDBRANCH   9  21
TORSDOF 5
ENDMDL
MODEL 6
REMARK VINA RESULT:      -7.2      0.922      1.164
REMARK  Name = 
REMARK  7 active torsions:
REMARK  status: ('A' for Active; 'I' for Inactive)
REMARK    1  A    between atoms: C_1  and  C_2
REMARK    2  A    between atoms: C_2  and  C_3
REMARK    3  A    between atoms: C_3  and  N_4
REMARK    4  A    between atoms: C_9  and  C_10
REMARK    5  A    between atoms: N_17  and  C_18
REMARK    6  A    between atoms: C_18  and  C_19
REMARK    7  A    between atoms: C_19  and  C_20
REMARK                            x       y       z     vdW  Elec       q    Type
REMARK                         _______ _______ _______ _____ _____    ______ ____
ROOT
ATOM      1  N   UNL     1       1.852   3.855  19.204  0.00  0.00    +0.000 N 
ATOM      2  C   UNL     1       2.510   2.971  18.340  0.00  0.00    +0.000 A 
ATOM      3  O   UNL     1       2.323   1.759  18.289  0.00  0.00    +0.000 OA
ATOM      4  C   UNL     1       3.464   3.616  17.512  0.00  0.00    +0.000 A 
ATOM      5  N   UNL     1       4.318   3.102  16.580  0.00  0.00    +0.000 N 
ATOM      6  C   UNL     1       5.057   4.156  16.083  0.00  0.00    +0.000 A 
ATOM      7  N   UNL     1       4.682   5.293  16.647  0.00  0.00    +0.000 NA
ATOM      8  C   UNL     1       3.716   4.947  17.541  0.00  0.00    +0.000 A 
ATOM      9  N   UNL     1       3.062   5.781  18.416  0.00  0.00    +0.000 N 
ATOM     10  C   UNL     1       2.137   5.236  19.319  0.00  0.00    +0.000 A 
ATOM     11  O   UNL     1       1.601   5.935  20.185  0.00  0.00    +0.000 OA
ATOM     12  H   UNL     1       4.407   2.127  16.326  0.00  0.00    +0.000 HD
ENDROOT
BRANCH   6  13
ATOM     13  C   UNL     1       6.128   3.963  15.063  0.00  0.00    +0.000 C 
ATOM     14  C   UNL     1       5.580   3.767  13.652  0.00  0.00    +0.000 C 
ATOM     15  C   UNL     1       6.783   4.036  12.758  0.00  0.00    +0.000 C 
ATOM     16  C   UNL     1       7.647   5.046  13.514  0.00  0.00    +0.000 C 
ATOM     17  C   UNL     1       7.028   5.189  14.903  0.00  0.00    +0.000 C 
ENDBRANCH   6  13
BRANCH   1  18
ATOM     18  C   UNL     1       0.921   3.268  20.171  0.00  0.00    +0.000 C 
BRANCH  18  20
ATOM     19  C   UNL     1       2.922   2.470  21.561  0.00  0.00    +0.000 C 
ATOM     20  C   UNL     1       1.497   2.999  21.568  0.00  0.00    +0.000 C 
ENDBRANCH  18  20
ENDBRANCH   1  18
BRANCH   9  21
ATOM     21  C   UNL     1       3.345   7.215  18.429  0.00  0.00    +0.000 C 
BRANCH  21  22
ATOM     22  C   UNL     1       2.447   8.050  17.511  0.00  0.00    +0.000 C 
ATOM     23  C   UNL     1       1.819   9.261  18.184  0.00  0.00    +0.000 C 
ENDBRANCH  21  22
ENDBRANCH   9  21
TORSDOF 5
ENDMDL
MODEL 7
REMARK VINA RESULT:      -7.1      2.400      7.098
REMARK  Name = 
REMARK  7 active torsions:
REMARK  status: ('A' for Active; 'I' for Inactive)
REMARK    1  A    between atoms: C_1  and  C_2
REMARK    2  A    between atoms: C_2  and  C_3
REMARK    3  A    between atoms: C_3  and  N_4
REMARK    4  A    between atoms: C_9  and  C_10
REMARK    5  A    between atoms: N_17  and  C_18
REMARK    6  A    between atoms: C_18  and  C_19
REMARK    7  A    between atoms: C_19  and  C_20
REMARK                            x       y       z     vdW  Elec       q    Type
REMARK                         _______ _______ _______ _____ _____    ______ ____
ROOT
ATOM      1  N   UNL     1       4.469   4.997  18.320  0.00  0.00    +0.000 N 
ATOM      2  C   UNL     1       3.968   6.297  18.165  0.00  0.00    +0.000 A 
ATOM      3  O   UNL     1       4.361   7.113  17.336  0.00  0.00    +0.000 OA
ATOM      4  C   UNL     1       2.947   6.609  19.097  0.00  0.00    +0.000 A 
ATOM      5  N   UNL     1       2.246   7.765  19.288  0.00  0.00    +0.000 N 
ATOM      6  C   UNL     1       1.389   7.549  20.348  0.00  0.00    +0.000 A 
ATOM      7  N   UNL     1       1.513   6.313  20.801  0.00  0.00    +0.000 NA
ATOM      8  C   UNL     1       2.490   5.749  20.038  0.00  0.00    +0.000 A 
ATOM      9  N   UNL     1       3.018   4.488  20.172  0.00  0.00    +0.000 N 
ATOM     10  C   UNL     1       4.074   4.095  19.335  0.00  0.00    +0.000 A 
ATOM     11  O   UNL     1       4.640   3.008  19.487  0.00  0.00    +0.000 OA
ATOM     12  H   UNL     1       2.358   8.624  18.765  0.00  0.00    +0.000 HD
ENDROOT
BRANCH   6  13
ATOM     13  C   UNL     1       0.487   8.617  20.869  0.00  0.00    +0.000 C 
ATOM     14  C   UNL     1       0.835   9.049  22.291  0.00  0.00    +0.000 C 
ATOM     15  C   UNL     1       0.125  10.388  22.443  0.00  0.00    +0.000 C 
ATOM     16  C   UNL     1       0.086  11.002  21.044  0.00  0.00    +0.000 C 
ATOM     17  C   UNL     1       0.596   9.925  20.087  0.00  0.00    +0.000 C 
ENDBRANCH   6  13
BRANCH   1  18
ATOM     18  C   UNL     1       5.599   4.616  17.469  0.00  0.00    +0.000 C 
BRANCH  18  20
ATOM     19  C   UNL     1       6.085   4.384  14.962  0.00  0.00    +0.000 C 
ATOM     20  C   UNL     1       5.230   3.944  16.139  0.00  0.00    +0.000 C 
ENDBRANCH  18  20
ENDBRANCH   1  18
BRANCH   9  21
ATOM     21  C   UNL     1       2.509   3.572  21.192  0.00  0.00    +0.000 C 
BRANCH  21  22
ATOM     22  C   UNL     1       1.127   2.986  20.889  0.00  0.00    +0.000 C 
ATOM     23  C   UNL     1       0.935   2.550  19.444  0.00  0.00    +0.000 C 
ENDBRANCH  21  22
ENDBRANCH   9  21
TORSDOF 5
ENDMDL
MODEL 8
REMARK VINA RESULT:      -7.1      2.050      6.616
REMARK  Name = 
REMARK  7 active torsions:
REMARK  status: ('A' for Active; 'I' for Inactive)
REMARK    1  A    between atoms: C_1  and  C_2
REMARK    2  A    between atoms: C_2  and  C_3
REMARK    3  A    between atoms: C_3  and  N_4
REMARK    4  A    between atoms: C_9  and  C_10
REMARK    5  A    between atoms: N_17  and  C_18
REMARK    6  A    between atoms: C_18  and  C_19
REMARK    7  A    between atoms: C_19  and  C_20
REMARK                            x       y       z     vdW  Elec       q    Type
REMARK                         _______ _______ _______ _____ _____    ______ ____
ROOT
ATOM      1  N   UNL     1       4.768   4.783  16.783  0.00  0.00    +0.000 N 
ATOM      2  C   UNL     1       4.667   6.174  16.644  0.00  0.00    +0.000 A 
ATOM      3  O   UNL     1       5.383   6.867  15.927  0.00  0.00    +0.000 OA
ATOM      4  C   UNL     1       3.645   6.736  17.449  0.00  0.00    +0.000 A 
ATOM      5  N   UNL     1       3.265   8.037  17.615  0.00  0.00    +0.000 N 
ATOM      6  C   UNL     1       2.237   8.044  18.536  0.00  0.00    +0.000 A 
ATOM      7  N   UNL     1       1.953   6.812  18.924  0.00  0.00    +0.000 NA
ATOM      8  C   UNL     1       2.840   6.016  18.265  0.00  0.00    +0.000 A 
ATOM      9  N   UNL     1       2.980   4.655  18.390  0.00  0.00    +0.000 N 
ATOM     10  C   UNL     1       3.999   4.003  17.679  0.00  0.00    +0.000 A 
ATOM     11  O   UNL     1       4.220   2.799  17.837  0.00  0.00    +0.000 OA
ATOM     12  H   UNL     1       3.681   8.843  17.166  0.00  0.00    +0.000 HD
ENDROOT
BRANCH   6  13
ATOM     13  C   UNL     1       1.593   9.308  18.997  0.00  0.00    +0.000 C 
ATOM     14  C   UNL     1       0.457   9.765  18.088  0.00  0.00    +0.000 C 
ATOM     15  C   UNL     1      -0.314  10.760  18.947  0.00  0.00    +0.000 C 
ATOM     16  C   UNL     1      -0.128  10.295  20.391  0.00  0.00    +0.000 C 
ATOM     17  C   UNL     1       0.899   9.164  20.351  0.00  0.00    +0.000 C 
ENDBRANCH   6  13
BRANCH   1  18
ATOM     18  C   UNL     1       5.862   4.122  16.069  0.00  0.00    +0.000 C 
BRANCH  18  20
ATOM     19  C   UNL     1       7.630   4.611  17.861  0.00  0.00    +0.000 C 
ATOM     20  C   UNL     1       7.271   4.645  16.385  0.00  0.00    +0.000 C 
ENDBRANCH  18  20
ENDBRANCH   1  18
BRANCH   9  21
ATOM     21  C   UNL     1       2.098   3.894  19.274  0.00  0.00    +0.000 C 
BRANCH  21  22
ATOM     22  C   UNL     1       2.529   3.879  20.744  0.00  0.00    +0.000 C 
ATOM     23  C   UNL     1       1.772   2.880  21.607  0.00  0.00    +0.000 C 
ENDBRANCH  21  22
ENDBRANCH   9  21
TORSDOF 5
ENDMDL
MODEL 9
REMARK VINA RESULT:      -7.1      2.620      7.142
REMARK  Name = 
REMARK  7 active torsions:
REMARK  status: ('A' for Active; 'I' for Inactive)
REMARK    1  A    between atoms: C_1  and  C_2
REMARK    2  A    between atoms: C_2  and  C_3
REMARK    3  A    between atoms: C_3  and  N_4
REMARK    4  A    between atoms: C_9  and  C_10
REMARK    5  A    between atoms: N_17  and  C_18
REMARK    6  A    between atoms: C_18  and  C_19
REMARK    7  A    between atoms: C_19  and  C_20
REMARK                            x       y       z     vdW  Elec       q    Type
REMARK                         _______ _______ _______ _____ _____    ______ ____
ROOT
ATOM      1  N   UNL     1       4.465   4.876  17.848  0.00  0.00    +0.000 N 
ATOM      2  C   UNL     1       4.070   6.221  17.843  0.00  0.00    +0.000 A 
ATOM      3  O   UNL     1       4.485   7.078  17.068  0.00  0.00    +0.000 OA
ATOM      4  C   UNL     1       3.131   6.523  18.861  0.00  0.00    +0.000 A 
ATOM      5  N   UNL     1       2.544   7.708  19.198  0.00  0.00    +0.000 N 
ATOM      6  C   UNL     1       1.730   7.462  20.285  0.00  0.00    +0.000 A 
ATOM      7  N   UNL     1       1.772   6.182  20.616  0.00  0.00    +0.000 NA
ATOM      8  C   UNL     1       2.654   5.617  19.746  0.00  0.00    +0.000 A 
ATOM      9  N   UNL     1       3.078   4.310  19.732  0.00  0.00    +0.000 N 
ATOM     10  C   UNL     1       4.050   3.915  18.799  0.00  0.00    +0.000 A 
ATOM     11  O   UNL     1       4.527   2.778  18.817  0.00  0.00    +0.000 OA
ATOM     12  H   UNL     1       2.700   8.602  18.749  0.00  0.00    +0.000 HD
ENDROOT
BRANCH   6  13
ATOM     13  C   UNL     1       0.953   8.544  20.956  0.00  0.00    +0.000 C 
ATOM     14  C   UNL     1      -0.421   8.083  21.434  0.00  0.00    +0.000 C 
ATOM     15  C   UNL     1      -0.830   9.152  22.439  0.00  0.00    +0.000 C 
ATOM     16  C   UNL     1       0.471   9.672  23.048  0.00  0.00    +0.000 C 
ATOM     17  C   UNL     1       1.607   9.036  22.247  0.00  0.00    +0.000 C 
ENDBRANCH   6  13
BRANCH   1  18
ATOM     18  C   UNL     1       5.510   4.488  16.897  0.00  0.00    +0.000 C 
BRANCH  18  20
ATOM     19  C   UNL     1       6.163   3.923  14.483  0.00  0.00    +0.000 C 
ATOM     20  C   UNL     1       5.045   4.278  15.450  0.00  0.00    +0.000 C 
ENDBRANCH  18  20
ENDBRANCH   1  18
BRANCH   9  21
ATOM     21  C   UNL     1       2.549   3.345  20.694  0.00  0.00    +0.000 C 
BRANCH  21  22
ATOM     22  C   UNL     1       1.095   2.930  20.446  0.00  0.00    +0.000 C 
ATOM     23  C   UNL     1       0.827   2.397  19.047  0.00  0.00    +0.000 C 
ENDBRANCH  21  22
ENDBRANCH   9  21
TORSDOF 5
ENDMDL
