MODEL 1
REMARK VINA RESULT:      -8.0      0.000      0.000
REMARK  Name = 
REMARK  5 active torsions:
REMARK  status: ('A' for Active; 'I' for Inactive)
REMARK    1  A    between atoms: C_8  and  C_9
REMARK    2  A    between atoms: C_10  and  O_11
REMARK    3  A    between atoms: O_11  and  C_12
REMARK    4  A    between atoms: C_12  and  C_14
REMARK    5  A    between atoms: C_22  and  C_23
REMARK                            x       y       z     vdW  Elec       q    Type
REMARK                         _______ _______ _______ _____ _____    ______ ____
ROOT
ATOM      1  C   UNL     1       0.558  14.260  20.480  0.00  0.00    +0.000 C 
ATOM      2  C   UNL     1       0.599  13.362  19.487  0.00  0.00    +0.000 C 
ATOM      3  C   UNL     1       1.856  13.021  18.781  0.00  0.00    +0.000 C 
ATOM      4  O   UNL     1       2.880  13.673  18.772  0.00  0.00    +0.000 OA
ATOM      5  O   UNL     1       1.640  11.860  18.102  0.00  0.00    +0.000 OA
ATOM      6  C   UNL     1       0.384  11.276  18.496  0.00  0.00    +0.000 C 
ATOM      7  C   UNL     1       0.614  10.184  19.541  0.00  0.00    +0.000 A 
ATOM      8  C   UNL     1       1.499   9.097  19.287  0.00  0.00    +0.000 A 
ATOM      9  C   UNL     1       2.199   8.906  17.963  0.00  0.00    +0.000 C 
ATOM     10  C   UNL     1       1.746   8.161  20.313  0.00  0.00    +0.000 A 
ATOM     11  C   UNL     1       1.157   8.307  21.567  0.00  0.00    +0.000 A 
ATOM     12  C   UNL     1       0.233   9.325  21.810  0.00  0.00    +0.000 A 
ATOM     13  C   UNL     1      -0.405   9.404  23.174  0.00  0.00    +0.000 C 
ATOM     14  C   UNL     1      -0.070  10.250  20.791  0.00  0.00    +0.000 A 
ATOM     15  C   UNL     1      -1.084  11.338  21.086  0.00  0.00    +0.000 C 
ATOM     16  C   UNL     1      -1.598  12.050  19.844  0.00  0.00    +0.000 C 
ATOM     17  C   UNL     1      -0.461  12.469  18.933  0.00  0.00    +0.000 C 
ENDROOT
BRANCH  10  18
ATOM     18  O   UNL     1       2.668   7.108  20.053  0.00  0.00    +0.000 OA
BRANCH  18  19
ATOM     19  C   UNL     1       2.221   5.842  19.691  0.00  0.00    +0.000 C 
ATOM     20  O   UNL     1       1.259   5.241  20.149  0.00  0.00    +0.000 OA
BRANCH  19  21
ATOM     21  C   UNL     1       3.068   5.240  18.623  0.00  0.00    +0.000 A 
ATOM     22  C   UNL     1       4.228   5.942  18.250  0.00  0.00    +0.000 A 
ATOM     23  C   UNL     1       5.053   5.468  17.227  0.00  0.00    +0.000 A 
ATOM     24  C   UNL     1       4.717   4.291  16.566  0.00  0.00    +0.000 A 
ATOM     25 CL   UNL     1       5.707   3.725  15.278  0.00  0.00    +0.000 Cl
ATOM     26  C   UNL     1       3.576   3.577  16.934  0.00  0.00    +0.000 A 
ATOM     27  C   UNL     1       2.750   4.046  17.966  0.00  0.00    +0.000 A 
ENDBRANCH  19  21
ENDBRANCH  18  19
ENDBRANCH  10  18
TORSDOF 3
ENDMDL
MODEL 2
REMARK VINA RESULT:      -7.7      3.229      8.502
REMARK  Name = 
REMARK  5 active torsions:
REMARK  status: ('A' for Active; 'I' for Inactive)
REMARK    1  A    between atoms: C_8  and  C_9
REMARK    2  A    between atoms: C_10  and  O_11
REMARK    3  A    between atoms: O_11  and  C_12
REMARK    4  A    between atoms: C_12  and  C_14
REMARK    5  A    between atoms: C_22  and  C_23
REMARK                            x       y       z     vdW  Elec       q    Type
REMARK                         _______ _______ _______ _____ _____    ______ ____
ROOT
ATOM      1  C   UNL     1       4.439   1.514  19.471  0.00  0.00    +0.000 C 
ATOM      2  C   UNL     1       3.234   2.079  19.623  0.00  0.00    +0.000 C 
ATOM      3  C   UNL     1       2.778   2.630  20.920  0.00  0.00    +0.000 C 
ATOM      4  O   UNL     1       3.244   2.387  22.014  0.00  0.00    +0.000 OA
ATOM      5  O   UNL     1       1.702   3.427  20.669  0.00  0.00    +0.000 OA
ATOM      6  C   UNL     1       1.552   3.631  19.251  0.00  0.00    +0.000 C 
ATOM      7  C   UNL     1       2.167   4.969  18.841  0.00  0.00    +0.000 A 
ATOM      8  C   UNL     1       1.767   6.186  19.465  0.00  0.00    +0.000 A 
ATOM      9  C   UNL     1       0.670   6.250  20.501  0.00  0.00    +0.000 C 
ATOM     10  C   UNL     1       2.425   7.383  19.115  0.00  0.00    +0.000 A 
ATOM     11  C   UNL     1       3.469   7.379  18.192  0.00  0.00    +0.000 A 
ATOM     12  C   UNL     1       3.826   6.209  17.520  0.00  0.00    +0.000 A 
ATOM     13  C   UNL     1       4.934   6.277  16.500  0.00  0.00    +0.000 C 
ATOM     14  C   UNL     1       3.157   5.003  17.814  0.00  0.00    +0.000 A 
ATOM     15  C   UNL     1       3.563   3.753  17.059  0.00  0.00    +0.000 C 
ATOM     16  C   UNL     1       2.567   2.610  17.184  0.00  0.00    +0.000 C 
ATOM     17  C   UNL     1       2.164   2.380  18.627  0.00  0.00    +0.000 C 
ENDROOT
BRANCH  10  18
ATOM     18  O   UNL     1       2.040   8.579  19.783  0.00  0.00    +0.000 OA
BRANCH  18  19
ATOM     19  C   UNL     1       1.188   9.494  19.173  0.00  0.00    +0.000 C 
ATOM     20  O   UNL     1       1.095   9.732  17.977  0.00  0.00    +0.000 OA
BRANCH  19  21
ATOM     21  C   UNL     1       0.336  10.206  20.169  0.00  0.00    +0.000 A 
ATOM     22  C   UNL     1       0.469   9.827  21.516  0.00  0.00    +0.000 A 
ATOM     23  C   UNL     1      -0.325  10.413  22.506  0.00  0.00    +0.000 A 
ATOM     24  C   UNL     1      -1.260  11.380  22.150  0.00  0.00    +0.000 A 
ATOM     25 CL   UNL     1      -2.266  12.077  23.358  0.00  0.00    +0.000 Cl
ATOM     26  C   UNL     1      -1.392  11.776  20.819  0.00  0.00    +0.000 A 
ATOM     27  C   UNL     1      -0.593  11.194  19.824  0.00  0.00    +0.000 A 
ENDBRANCH  19  21
ENDBRANCH  18  19
ENDBRANCH  10  18
TORSDOF 3
ENDMDL
MODEL 3
REMARK VINA RESULT:      -7.4      3.763      5.895
REMARK  Name = 
REMARK  5 active torsions:
REMARK  status: ('A' for Active; 'I' for Inactive)
REMARK    1  A    between atoms: C_8  and  C_9
REMARK    2  A    between atoms: C_10  and  O_11
REMARK    3  A    between atoms: O_11  and  C_12
REMARK    4  A    between atoms: C_12  and  C_14
REMARK    5  A    between atoms: C_22  and  C_23
REMARK                            x       y       z     vdW  Elec       q    Type
REMARK                         _______ _______ _______ _____ _____    ______ ____
ROOT
ATOM      1  C   UNL     1      -7.367  11.356  20.748  0.00  0.00    +0.000 C 
ATOM      2  C   UNL     1      -6.461  12.342  20.782  0.00  0.00    +0.000 C 
ATOM      3  C   UNL     1      -5.601  12.584  21.963  0.00  0.00    +0.000 C 
ATOM      4  O   UNL     1      -5.789  12.178  23.092  0.00  0.00    +0.000 OA
ATOM      5  O   UNL     1      -4.577  13.390  21.565  0.00  0.00    +0.000 OA
ATOM      6  C   UNL     1      -4.569  13.514  20.130  0.00  0.00    +0.000 C 
ATOM      7  C   UNL     1      -3.551  12.550  19.521  0.00  0.00    +0.000 A 
ATOM      8  C   UNL     1      -2.187  12.564  19.932  0.00  0.00    +0.000 A 
ATOM      9  C   UNL     1      -1.642  13.567  20.921  0.00  0.00    +0.000 C 
ATOM     10  C   UNL     1      -1.304  11.599  19.406  0.00  0.00    +0.000 A 
ATOM     11  C   UNL     1      -1.758  10.626  18.518  0.00  0.00    +0.000 A 
ATOM     12  C   UNL     1      -3.073  10.641  18.051  0.00  0.00    +0.000 A 
ATOM     13  C   UNL     1      -3.494   9.589  17.057  0.00  0.00    +0.000 C 
ATOM     14  C   UNL     1      -3.970  11.621  18.523  0.00  0.00    +0.000 A 
ATOM     15  C   UNL     1      -5.389  11.614  17.989  0.00  0.00    +0.000 C 
ATOM     16  C   UNL     1      -6.159  12.894  18.277  0.00  0.00    +0.000 C 
ATOM     17  C   UNL     1      -6.027  13.306  19.730  0.00  0.00    +0.000 C 
ENDROOT
BRANCH  10  18
ATOM     18  O   UNL     1       0.044  11.603  19.864  0.00  0.00    +0.000 OA
BRANCH  18  19
ATOM     19  C   UNL     1       0.482  10.675  20.803  0.00  0.00    +0.000 C 
ATOM     20  O   UNL     1       0.353  10.739  22.018  0.00  0.00    +0.000 OA
BRANCH  19  21
ATOM     21  C   UNL     1       1.162   9.516  20.160  0.00  0.00    +0.000 A 
ATOM     22  C   UNL     1       1.578   9.673  18.826  0.00  0.00    +0.000 A 
ATOM     23  C   UNL     1       2.184   8.620  18.136  0.00  0.00    +0.000 A 
ATOM     24  C   UNL     1       2.371   7.399  18.778  0.00  0.00    +0.000 A 
ATOM     25 CL   UNL     1       3.080   6.087  17.921  0.00  0.00    +0.000 Cl
ATOM     26  C   UNL     1       1.976   7.233  20.105  0.00  0.00    +0.000 A 
ATOM     27  C   UNL     1       1.373   8.291  20.802  0.00  0.00    +0.000 A 
ENDBRANCH  19  21
ENDBRANCH  18  19
ENDBRANCH  10  18
TORSDOF 3
ENDMDL
MODEL 4
REMARK VINA RESULT:      -7.3      3.201      8.472
REMARK  Name = 
REMARK  5 active torsions:
REMARK  status: ('A' for Active; 'I' for Inactive)
REMARK    1  A    between atoms: C_8  and  C_9
REMARK    2  A    between atoms: C_10  and  O_11
REMARK    3  A    between atoms: O_11  and  C_12
REMARK    4  A    between atoms: C_12  and  C_14
REMARK    5  A    between atoms: C_22  and  C_23
REMARK                            x       y       z     vdW  Elec       q    Type
REMARK                         _______ _______ _______ _____ _____    ______ ____
ROOT
ATOM      1  C   UNL     1       4.320   1.485  19.711  0.00  0.00    +0.000 C 
ATOM      2  C   UNL     1       3.131   2.097  19.773  0.00  0.00    +0.000 C 
ATOM      3  C   UNL     1       2.650   2.769  21.002  0.00  0.00    +0.000 C 
ATOM      4  O   UNL     1       3.073   2.606  22.128  0.00  0.00    +0.000 OA
ATOM      5  O   UNL     1       1.610   3.574  20.647  0.00  0.00    +0.000 OA
ATOM      6  C   UNL     1       1.513   3.661  19.213  0.00  0.00    +0.000 C 
ATOM      7  C   UNL     1       2.185   4.941  18.714  0.00  0.00    +0.000 A 
ATOM      8  C   UNL     1       1.805   6.217  19.219  0.00  0.00    +0.000 A 
ATOM      9  C   UNL     1       0.677   6.402  20.207  0.00  0.00    +0.000 C 
ATOM     10  C   UNL     1       2.512   7.360  18.793  0.00  0.00    +0.000 A 
ATOM     11  C   UNL     1       3.585   7.247  17.912  0.00  0.00    +0.000 A 
ATOM     12  C   UNL     1       3.925   6.014  17.353  0.00  0.00    +0.000 A 
ATOM     13  C   UNL     1       5.068   5.961  16.371  0.00  0.00    +0.000 C 
ATOM     14  C   UNL     1       3.208   4.858  17.724  0.00  0.00    +0.000 A 
ATOM     15  C   UNL     1       3.598   3.537  17.091  0.00  0.00    +0.000 C 
ATOM     16  C   UNL     1       2.561   2.439  17.276  0.00  0.00    +0.000 C 
ATOM     17  C   UNL     1       2.104   2.344  18.719  0.00  0.00    +0.000 C 
ENDROOT
BRANCH  10  18
ATOM     18  O   UNL     1       2.145   8.620  19.345  0.00  0.00    +0.000 OA
BRANCH  18  19
ATOM     19  C   UNL     1       1.624   9.627  18.539  0.00  0.00    +0.000 C 
ATOM     20  O   UNL     1       1.978   9.922  17.406  0.00  0.00    +0.000 OA
BRANCH  19  21
ATOM     21  C   UNL     1       0.519  10.363  19.218  0.00  0.00    +0.000 A 
ATOM     22  C   UNL     1      -0.678  10.531  18.499  0.00  0.00    +0.000 A 
ATOM     23  C   UNL     1      -1.746  11.247  19.046  0.00  0.00    +0.000 A 
ATOM     24  C   UNL     1      -1.618  11.804  20.315  0.00  0.00    +0.000 A 
ATOM     25 CL   UNL     1      -2.915  12.720  20.976  0.00  0.00    +0.000 Cl
ATOM     26  C   UNL     1      -0.441  11.634  21.045  0.00  0.00    +0.000 A 
ATOM     27  C   UNL     1       0.630  10.910  20.500  0.00  0.00    +0.000 A 
ENDBRANCH  19  21
ENDBRANCH  18  19
ENDBRANCH  10  18
TORSDOF 3
ENDMDL
MODEL 5
REMARK VINA RESULT:      -7.3      1.363      1.579
REMARK  Name = 
REMARK  5 active torsions:
REMARK  status: ('A' for Active; 'I' for Inactive)
REMARK    1  A    between atoms: C_8  and  C_9
REMARK    2  A    between atoms: C_10  and  O_11
REMARK    3  A    between atoms: O_11  and  C_12
REMARK    4  A    between atoms: C_12  and  C_14
REMARK    5  A    between atoms: C_22  and  C_23
REMARK                            x       y       z     vdW  Elec       q    Type
REMARK                         _______ _______ _______ _____ _____    ______ ____
ROOT
ATOM      1  C   UNL     1      -0.209  14.578  21.904  0.00  0.00    +0.000 C 
ATOM      2  C   UNL     1      -0.533  13.841  20.834  0.00  0.00    +0.000 C 
ATOM      3  C   UNL     1       0.321  13.785  19.625  0.00  0.00    +0.000 C 
ATOM      4  O   UNL     1       1.192  14.572  19.317  0.00  0.00    +0.000 OA
ATOM      5  O   UNL     1      -0.081  12.710  18.891  0.00  0.00    +0.000 OA
ATOM      6  C   UNL     1      -1.002  11.902  19.650  0.00  0.00    +0.000 C 
ATOM      7  C   UNL     1      -0.268  10.721  20.286  0.00  0.00    +0.000 A 
ATOM      8  C   UNL     1       0.498   9.818  19.495  0.00  0.00    +0.000 A 
ATOM      9  C   UNL     1       0.575   9.914  17.990  0.00  0.00    +0.000 C 
ATOM     10  C   UNL     1       1.227   8.796  20.137  0.00  0.00    +0.000 A 
ATOM     11  C   UNL     1       1.224   8.681  21.525  0.00  0.00    +0.000 A 
ATOM     12  C   UNL     1       0.423   9.512  22.310  0.00  0.00    +0.000 A 
ATOM     13  C   UNL     1       0.427   9.311  23.803  0.00  0.00    +0.000 C 
ATOM     14  C   UNL     1      -0.353  10.516  21.695  0.00  0.00    +0.000 A 
ATOM     15  C   UNL     1      -1.218  11.396  22.576  0.00  0.00    +0.000 C 
ATOM     16  C   UNL     1      -2.265  12.191  21.810  0.00  0.00    +0.000 C 
ATOM     17  C   UNL     1      -1.661  12.890  20.608  0.00  0.00    +0.000 C 
ENDROOT
BRANCH  10  18
ATOM     18  O   UNL     1       2.022   7.932  19.330  0.00  0.00    +0.000 OA
BRANCH  18  19
ATOM     19  C   UNL     1       2.295   6.630  19.735  0.00  0.00    +0.000 C 
ATOM     20  O   UNL     1       1.676   5.967  20.556  0.00  0.00    +0.000 OA
BRANCH  19  21
ATOM     21  C   UNL     1       3.486   6.071  19.034  0.00  0.00    +0.000 A 
ATOM     22  C   UNL     1       3.831   6.643  17.796  0.00  0.00    +0.000 A 
ATOM     23  C   UNL     1       4.906   6.148  17.054  0.00  0.00    +0.000 A 
ATOM     24  C   UNL     1       5.639   5.072  17.545  0.00  0.00    +0.000 A 
ATOM     25 CL   UNL     1       6.939   4.433  16.616  0.00  0.00    +0.000 Cl
ATOM     26  C   UNL     1       5.317   4.503  18.778  0.00  0.00    +0.000 A 
ATOM     27  C   UNL     1       4.242   5.002  19.528  0.00  0.00    +0.000 A 
ENDBRANCH  19  21
ENDBRANCH  18  19
ENDBRANCH  10  18
TORSDOF 3
ENDMDL
MODEL 6
REMARK VINA RESULT:      -7.2      4.343      7.120
REMARK  Name = 
REMARK  5 active torsions:
REMARK  status: ('A' for Active; 'I' for Inactive)
REMARK    1  A    between atoms: C_8  and  C_9
REMARK    2  A    between atoms: C_10  and  O_11
REMARK    3  A    between atoms: O_11  and  C_12
REMARK    4  A    between atoms: C_12  and  C_14
REMARK    5  A    between atoms: C_22  and  C_23
REMARK                            x       y       z     vdW  Elec       q    Type
REMARK                         _______ _______ _______ _____ _____    ______ ____
ROOT
ATOM      1  C   UNL     1       0.520   2.989  19.455  0.00  0.00    +0.000 C 
ATOM      2  C   UNL     1       1.770   3.091  19.924  0.00  0.00    +0.000 C 
ATOM      3  C   UNL     1       2.879   2.256  19.406  0.00  0.00    +0.000 C 
ATOM      4  O   UNL     1       2.775   1.227  18.772  0.00  0.00    +0.000 OA
ATOM      5  O   UNL     1       4.046   2.830  19.814  0.00  0.00    +0.000 OA
ATOM      6  C   UNL     1       3.793   4.131  20.378  0.00  0.00    +0.000 C 
ATOM      7  C   UNL     1       4.057   5.219  19.337  0.00  0.00    +0.000 A 
ATOM      8  C   UNL     1       5.312   5.309  18.669  0.00  0.00    +0.000 A 
ATOM      9  C   UNL     1       6.476   4.403  18.991  0.00  0.00    +0.000 C 
ATOM     10  C   UNL     1       5.478   6.275  17.654  0.00  0.00    +0.000 A 
ATOM     11  C   UNL     1       4.428   7.113  17.288  0.00  0.00    +0.000 A 
ATOM     12  C   UNL     1       3.216   7.086  17.980  0.00  0.00    +0.000 A 
ATOM     13  C   UNL     1       2.132   8.048  17.567  0.00  0.00    +0.000 C 
ATOM     14  C   UNL     1       3.033   6.162  19.030  0.00  0.00    +0.000 A 
ATOM     15  C   UNL     1       1.707   6.165  19.766  0.00  0.00    +0.000 C 
ATOM     16  C   UNL     1       1.734   5.401  21.081  0.00  0.00    +0.000 C 
ATOM     17  C   UNL     1       2.368   4.033  20.915  0.00  0.00    +0.000 C 
ENDROOT
BRANCH  10  18
ATOM     18  O   UNL     1       6.726   6.318  16.969  0.00  0.00    +0.000 OA
BRANCH  18  19
ATOM     19  C   UNL     1       7.311   5.155  16.479  0.00  0.00    +0.000 C 
ATOM     20  O   UNL     1       8.210   4.507  16.998  0.00  0.00    +0.000 OA
BRANCH  19  21
ATOM     21  C   UNL     1       6.706   4.734  15.183  0.00  0.00    +0.000 A 
ATOM     22  C   UNL     1       5.399   4.218  15.222  0.00  0.00    +0.000 A 
ATOM     23  C   UNL     1       4.776   3.760  14.058  0.00  0.00    +0.000 A 
ATOM     24  C   UNL     1       5.463   3.811  12.848  0.00  0.00    +0.000 A 
ATOM     25 CL   UNL     1       4.716   3.212  11.419  0.00  0.00    +0.000 Cl
ATOM     26  C   UNL     1       6.756   4.333  12.793  0.00  0.00    +0.000 A 
ATOM     27  C   UNL     1       7.381   4.800  13.959  0.00  0.00    +0.000 A 
ENDBRANCH  19  21
ENDBRANCH  18  19
ENDBRANCH  10  18
TORSDOF 3
ENDMDL
MODEL 7
REMARK VINA RESULT:      -7.1      1.265      1.345
REMARK  Name = 
REMARK  5 active torsions:
REMARK  status: ('A' for Active; 'I' for Inactive)
REMARK    1  A    between atoms: C_8  and  C_9
REMARK    2  A    between atoms: C_10  and  O_11
REMARK    3  A    between atoms: O_11  and  C_12
REMARK    4  A    between atoms: C_12  and  C_14
REMARK    5  A    between atoms: C_22  and  C_23
REMARK                            x       y       z     vdW  Elec       q    Type
REMARK                         _______ _______ _______ _____ _____    ______ ____
ROOT
ATOM      1  C   UNL     1       1.806  14.511  21.651  0.00  0.00    +0.000 C 
ATOM      2  C   UNL     1       1.420  13.943  20.501  0.00  0.00    +0.000 C 
ATOM      3  C   UNL     1       2.385  13.572  19.440  0.00  0.00    +0.000 C 
ATOM      4  O   UNL     1       3.521  13.982  19.320  0.00  0.00    +0.000 OA
ATOM      5  O   UNL     1       1.748  12.719  18.589  0.00  0.00    +0.000 OA
ATOM      6  C   UNL     1       0.484  12.310  19.146  0.00  0.00    +0.000 C 
ATOM      7  C   UNL     1       0.620  10.943  19.817  0.00  0.00    +0.000 A 
ATOM      8  C   UNL     1       1.126   9.819  19.104  0.00  0.00    +0.000 A 
ATOM      9  C   UNL     1       1.483   9.876  17.638  0.00  0.00    +0.000 C 
ATOM     10  C   UNL     1       1.314   8.602  19.790  0.00  0.00    +0.000 A 
ATOM     11  C   UNL     1       1.036   8.500  21.151  0.00  0.00    +0.000 A 
ATOM     12  C   UNL     1       0.474   9.570  21.849  0.00  0.00    +0.000 A 
ATOM     13  C   UNL     1       0.154   9.386  23.310  0.00  0.00    +0.000 C 
ATOM     14  C   UNL     1       0.231  10.788  21.181  0.00  0.00    +0.000 A 
ATOM     15  C   UNL     1      -0.389  11.927  21.966  0.00  0.00    +0.000 C 
ATOM     16  C   UNL     1      -0.931  13.050  21.094  0.00  0.00    +0.000 C 
ATOM     17  C   UNL     1       0.079  13.474  20.045  0.00  0.00    +0.000 C 
ENDROOT
BRANCH  10  18
ATOM     18  O   UNL     1       1.863   7.504  19.068  0.00  0.00    +0.000 OA
BRANCH  18  19
ATOM     19  C   UNL     1       2.395   6.406  19.736  0.00  0.00    +0.000 C 
ATOM     20  O   UNL     1       1.948   5.864  20.738  0.00  0.00    +0.000 OA
BRANCH  19  21
ATOM     21  C   UNL     1       3.639   5.910  19.082  0.00  0.00    +0.000 A 
ATOM     22  C   UNL     1       4.065   6.578  17.920  0.00  0.00    +0.000 A 
ATOM     23  C   UNL     1       5.196   6.147  17.221  0.00  0.00    +0.000 A 
ATOM     24  C   UNL     1       5.903   5.040  17.679  0.00  0.00    +0.000 A 
ATOM     25 CL   UNL     1       7.273   4.482  16.800  0.00  0.00    +0.000 Cl
ATOM     26  C   UNL     1       5.500   4.376  18.838  0.00  0.00    +0.000 A 
ATOM     27  C   UNL     1       4.369   4.810  19.545  0.00  0.00    +0.000 A 
ENDBRANCH  19  21
ENDBRANCH  18  19
ENDBRANCH  10  18
TORSDOF 3
ENDMDL
MODEL 8
REMARK VINA RESULT:      -7.0      1.357      1.578
REMARK  Name = 
REMARK  5 active torsions:
REMARK  status: ('A' for Active; 'I' for Inactive)
REMARK    1  A    between atoms: C_8  and  C_9
REMARK    2  A    between atoms: C_10  and  O_11
REMARK    3  A    between atoms: O_11  and  C_12
REMARK    4  A    between atoms: C_12  and  C_14
REMARK    5  A    between atoms: C_22  and  C_23
REMARK                            x       y       z     vdW  Elec       q    Type
REMARK                         _______ _______ _______ _____ _____    ______ ____
ROOT
ATOM      1  C   UNL     1       0.921  14.616  21.888  0.00  0.00    +0.000 C 
ATOM      2  C   UNL     1       0.554  14.015  20.749  0.00  0.00    +0.000 C 
ATOM      3  C   UNL     1       1.490  13.827  19.617  0.00  0.00    +0.000 C 
ATOM      4  O   UNL     1       2.535  14.418  19.436  0.00  0.00    +0.000 OA
ATOM      5  O   UNL     1       0.942  12.900  18.783  0.00  0.00    +0.000 OA
ATOM      6  C   UNL     1      -0.199  12.280  19.407  0.00  0.00    +0.000 C 
ATOM      7  C   UNL     1       0.199  10.940  20.026  0.00  0.00    +0.000 A 
ATOM      8  C   UNL     1       0.829   9.927  19.247  0.00  0.00    +0.000 A 
ATOM      9  C   UNL     1       1.071  10.071  17.764  0.00  0.00    +0.000 C 
ATOM     10  C   UNL     1       1.256   8.743  19.882  0.00  0.00    +0.000 A 
ATOM     11  C   UNL     1       1.092   8.570  21.254  0.00  0.00    +0.000 A 
ATOM     12  C   UNL     1       0.415   9.521  22.019  0.00  0.00    +0.000 A 
ATOM     13  C   UNL     1       0.229   9.258  23.492  0.00  0.00    +0.000 C 
ATOM     14  C   UNL     1      -0.066  10.697  21.406  0.00  0.00    +0.000 A 
ATOM     15  C   UNL     1      -0.805  11.704  22.264  0.00  0.00    +0.000 C 
ATOM     16  C   UNL     1      -1.577  12.742  21.464  0.00  0.00    +0.000 C 
ATOM     17  C   UNL     1      -0.723  13.345  20.366  0.00  0.00    +0.000 C 
ENDROOT
BRANCH  10  18
ATOM     18  O   UNL     1       1.923   7.763  19.093  0.00  0.00    +0.000 OA
BRANCH  18  19
ATOM     19  C   UNL     1       2.385   6.582  19.664  0.00  0.00    +0.000 C 
ATOM     20  O   UNL     1       1.893   5.976  20.606  0.00  0.00    +0.000 OA
BRANCH  19  21
ATOM     21  C   UNL     1       3.612   6.081  18.982  0.00  0.00    +0.000 A 
ATOM     22  C   UNL     1       4.288   5.004  19.582  0.00  0.00    +0.000 A 
ATOM     23  C   UNL     1       5.470   4.504  19.031  0.00  0.00    +0.000 A 
ATOM     24  C   UNL     1       5.987   5.084  17.877  0.00  0.00    +0.000 A 
ATOM     25 CL   UNL     1       7.463   4.498  17.216  0.00  0.00    +0.000 Cl
ATOM     26  C   UNL     1       5.320   6.145  17.262  0.00  0.00    +0.000 A 
ATOM     27  C   UNL     1       4.129   6.645  17.810  0.00  0.00    +0.000 A 
ENDBRANCH  19  21
ENDBRANCH  18  19
ENDBRANCH  10  18
TORSDOF 3
ENDMDL
MODEL 9
REMARK VINA RESULT:      -7.0      3.088      8.076
REMARK  Name = 
REMARK  5 active torsions:
REMARK  status: ('A' for Active; 'I' for Inactive)
REMARK    1  A    between atoms: C_8  and  C_9
REMARK    2  A    between atoms: C_10  and  O_11
REMARK    3  A    between atoms: O_11  and  C_12
REMARK    4  A    between atoms: C_12  and  C_14
REMARK    5  A    between atoms: C_22  and  C_23
REMARK                            x       y       z     vdW  Elec       q    Type
REMARK                         _______ _______ _______ _____ _____    ______ ____
ROOT
ATOM      1  C   UNL     1       4.058   2.016  19.968  0.00  0.00    +0.000 C 
ATOM      2  C   UNL     1       2.867   2.628  20.012  0.00  0.00    +0.000 C 
ATOM      3  C   UNL     1       2.382   3.328  21.223  0.00  0.00    +0.000 C 
ATOM      4  O   UNL     1       2.800   3.191  22.355  0.00  0.00    +0.000 OA
ATOM      5  O   UNL     1       1.343   4.124  20.846  0.00  0.00    +0.000 OA
ATOM      6  C   UNL     1       1.250   4.178  19.410  0.00  0.00    +0.000 C 
ATOM      7  C   UNL     1       1.923   5.447  18.885  0.00  0.00    +0.000 A 
ATOM      8  C   UNL     1       1.540   6.734  19.359  0.00  0.00    +0.000 A 
ATOM      9  C   UNL     1       0.409   6.940  20.338  0.00  0.00    +0.000 C 
ATOM     10  C   UNL     1       2.249   7.867  18.909  0.00  0.00    +0.000 A 
ATOM     11  C   UNL     1       3.325   7.735  18.035  0.00  0.00    +0.000 A 
ATOM     12  C   UNL     1       3.668   6.489  17.506  0.00  0.00    +0.000 A 
ATOM     13  C   UNL     1       4.814   6.415  16.529  0.00  0.00    +0.000 C 
ATOM     14  C   UNL     1       2.950   5.342  17.900  0.00  0.00    +0.000 A 
ATOM     15  C   UNL     1       3.343   4.007  17.299  0.00  0.00    +0.000 C 
ATOM     16  C   UNL     1       2.307   2.913  17.506  0.00  0.00    +0.000 C 
ATOM     17  C   UNL     1       1.844   2.851  18.948  0.00  0.00    +0.000 C 
ENDROOT
BRANCH  10  18
ATOM     18  O   UNL     1       1.879   9.139  19.431  0.00  0.00    +0.000 OA
BRANCH  18  19
ATOM     19  C   UNL     1       1.614  10.208  18.582  0.00  0.00    +0.000 C 
ATOM     20  O   UNL     1       2.432  10.914  18.006  0.00  0.00    +0.000 OA
BRANCH  19  21
ATOM     21  C   UNL     1       0.150  10.435  18.418  0.00  0.00    +0.000 A 
ATOM     22  C   UNL     1      -0.444  11.415  19.233  0.00  0.00    +0.000 A 
ATOM     23  C   UNL     1      -1.819  11.658  19.173  0.00  0.00    +0.000 A 
ATOM     24  C   UNL     1      -2.608  10.917  18.299  0.00  0.00    +0.000 A 
ATOM     25 CL   UNL     1      -4.306  11.184  18.250  0.00  0.00    +0.000 Cl
ATOM     26  C   UNL     1      -2.030   9.950  17.475  0.00  0.00    +0.000 A 
ATOM     27  C   UNL     1      -0.650   9.709  17.529  0.00  0.00    +0.000 A 
ENDBRANCH  19  21
ENDBRANCH  18  19
ENDBRANCH  10  18
TORSDOF 3
ENDMDL
