MODEL 1
REMARK VINA RESULT:      -9.2      0.000      0.000
REMARK  Name = 
REMARK  5 active torsions:
REMARK  status: ('A' for Active; 'I' for Inactive)
REMARK    1  A    between atoms: C_6  and  C_7
REMARK    2  A    between atoms: C_7  and  O_8
REMARK    3  A    between atoms: O_8  and  C_9
REMARK    4  A    between atoms: C_12  and  N_13
REMARK    5  A    between atoms: N_13  and  C_14
REMARK                            x       y       z     vdW  Elec       q    Type
REMARK                         _______ _______ _______ _____ _____    ______ ____
ROOT
ATOM      1  C   UNL     1       7.770   7.174  18.209  0.00  0.00    +0.000 A 
ATOM      2  C   UNL     1       6.894   7.548  17.178  0.00  0.00    +0.000 A 
ATOM      3  C   UNL     1       5.896   6.678  16.715  0.00  0.00    +0.000 A 
ATOM      4  C   UNL     1       5.775   5.397  17.248  0.00  0.00    +0.000 A 
ATOM      5  C   UNL     1       6.628   5.043  18.304  0.00  0.00    +0.000 A 
ATOM      6  C   UNL     1       7.601   5.917  18.800  0.00  0.00    +0.000 A 
ATOM      7 CL   UNL     1       8.446   5.353  20.201  0.00  0.00    +0.000 Cl
ENDROOT
BRANCH   4   8
ATOM      8  N   UNL     1       4.733   4.529  16.850  0.00  0.00    +0.000 N 
ATOM      9  H   UNL     1       4.962   3.933  16.063  0.00  0.00    +0.000 HD
BRANCH   8  10
ATOM     10  C   UNL     1       3.899   3.829  17.759  0.00  0.00    +0.000 A 
ATOM     11  N   UNL     1       3.950   2.479  17.728  0.00  0.00    +0.000 NA
ATOM     12  C   UNL     1       3.237   1.828  18.643  0.00  0.00    +0.000 A 
ATOM     13  N   UNL     1       2.485   2.385  19.594  0.00  0.00    +0.000 NA
ATOM     14  C   UNL     1       2.428   3.720  19.611  0.00  0.00    +0.000 A 
ATOM     15  C   UNL     1       1.693   4.329  20.619  0.00  0.00    +0.000 A 
ATOM     16  C   UNL     1       1.583   5.719  20.716  0.00  0.00    +0.000 A 
ATOM     17  C   UNL     1       2.216   6.526  19.781  0.00  0.00    +0.000 A 
ATOM     18  C   UNL     1       2.973   5.939  18.767  0.00  0.00    +0.000 A 
ATOM     19  C   UNL     1       3.097   4.528  18.678  0.00  0.00    +0.000 A 
ENDBRANCH   8  10
ENDBRANCH   4   8
BRANCH   1  20
ATOM     20  O   UNL     1       8.672   8.153  18.536  0.00  0.00    +0.000 OA
BRANCH  20  21
ATOM     21  C   UNL     1       8.347   9.484  18.135  0.00  0.00    +0.000 C 
BRANCH  21  27
ATOM     22  F   UNL     1      10.224  12.086  21.841  0.00  0.00    +0.000 F 
ATOM     23  C   UNL     1      10.256  11.735  20.548  0.00  0.00    +0.000 A 
ATOM     24  C   UNL     1      11.255  12.245  19.727  0.00  0.00    +0.000 A 
ATOM     25  C   UNL     1      11.299  11.871  18.386  0.00  0.00    +0.000 A 
ATOM     26  C   UNL     1      10.341  10.993  17.880  0.00  0.00    +0.000 A 
ATOM     27  C   UNL     1       9.322  10.489  18.704  0.00  0.00    +0.000 A 
ATOM     28  C   UNL     1       9.295  10.858  20.054  0.00  0.00    +0.000 A 
ENDBRANCH  21  27
ENDBRANCH  20  21
ENDBRANCH   1  20
TORSDOF 5
ENDMDL
MODEL 2
REMARK VINA RESULT:      -9.1      0.895      1.271
REMARK  Name = 
REMARK  5 active torsions:
REMARK  status: ('A' for Active; 'I' for Inactive)
REMARK    1  A    between atoms: C_6  and  C_7
REMARK    2  A    between atoms: C_7  and  O_8
REMARK    3  A    between atoms: O_8  and  C_9
REMARK    4  A    between atoms: C_12  and  N_13
REMARK    5  A    between atoms: N_13  and  C_14
REMARK                            x       y       z     vdW  Elec       q    Type
REMARK                         _______ _______ _______ _____ _____    ______ ____
ROOT
ATOM      1  C   UNL     1       7.744   7.206  18.252  0.00  0.00    +0.000 A 
ATOM      2  C   UNL     1       6.879   7.592  17.217  0.00  0.00    +0.000 A 
ATOM      3  C   UNL     1       5.899   6.720  16.718  0.00  0.00    +0.000 A 
ATOM      4  C   UNL     1       5.787   5.425  17.220  0.00  0.00    +0.000 A 
ATOM      5  C   UNL     1       6.630   5.058  18.279  0.00  0.00    +0.000 A 
ATOM      6  C   UNL     1       7.583   5.933  18.810  0.00  0.00    +0.000 A 
ATOM      7 CL   UNL     1       8.415   5.347  20.210  0.00  0.00    +0.000 Cl
ENDROOT
BRANCH   4   8
ATOM      8  N   UNL     1       4.763   4.554  16.786  0.00  0.00    +0.000 N 
ATOM      9  H   UNL     1       5.025   3.951  16.015  0.00  0.00    +0.000 HD
BRANCH   8  10
ATOM     10  C   UNL     1       3.891   3.862  17.665  0.00  0.00    +0.000 A 
ATOM     11  N   UNL     1       3.892   2.513  17.598  0.00  0.00    +0.000 NA
ATOM     12  C   UNL     1       3.143   1.865  18.486  0.00  0.00    +0.000 A 
ATOM     13  N   UNL     1       2.400   2.424  19.442  0.00  0.00    +0.000 NA
ATOM     14  C   UNL     1       2.392   3.760  19.494  0.00  0.00    +0.000 A 
ATOM     15  C   UNL     1       1.666   4.370  20.508  0.00  0.00    +0.000 A 
ATOM     16  C   UNL     1       1.606   5.759  20.641  0.00  0.00    +0.000 A 
ATOM     17  C   UNL     1       2.282   6.566  19.737  0.00  0.00    +0.000 A 
ATOM     18  C   UNL     1       3.031   5.978  18.717  0.00  0.00    +0.000 A 
ATOM     19  C   UNL     1       3.103   4.566  18.592  0.00  0.00    +0.000 A 
ENDBRANCH   8  10
ENDBRANCH   4   8
BRANCH   1  20
ATOM     20  O   UNL     1       8.629   8.188  18.615  0.00  0.00    +0.000 OA
BRANCH  20  21
ATOM     21  C   UNL     1       8.403   9.487  18.068  0.00  0.00    +0.000 C 
BRANCH  21  27
ATOM     22  F   UNL     1      11.525  13.245  17.671  0.00  0.00    +0.000 F 
ATOM     23  C   UNL     1      10.854  12.382  18.446  0.00  0.00    +0.000 A 
ATOM     24  C   UNL     1      10.966  12.478  19.829  0.00  0.00    +0.000 A 
ATOM     25  C   UNL     1      10.259  11.592  20.638  0.00  0.00    +0.000 A 
ATOM     26  C   UNL     1       9.449  10.617  20.056  0.00  0.00    +0.000 A 
ATOM     27  C   UNL     1       9.346  10.509  18.659  0.00  0.00    +0.000 A 
ATOM     28  C   UNL     1      10.049  11.414  17.854  0.00  0.00    +0.000 A 
ENDBRANCH  21  27
ENDBRANCH  20  21
ENDBRANCH   1  20
TORSDOF 5
ENDMDL
MODEL 3
REMARK VINA RESULT:      -9.0      6.020      8.721
REMARK  Name = 
REMARK  5 active torsions:
REMARK  status: ('A' for Active; 'I' for Inactive)
REMARK    1  A    between atoms: C_6  and  C_7
REMARK    2  A    between atoms: C_7  and  O_8
REMARK    3  A    between atoms: O_8  and  C_9
REMARK    4  A    between atoms: C_12  and  N_13
REMARK    5  A    between atoms: N_13  and  C_14
REMARK                            x       y       z     vdW  Elec       q    Type
REMARK                         _______ _______ _______ _____ _____    ______ ____
ROOT
ATOM      1  C   UNL     1       0.574   9.931  19.225  0.00  0.00    +0.000 A 
ATOM      2  C   UNL     1       1.291   9.316  18.187  0.00  0.00    +0.000 A 
ATOM      3  C   UNL     1       2.106   8.199  18.421  0.00  0.00    +0.000 A 
ATOM      4  C   UNL     1       2.253   7.692  19.711  0.00  0.00    +0.000 A 
ATOM      5  C   UNL     1       1.505   8.287  20.737  0.00  0.00    +0.000 A 
ATOM      6  C   UNL     1       0.659   9.377  20.508  0.00  0.00    +0.000 A 
ATOM      7 CL   UNL     1      -0.290   9.866  21.869  0.00  0.00    +0.000 Cl
ENDROOT
BRANCH   4   8
ATOM      8  N   UNL     1       3.009   6.525  19.961  0.00  0.00    +0.000 N 
ATOM      9  H   UNL     1       2.796   6.068  20.840  0.00  0.00    +0.000 HD
BRANCH   8  10
ATOM     10  C   UNL     1       3.311   5.553  18.973  0.00  0.00    +0.000 A 
ATOM     11  N   UNL     1       4.388   5.784  18.190  0.00  0.00    +0.000 NA
ATOM     12  C   UNL     1       4.721   4.829  17.328  0.00  0.00    +0.000 A 
ATOM     13  N   UNL     1       4.097   3.659  17.171  0.00  0.00    +0.000 NA
ATOM     14  C   UNL     1       3.025   3.443  17.938  0.00  0.00    +0.000 A 
ATOM     15  C   UNL     1       2.383   2.217  17.833  0.00  0.00    +0.000 A 
ATOM     16  C   UNL     1       1.258   1.903  18.599  0.00  0.00    +0.000 A 
ATOM     17  C   UNL     1       0.752   2.838  19.492  0.00  0.00    +0.000 A 
ATOM     18  C   UNL     1       1.387   4.073  19.628  0.00  0.00    +0.000 A 
ATOM     19  C   UNL     1       2.539   4.384  18.860  0.00  0.00    +0.000 A 
ENDBRANCH   8  10
ENDBRANCH   4   8
BRANCH   1  20
ATOM     20  O   UNL     1      -0.174  11.001  18.810  0.00  0.00    +0.000 OA
BRANCH  20  21
ATOM     21  C   UNL     1      -1.560  10.984  19.152  0.00  0.00    +0.000 C 
BRANCH  21  27
ATOM     22  F   UNL     1      -2.498   9.860  14.474  0.00  0.00    +0.000 F 
ATOM     23  C   UNL     1      -2.895  10.417  15.626  0.00  0.00    +0.000 A 
ATOM     24  C   UNL     1      -4.170  10.964  15.716  0.00  0.00    +0.000 A 
ATOM     25  C   UNL     1      -4.591  11.531  16.916  0.00  0.00    +0.000 A 
ATOM     26  C   UNL     1      -3.730  11.549  18.013  0.00  0.00    +0.000 A 
ATOM     27  C   UNL     1      -2.436  11.011  17.920  0.00  0.00    +0.000 A 
ATOM     28  C   UNL     1      -2.028  10.429  16.714  0.00  0.00    +0.000 A 
ENDBRANCH  21  27
ENDBRANCH  20  21
ENDBRANCH   1  20
TORSDOF 5
ENDMDL
MODEL 4
REMARK VINA RESULT:      -8.9      5.768      8.776
REMARK  Name = 
REMARK  5 active torsions:
REMARK  status: ('A' for Active; 'I' for Inactive)
REMARK    1  A    between atoms: C_6  and  C_7
REMARK    2  A    between atoms: C_7  and  O_8
REMARK    3  A    between atoms: O_8  and  C_9
REMARK    4  A    between atoms: C_12  and  N_13
REMARK    5  A    between atoms: N_13  and  C_14
REMARK                            x       y       z     vdW  Elec       q    Type
REMARK                         _______ _______ _______ _____ _____    ______ ____
ROOT
ATOM      1  C   UNL     1       0.697   9.751  19.152  0.00  0.00    +0.000 A 
ATOM      2  C   UNL     1       1.401   9.166  18.088  0.00  0.00    +0.000 A 
ATOM      3  C   UNL     1       2.206   8.034  18.278  0.00  0.00    +0.000 A 
ATOM      4  C   UNL     1       2.355   7.480  19.548  0.00  0.00    +0.000 A 
ATOM      5  C   UNL     1       1.620   8.047  20.600  0.00  0.00    +0.000 A 
ATOM      6  C   UNL     1       0.784   9.152  20.414  0.00  0.00    +0.000 A 
ATOM      7 CL   UNL     1      -0.152   9.604  21.798  0.00  0.00    +0.000 Cl
ENDROOT
BRANCH   4   8
ATOM      8  N   UNL     1       3.101   6.298  19.753  0.00  0.00    +0.000 N 
ATOM      9  H   UNL     1       3.041   5.922  20.693  0.00  0.00    +0.000 HD
BRANCH   8  10
ATOM     10  C   UNL     1       3.174   5.238  18.813  0.00  0.00    +0.000 A 
ATOM     11  N   UNL     1       2.119   4.397  18.751  0.00  0.00    +0.000 NA
ATOM     12  C   UNL     1       2.150   3.461  17.807  0.00  0.00    +0.000 A 
ATOM     13  N   UNL     1       3.121   3.284  16.909  0.00  0.00    +0.000 NA
ATOM     14  C   UNL     1       4.168   4.110  16.984  0.00  0.00    +0.000 A 
ATOM     15  C   UNL     1       5.171   3.982  16.034  0.00  0.00    +0.000 A 
ATOM     16  C   UNL     1       6.299   4.807  16.034  0.00  0.00    +0.000 A 
ATOM     17  C   UNL     1       6.437   5.783  17.011  0.00  0.00    +0.000 A 
ATOM     18  C   UNL     1       5.436   5.943  17.969  0.00  0.00    +0.000 A 
ATOM     19  C   UNL     1       4.283   5.115  17.959  0.00  0.00    +0.000 A 
ENDBRANCH   8  10
ENDBRANCH   4   8
BRANCH   1  20
ATOM     20  O   UNL     1      -0.043  10.843  18.779  0.00  0.00    +0.000 OA
BRANCH  20  21
ATOM     21  C   UNL     1      -1.417  10.849  19.167  0.00  0.00    +0.000 C 
BRANCH  21  27
ATOM     22  F   UNL     1      -5.377  12.235  16.633  0.00  0.00    +0.000 F 
ATOM     23  C   UNL     1      -4.268  11.488  16.719  0.00  0.00    +0.000 A 
ATOM     24  C   UNL     1      -3.907  10.677  15.648  0.00  0.00    +0.000 A 
ATOM     25  C   UNL     1      -2.747   9.910  15.728  0.00  0.00    +0.000 A 
ATOM     26  C   UNL     1      -1.962   9.960  16.879  0.00  0.00    +0.000 A 
ATOM     27  C   UNL     1      -2.332  10.767  17.968  0.00  0.00    +0.000 A 
ATOM     28  C   UNL     1      -3.492  11.546  17.871  0.00  0.00    +0.000 A 
ENDBRANCH  21  27
ENDBRANCH  20  21
ENDBRANCH   1  20
TORSDOF 5
ENDMDL
MODEL 5
REMARK VINA RESULT:      -8.9      6.241      8.793
REMARK  Name = 
REMARK  5 active torsions:
REMARK  status: ('A' for Active; 'I' for Inactive)
REMARK    1  A    between atoms: C_6  and  C_7
REMARK    2  A    between atoms: C_7  and  O_8
REMARK    3  A    between atoms: O_8  and  C_9
REMARK    4  A    between atoms: C_12  and  N_13
REMARK    5  A    between atoms: N_13  and  C_14
REMARK                            x       y       z     vdW  Elec       q    Type
REMARK                         _______ _______ _______ _____ _____    ______ ____
ROOT
ATOM      1  C   UNL     1       0.535  10.064  19.314  0.00  0.00    +0.000 A 
ATOM      2  C   UNL     1       1.230   9.491  18.237  0.00  0.00    +0.000 A 
ATOM      3  C   UNL     1       2.061   8.375  18.414  0.00  0.00    +0.000 A 
ATOM      4  C   UNL     1       2.246   7.827  19.682  0.00  0.00    +0.000 A 
ATOM      5  C   UNL     1       1.520   8.381  20.747  0.00  0.00    +0.000 A 
ATOM      6  C   UNL     1       0.658   9.469  20.575  0.00  0.00    +0.000 A 
ATOM      7 CL   UNL     1      -0.259   9.905  21.976  0.00  0.00    +0.000 Cl
ENDROOT
BRANCH   4   8
ATOM      8  N   UNL     1       3.019   6.660  19.874  0.00  0.00    +0.000 N 
ATOM      9  H   UNL     1       2.888   6.215  20.775  0.00  0.00    +0.000 HD
BRANCH   8  10
ATOM     10  C   UNL     1       3.223   5.675  18.874  0.00  0.00    +0.000 A 
ATOM     11  N   UNL     1       4.186   5.916  17.959  0.00  0.00    +0.000 NA
ATOM     12  C   UNL     1       4.437   4.951  17.079  0.00  0.00    +0.000 A 
ATOM     13  N   UNL     1       3.831   3.763  17.024  0.00  0.00    +0.000 NA
ATOM     14  C   UNL     1       2.869   3.536  17.923  0.00  0.00    +0.000 A 
ATOM     15  C   UNL     1       2.255   2.292  17.922  0.00  0.00    +0.000 A 
ATOM     16  C   UNL     1       1.243   1.966  18.829  0.00  0.00    +0.000 A 
ATOM     17  C   UNL     1       0.826   2.907  19.760  0.00  0.00    +0.000 A 
ATOM     18  C   UNL     1       1.438   4.160  19.793  0.00  0.00    +0.000 A 
ATOM     19  C   UNL     1       2.476   4.485  18.880  0.00  0.00    +0.000 A 
ENDBRANCH   8  10
ENDBRANCH   4   8
BRANCH   1  20
ATOM     20  O   UNL     1      -0.234  11.140  18.953  0.00  0.00    +0.000 OA
BRANCH  20  21
ATOM     21  C   UNL     1      -1.622  11.074  19.282  0.00  0.00    +0.000 C 
BRANCH  21  27
ATOM     22  F   UNL     1      -5.659  12.026  16.670  0.00  0.00    +0.000 F 
ATOM     23  C   UNL     1      -4.457  11.440  16.760  0.00  0.00    +0.000 A 
ATOM     24  C   UNL     1      -3.950  10.750  15.664  0.00  0.00    +0.000 A 
ATOM     25  C   UNL     1      -2.695  10.153  15.749  0.00  0.00    +0.000 A 
ATOM     26  C   UNL     1      -1.962  10.248  16.931  0.00  0.00    +0.000 A 
ATOM     27  C   UNL     1      -2.479  10.931  18.045  0.00  0.00    +0.000 A 
ATOM     28  C   UNL     1      -3.734  11.542  17.944  0.00  0.00    +0.000 A 
ENDBRANCH  21  27
ENDBRANCH  20  21
ENDBRANCH   1  20
TORSDOF 5
ENDMDL
MODEL 6
REMARK VINA RESULT:      -8.8      6.756      9.733
REMARK  Name = 
REMARK  5 active torsions:
REMARK  status: ('A' for Active; 'I' for Inactive)
REMARK    1  A    between atoms: C_6  and  C_7
REMARK    2  A    between atoms: C_7  and  O_8
REMARK    3  A    between atoms: O_8  and  C_9
REMARK    4  A    between atoms: C_12  and  N_13
REMARK    5  A    between atoms: N_13  and  C_14
REMARK                            x       y       z     vdW  Elec       q    Type
REMARK                         _______ _______ _______ _____ _____    ______ ____
ROOT
ATOM      1  C   UNL     1       1.667   8.351  19.692  0.00  0.00    +0.000 A 
ATOM      2  C   UNL     1       1.735   8.679  18.329  0.00  0.00    +0.000 A 
ATOM      3  C   UNL     1       0.966   9.720  17.788  0.00  0.00    +0.000 A 
ATOM      4  C   UNL     1       0.081  10.434  18.593  0.00  0.00    +0.000 A 
ATOM      5  C   UNL     1       0.045  10.125  19.961  0.00  0.00    +0.000 A 
ATOM      6  C   UNL     1       0.837   9.116  20.518  0.00  0.00    +0.000 A 
ATOM      7 CL   UNL     1       0.762   8.994  22.243  0.00  0.00    +0.000 Cl
ENDROOT
BRANCH   4   8
ATOM      8  N   UNL     1      -0.650  11.533  18.089  0.00  0.00    +0.000 N 
ATOM      9  H   UNL     1      -0.149  12.094  17.410  0.00  0.00    +0.000 HD
BRANCH   8  10
ATOM     10  C   UNL     1      -2.025  11.474  17.745  0.00  0.00    +0.000 A 
ATOM     11  N   UNL     1      -2.338  10.941  16.544  0.00  0.00    +0.000 NA
ATOM     12  C   UNL     1      -3.630  10.804  16.264  0.00  0.00    +0.000 A 
ATOM     13  N   UNL     1      -4.646  11.134  17.064  0.00  0.00    +0.000 NA
ATOM     14  C   UNL     1      -4.331  11.673  18.245  0.00  0.00    +0.000 A 
ATOM     15  C   UNL     1      -5.364  11.982  19.118  0.00  0.00    +0.000 A 
ATOM     16  C   UNL     1      -5.126  12.545  20.375  0.00  0.00    +0.000 A 
ATOM     17  C   UNL     1      -3.824  12.813  20.773  0.00  0.00    +0.000 A 
ATOM     18  C   UNL     1      -2.766  12.499  19.919  0.00  0.00    +0.000 A 
ATOM     19  C   UNL     1      -3.008  11.914  18.649  0.00  0.00    +0.000 A 
ENDBRANCH   8  10
ENDBRANCH   4   8
BRANCH   1  20
ATOM     20  O   UNL     1       2.494   7.314  20.043  0.00  0.00    +0.000 OA
BRANCH  20  21
ATOM     21  C   UNL     1       2.847   6.398  19.006  0.00  0.00    +0.000 C 
BRANCH  21  27
ATOM     22  F   UNL     1       1.046   2.875  21.899  0.00  0.00    +0.000 F 
ATOM     23  C   UNL     1       1.306   3.333  20.666  0.00  0.00    +0.000 A 
ATOM     24  C   UNL     1       0.920   2.579  19.563  0.00  0.00    +0.000 A 
ATOM     25  C   UNL     1       1.175   3.058  18.281  0.00  0.00    +0.000 A 
ATOM     26  C   UNL     1       1.816   4.285  18.115  0.00  0.00    +0.000 A 
ATOM     27  C   UNL     1       2.221   5.041  19.228  0.00  0.00    +0.000 A 
ATOM     28  C   UNL     1       1.946   4.558  20.513  0.00  0.00    +0.000 A 
ENDBRANCH  21  27
ENDBRANCH  20  21
ENDBRANCH   1  20
TORSDOF 5
ENDMDL
MODEL 7
REMARK VINA RESULT:      -8.8      5.701      8.763
REMARK  Name = 
REMARK  5 active torsions:
REMARK  status: ('A' for Active; 'I' for Inactive)
REMARK    1  A    between atoms: C_6  and  C_7
REMARK    2  A    between atoms: C_7  and  O_8
REMARK    3  A    between atoms: O_8  and  C_9
REMARK    4  A    between atoms: C_12  and  N_13
REMARK    5  A    between atoms: N_13  and  C_14
REMARK                            x       y       z     vdW  Elec       q    Type
REMARK                         _______ _______ _______ _____ _____    ______ ____
ROOT
ATOM      1  C   UNL     1       0.620   9.898  19.235  0.00  0.00    +0.000 A 
ATOM      2  C   UNL     1       1.329   9.298  18.183  0.00  0.00    +0.000 A 
ATOM      3  C   UNL     1       2.101   8.144  18.384  0.00  0.00    +0.000 A 
ATOM      4  C   UNL     1       2.212   7.584  19.655  0.00  0.00    +0.000 A 
ATOM      5  C   UNL     1       1.471   8.166  20.694  0.00  0.00    +0.000 A 
ATOM      6  C   UNL     1       0.668   9.293  20.496  0.00  0.00    +0.000 A 
ATOM      7 CL   UNL     1      -0.283   9.764  21.863  0.00  0.00    +0.000 Cl
ENDROOT
BRANCH   4   8
ATOM      8  N   UNL     1       2.923   6.382  19.870  0.00  0.00    +0.000 N 
ATOM      9  H   UNL     1       2.858   6.020  20.814  0.00  0.00    +0.000 HD
BRANCH   8  10
ATOM     10  C   UNL     1       2.957   5.309  18.943  0.00  0.00    +0.000 A 
ATOM     11  N   UNL     1       1.903   4.465  18.937  0.00  0.00    +0.000 NA
ATOM     12  C   UNL     1       1.895   3.516  18.006  0.00  0.00    +0.000 A 
ATOM     13  N   UNL     1       2.827   3.328  17.070  0.00  0.00    +0.000 NA
ATOM     14  C   UNL     1       3.874   4.157  17.089  0.00  0.00    +0.000 A 
ATOM     15  C   UNL     1       4.837   4.016  16.099  0.00  0.00    +0.000 A 
ATOM     16  C   UNL     1       5.962   4.842  16.039  0.00  0.00    +0.000 A 
ATOM     17  C   UNL     1       6.139   5.833  16.994  0.00  0.00    +0.000 A 
ATOM     18  C   UNL     1       5.179   6.005  17.992  0.00  0.00    +0.000 A 
ATOM     19  C   UNL     1       4.029   5.175  18.043  0.00  0.00    +0.000 A 
ENDBRANCH   8  10
ENDBRANCH   4   8
BRANCH   1  20
ATOM     20  O   UNL     1      -0.084  11.009  18.851  0.00  0.00    +0.000 OA
BRANCH  20  21
ATOM     21  C   UNL     1      -1.461  11.055  19.226  0.00  0.00    +0.000 C 
BRANCH  21  27
ATOM     22  F   UNL     1      -2.457   9.912  14.564  0.00  0.00    +0.000 F 
ATOM     23  C   UNL     1      -2.851  10.445  15.729  0.00  0.00    +0.000 A 
ATOM     24  C   UNL     1      -4.148  10.931  15.852  0.00  0.00    +0.000 A 
ATOM     25  C   UNL     1      -4.566  11.473  17.066  0.00  0.00    +0.000 A 
ATOM     26  C   UNL     1      -3.681  11.525  18.142  0.00  0.00    +0.000 A 
ATOM     27  C   UNL     1      -2.366  11.048  18.015  0.00  0.00    +0.000 A 
ATOM     28  C   UNL     1      -1.960  10.491  16.796  0.00  0.00    +0.000 A 
ENDBRANCH  21  27
ENDBRANCH  20  21
ENDBRANCH   1  20
TORSDOF 5
ENDMDL
MODEL 8
REMARK VINA RESULT:      -8.7      6.521      9.331
REMARK  Name = 
REMARK  5 active torsions:
REMARK  status: ('A' for Active; 'I' for Inactive)
REMARK    1  A    between atoms: C_6  and  C_7
REMARK    2  A    between atoms: C_7  and  O_8
REMARK    3  A    between atoms: O_8  and  C_9
REMARK    4  A    between atoms: C_12  and  N_13
REMARK    5  A    between atoms: N_13  and  C_14
REMARK                            x       y       z     vdW  Elec       q    Type
REMARK                         _______ _______ _______ _____ _____    ______ ____
ROOT
ATOM      1  C   UNL     1       1.751   6.978  20.437  0.00  0.00    +0.000 A 
ATOM      2  C   UNL     1       0.899   7.752  21.241  0.00  0.00    +0.000 A 
ATOM      3  C   UNL     1       0.496   9.038  20.854  0.00  0.00    +0.000 A 
ATOM      4  C   UNL     1       0.966   9.596  19.667  0.00  0.00    +0.000 A 
ATOM      5  C   UNL     1       1.787   8.804  18.850  0.00  0.00    +0.000 A 
ATOM      6  C   UNL     1       2.163   7.506  19.208  0.00  0.00    +0.000 A 
ATOM      7 CL   UNL     1       3.048   6.641  17.999  0.00  0.00    +0.000 Cl
ENDROOT
BRANCH   4   8
ATOM      8  N   UNL     1       0.517  10.859  19.219  0.00  0.00    +0.000 N 
ATOM      9  H   UNL     1       0.893  11.143  18.322  0.00  0.00    +0.000 HD
BRANCH   8  10
ATOM     10  C   UNL     1      -0.820  11.312  19.348  0.00  0.00    +0.000 A 
ATOM     11  N   UNL     1      -1.100  12.120  20.394  0.00  0.00    +0.000 NA
ATOM     12  C   UNL     1      -2.331  12.616  20.460  0.00  0.00    +0.000 A 
ATOM     13  N   UNL     1      -3.313  12.399  19.583  0.00  0.00    +0.000 NA
ATOM     14  C   UNL     1      -3.035  11.588  18.558  0.00  0.00    +0.000 A 
ATOM     15  C   UNL     1      -4.021  11.381  17.603  0.00  0.00    +0.000 A 
ATOM     16  C   UNL     1      -3.815  10.554  16.496  0.00  0.00    +0.000 A 
ATOM     17  C   UNL     1      -2.597   9.909  16.337  0.00  0.00    +0.000 A 
ATOM     18  C   UNL     1      -1.584  10.111  17.275  0.00  0.00    +0.000 A 
ATOM     19  C   UNL     1      -1.789  10.964  18.391  0.00  0.00    +0.000 A 
ENDBRANCH   8  10
ENDBRANCH   4   8
BRANCH   1  20
ATOM     20  O   UNL     1       2.031   5.747  20.970  0.00  0.00    +0.000 OA
BRANCH  20  21
ATOM     21  C   UNL     1       1.241   4.652  20.503  0.00  0.00    +0.000 C 
BRANCH  21  27
ATOM     22  F   UNL     1       4.952   1.477  20.084  0.00  0.00    +0.000 F 
ATOM     23  C   UNL     1       3.884   2.078  19.543  0.00  0.00    +0.000 A 
ATOM     24  C   UNL     1       3.482   1.727  18.259  0.00  0.00    +0.000 A 
ATOM     25  C   UNL     1       2.363   2.339  17.698  0.00  0.00    +0.000 A 
ATOM     26  C   UNL     1       1.660   3.297  18.427  0.00  0.00    +0.000 A 
ATOM     27  C   UNL     1       2.073   3.664  19.719  0.00  0.00    +0.000 A 
ATOM     28  C   UNL     1       3.189   3.032  20.279  0.00  0.00    +0.000 A 
ENDBRANCH  21  27
ENDBRANCH  20  21
ENDBRANCH   1  20
TORSDOF 5
ENDMDL
MODEL 9
REMARK VINA RESULT:      -8.6      6.783      9.726
REMARK  Name = 
REMARK  5 active torsions:
REMARK  status: ('A' for Active; 'I' for Inactive)
REMARK    1  A    between atoms: C_6  and  C_7
REMARK    2  A    between atoms: C_7  and  O_8
REMARK    3  A    between atoms: O_8  and  C_9
REMARK    4  A    between atoms: C_12  and  N_13
REMARK    5  A    between atoms: N_13  and  C_14
REMARK                            x       y       z     vdW  Elec       q    Type
REMARK                         _______ _______ _______ _____ _____    ______ ____
ROOT
ATOM      1  C   UNL     1       1.713   8.216  19.637  0.00  0.00    +0.000 A 
ATOM      2  C   UNL     1       1.698   8.504  18.264  0.00  0.00    +0.000 A 
ATOM      3  C   UNL     1       0.946   9.569  17.747  0.00  0.00    +0.000 A 
ATOM      4  C   UNL     1       0.159  10.350  18.591  0.00  0.00    +0.000 A 
ATOM      5  C   UNL     1       0.206  10.080  19.967  0.00  0.00    +0.000 A 
ATOM      6  C   UNL     1       0.984   9.045  20.496  0.00  0.00    +0.000 A 
ATOM      7 CL   UNL     1       1.027   8.974  22.225  0.00  0.00    +0.000 Cl
ENDROOT
BRANCH   4   8
ATOM      8  N   UNL     1      -0.550  11.473  18.107  0.00  0.00    +0.000 N 
ATOM      9  H   UNL     1      -0.036  12.036  17.439  0.00  0.00    +0.000 HD
BRANCH   8  10
ATOM     10  C   UNL     1      -1.925  11.448  17.760  0.00  0.00    +0.000 A 
ATOM     11  N   UNL     1      -2.248  10.928  16.556  0.00  0.00    +0.000 NA
ATOM     12  C   UNL     1      -3.543  10.822  16.274  0.00  0.00    +0.000 A 
ATOM     13  N   UNL     1      -4.552  11.171  17.074  0.00  0.00    +0.000 NA
ATOM     14  C   UNL     1      -4.226  11.697  18.258  0.00  0.00    +0.000 A 
ATOM     15  C   UNL     1      -5.253  12.025  19.132  0.00  0.00    +0.000 A 
ATOM     16  C   UNL     1      -5.004  12.576  20.392  0.00  0.00    +0.000 A 
ATOM     17  C   UNL     1      -3.697  12.812  20.793  0.00  0.00    +0.000 A 
ATOM     18  C   UNL     1      -2.645  12.478  19.939  0.00  0.00    +0.000 A 
ATOM     19  C   UNL     1      -2.899  11.905  18.666  0.00  0.00    +0.000 A 
ENDBRANCH   8  10
ENDBRANCH   4   8
BRANCH   1  20
ATOM     20  O   UNL     1       2.508   7.147  19.960  0.00  0.00    +0.000 OA
BRANCH  20  21
ATOM     21  C   UNL     1       1.880   6.066  20.648  0.00  0.00    +0.000 C 
BRANCH  21  27
ATOM     22  F   UNL     1       3.034   3.468  16.654  0.00  0.00    +0.000 F 
ATOM     23  C   UNL     1       2.368   3.564  17.814  0.00  0.00    +0.000 A 
ATOM     24  C   UNL     1       1.613   2.484  18.258  0.00  0.00    +0.000 A 
ATOM     25  C   UNL     1       0.932   2.574  19.469  0.00  0.00    +0.000 A 
ATOM     26  C   UNL     1       1.011   3.745  20.222  0.00  0.00    +0.000 A 
ATOM     27  C   UNL     1       1.761   4.843  19.768  0.00  0.00    +0.000 A 
ATOM     28  C   UNL     1       2.455   4.736  18.557  0.00  0.00    +0.000 A 
ENDBRANCH  21  27
ENDBRANCH  20  21
ENDBRANCH   1  20
TORSDOF 5
ENDMDL
