MODEL 1
REMARK VINA RESULT:      -8.4      0.000      0.000
REMARK  Name = 
REMARK  12 active torsions:
REMARK  status: ('A' for Active; 'I' for Inactive)
REMARK    1  A    between atoms: C_1  and  C_2
REMARK    2  A    between atoms: C_2  and  C_3
REMARK    3  A    between atoms: C_3  and  C_4
REMARK    4  A    between atoms: C_8  and  C_9
REMARK    5  A    between atoms: C_9  and  C_10
REMARK    6  A    between atoms: C_19  and  N_20
REMARK    7  A    between atoms: N_20  and  C_21
REMARK    8  A    between atoms: C_21  and  C_22
REMARK    9  A    between atoms: C_28  and  O_29
REMARK   10  A    between atoms: O_29  and  C_30
REMARK   11  A    between atoms: C_31  and  O_32
REMARK   12  A    between atoms: O_32  and  C_33
REMARK                            x       y       z     vdW  Elec       q    Type
REMARK                         _______ _______ _______ _____ _____    ______ ____
ROOT
ATOM      1  C   UNL     1      -1.737  12.716  20.422  0.00  0.00    +0.000 A 
ATOM      2  N   UNL     1      -0.421  12.834  20.818  0.00  0.00    +0.000 N 
ATOM      3  C   UNL     1       0.649  12.268  20.181  0.00  0.00    +0.000 A 
ATOM      4  O   UNL     1       1.794  12.465  20.575  0.00  0.00    +0.000 OA
ATOM      5  C   UNL     1       0.347  11.390  19.012  0.00  0.00    +0.000 A 
ATOM      6  C   UNL     1      -0.941  11.289  18.601  0.00  0.00    +0.000 A 
ATOM      7  C   UNL     1      -1.317  10.438  17.468  0.00  0.00    +0.000 A 
ATOM      8  C   UNL     1      -2.597  10.305  17.057  0.00  0.00    +0.000 A 
ATOM      9  C   UNL     1      -3.667  11.062  17.733  0.00  0.00    +0.000 A 
ATOM     10  C   UNL     1      -3.392  11.850  18.793  0.00  0.00    +0.000 A 
ATOM     11  C   UNL     1      -2.033  11.990  19.320  0.00  0.00    +0.000 A 
ATOM     12  H   UNL     1      -0.187  13.402  21.623  0.00  0.00    +0.000 HD
ENDROOT
BRANCH   8  13
ATOM     13  O   UNL     1      -2.999   9.489  16.020  0.00  0.00    +0.000 OA
ATOM     14  C   UNL     1      -2.958  10.015  14.697  0.00  0.00    +0.000 C 
ENDBRANCH   8  13
BRANCH   9  15
ATOM     15  O   UNL     1      -4.960  11.097  17.228  0.00  0.00    +0.000 OA
ATOM     16  C   UNL     1      -6.038  11.084  18.155  0.00  0.00    +0.000 C 
ENDBRANCH   9  15
BRANCH   1  17
ATOM     17  C   UNL     1      -2.729  13.466  21.289  0.00  0.00    +0.000 C 
BRANCH  17  19
ATOM     18  C   UNL     1      -4.723  12.792  22.675  0.00  0.00    +0.000 C 
ATOM     19  C   UNL     1      -3.226  12.619  22.464  0.00  0.00    +0.000 C 
ENDBRANCH  17  19
ENDBRANCH   1  17
BRANCH   5  20
ATOM     20  C   UNL     1       1.537  10.641  18.435  0.00  0.00    +0.000 C 
BRANCH  20  21
ATOM     21  C   UNL     1       1.563   9.205  18.926  0.00  0.00    +0.000 A 
ATOM     22  C   UNL     1       2.078   8.217  18.074  0.00  0.00    +0.000 A 
ATOM     23  C   UNL     1       2.319   6.927  18.544  0.00  0.00    +0.000 A 
ATOM     24  C   UNL     1       2.724   5.876  17.703  0.00  0.00    +0.000 A 
ATOM     25  C   UNL     1       2.883   4.639  18.278  0.00  0.00    +0.000 A 
ATOM     26  C   UNL     1       2.789   4.465  19.640  0.00  0.00    +0.000 A 
ATOM     27  C   UNL     1       2.450   5.491  20.485  0.00  0.00    +0.000 A 
ATOM     28  C   UNL     1       2.112   6.710  19.928  0.00  0.00    +0.000 A 
ATOM     29  N   UNL     1       1.526   7.614  20.710  0.00  0.00    +0.000 NA
ATOM     30  C   UNL     1       1.152   8.806  20.204  0.00  0.00    +0.000 A 
ATOM     31  O   UNL     1       2.940   3.162  20.003  0.00  0.00    +0.000 OA
ATOM     32  C   UNL     1       2.732   2.553  18.715  0.00  0.00    +0.000 C 
ATOM     33  O   UNL     1       3.056   3.453  17.632  0.00  0.00    +0.000 OA
BRANCH  30  34
ATOM     34  N   UNL     1       0.362   9.643  21.025  0.00  0.00    +0.000 N 
ATOM     35  H   UNL     1      -0.612   9.541  20.754  0.00  0.00    +0.000 HD
BRANCH  34  36
ATOM     36  C   UNL     1       0.494   9.258  22.442  0.00  0.00    +0.000 C 
ATOM     37  C   UNL     1      -0.543   9.988  23.278  0.00  0.00    +0.000 C 
ENDBRANCH  34  36
ENDBRANCH  30  34
ENDBRANCH  20  21
ENDBRANCH   5  20
TORSDOF 8
ENDMDL
MODEL 2
REMARK VINA RESULT:      -7.9      1.592      3.827
REMARK  Name = 
REMARK  12 active torsions:
REMARK  status: ('A' for Active; 'I' for Inactive)
REMARK    1  A    between atoms: C_1  and  C_2
REMARK    2  A    between atoms: C_2  and  C_3
REMARK    3  A    between atoms: C_3  and  C_4
REMARK    4  A    between atoms: C_8  and  C_9
REMARK    5  A    between atoms: C_9  and  C_10
REMARK    6  A    between atoms: C_19  and  N_20
REMARK    7  A    between atoms: N_20  and  C_21
REMARK    8  A    between atoms: C_21  and  C_22
REMARK    9  A    between atoms: C_28  and  O_29
REMARK   10  A    between atoms: O_29  and  C_30
REMARK   11  A    between atoms: C_31  and  O_32
REMARK   12  A    between atoms: O_32  and  C_33
REMARK                            x       y       z     vdW  Elec       q    Type
REMARK                         _______ _______ _______ _____ _____    ______ ____
ROOT
ATOM      1  C   UNL     1      -2.737  11.835  19.022  0.00  0.00    +0.000 A 
ATOM      2  N   UNL     1      -2.357  10.861  18.123  0.00  0.00    +0.000 N 
ATOM      3  C   UNL     1      -1.091  10.358  17.991  0.00  0.00    +0.000 A 
ATOM      4  O   UNL     1      -0.851   9.455  17.197  0.00  0.00    +0.000 OA
ATOM      5  C   UNL     1      -0.031  10.979  18.839  0.00  0.00    +0.000 A 
ATOM      6  C   UNL     1      -0.400  11.919  19.743  0.00  0.00    +0.000 A 
ATOM      7  C   UNL     1       0.586  12.580  20.603  0.00  0.00    +0.000 A 
ATOM      8  C   UNL     1       0.242  13.537  21.494  0.00  0.00    +0.000 A 
ATOM      9  C   UNL     1      -1.174  13.918  21.651  0.00  0.00    +0.000 A 
ATOM     10  C   UNL     1      -2.129  13.360  20.879  0.00  0.00    +0.000 A 
ATOM     11  C   UNL     1      -1.812  12.360  19.857  0.00  0.00    +0.000 A 
ATOM     12  H   UNL     1      -3.049  10.438  17.516  0.00  0.00    +0.000 HD
ENDROOT
BRANCH   8  13
ATOM     13  O   UNL     1       1.139  14.210  22.296  0.00  0.00    +0.000 OA
ATOM     14  C   UNL     1       1.805  15.346  21.752  0.00  0.00    +0.000 C 
ENDBRANCH   8  13
BRANCH   9  15
ATOM     15  O   UNL     1      -1.590  14.756  22.677  0.00  0.00    +0.000 OA
ATOM     16  C   UNL     1      -2.225  14.167  23.804  0.00  0.00    +0.000 C 
ENDBRANCH   9  15
BRANCH   1  17
ATOM     17  C   UNL     1      -4.209  12.194  18.981  0.00  0.00    +0.000 C 
BRANCH  17  19
ATOM     18  C   UNL     1      -6.383  11.989  17.723  0.00  0.00    +0.000 C 
ATOM     19  C   UNL     1      -4.887  11.713  17.695  0.00  0.00    +0.000 C 
ENDBRANCH  17  19
ENDBRANCH   1  17
BRANCH   5  20
ATOM     20  C   UNL     1       1.389  10.519  18.547  0.00  0.00    +0.000 C 
BRANCH  20  21
ATOM     21  C   UNL     1       1.574   9.062  18.926  0.00  0.00    +0.000 A 
ATOM     22  C   UNL     1       2.236   8.216  18.024  0.00  0.00    +0.000 A 
ATOM     23  C   UNL     1       2.618   6.930  18.402  0.00  0.00    +0.000 A 
ATOM     24  C   UNL     1       3.178   6.008  17.500  0.00  0.00    +0.000 A 
ATOM     25  C   UNL     1       3.468   4.756  17.983  0.00  0.00    +0.000 A 
ATOM     26  C   UNL     1       3.349   4.460  19.323  0.00  0.00    +0.000 A 
ATOM     27  C   UNL     1       2.858   5.365  20.229  0.00  0.00    +0.000 A 
ATOM     28  C   UNL     1       2.392   6.576  19.754  0.00  0.00    +0.000 A 
ATOM     29  N   UNL     1       1.672   7.336  20.577  0.00  0.00    +0.000 NA
ATOM     30  C   UNL     1       1.172   8.513  20.149  0.00  0.00    +0.000 A 
ATOM     31  O   UNL     1       3.647   3.159  19.589  0.00  0.00    +0.000 OA
ATOM     32  C   UNL     1       3.560   2.638  18.250  0.00  0.00    +0.000 C 
ATOM     33  O   UNL     1       3.807   3.656  17.256  0.00  0.00    +0.000 OA
BRANCH  30  34
ATOM     34  N   UNL     1       0.257   9.178  20.998  0.00  0.00    +0.000 N 
ATOM     35  H   UNL     1      -0.597   8.630  21.051  0.00  0.00    +0.000 HD
BRANCH  34  36
ATOM     36  C   UNL     1       0.810   9.312  22.357  0.00  0.00    +0.000 C 
ATOM     37  C   UNL     1      -0.272   9.780  23.315  0.00  0.00    +0.000 C 
ENDBRANCH  34  36
ENDBRANCH  30  34
ENDBRANCH  20  21
ENDBRANCH   5  20
TORSDOF 8
ENDMDL
MODEL 3
REMARK VINA RESULT:      -7.9      0.976      1.099
REMARK  Name = 
REMARK  12 active torsions:
REMARK  status: ('A' for Active; 'I' for Inactive)
REMARK    1  A    between atoms: C_1  and  C_2
REMARK    2  A    between atoms: C_2  and  C_3
REMARK    3  A    between atoms: C_3  and  C_4
REMARK    4  A    between atoms: C_8  and  C_9
REMARK    5  A    between atoms: C_9  and  C_10
REMARK    6  A    between atoms: C_19  and  N_20
REMARK    7  A    between atoms: N_20  and  C_21
REMARK    8  A    between atoms: C_21  and  C_22
REMARK    9  A    between atoms: C_28  and  O_29
REMARK   10  A    between atoms: O_29  and  C_30
REMARK   11  A    between atoms: C_31  and  O_32
REMARK   12  A    between atoms: O_32  and  C_33
REMARK                            x       y       z     vdW  Elec       q    Type
REMARK                         _______ _______ _______ _____ _____    ______ ____
ROOT
ATOM      1  C   UNL     1      -2.631  12.983  20.858  0.00  0.00    +0.000 A 
ATOM      2  N   UNL     1      -1.352  13.288  21.273  0.00  0.00    +0.000 N 
ATOM      3  C   UNL     1      -0.205  12.965  20.600  0.00  0.00    +0.000 A 
ATOM      4  O   UNL     1       0.892  13.319  21.018  0.00  0.00    +0.000 OA
ATOM      5  C   UNL     1      -0.362  12.146  19.361  0.00  0.00    +0.000 A 
ATOM      6  C   UNL     1      -1.616  11.863  18.934  0.00  0.00    +0.000 A 
ATOM      7  C   UNL     1      -1.850  11.056  17.732  0.00  0.00    +0.000 A 
ATOM      8  C   UNL     1      -3.092  10.743  17.301  0.00  0.00    +0.000 A 
ATOM      9  C   UNL     1      -4.270  11.251  18.028  0.00  0.00    +0.000 A 
ATOM     10  C   UNL     1      -4.125  11.984  19.151  0.00  0.00    +0.000 A 
ATOM     11  C   UNL     1      -2.807  12.309  19.698  0.00  0.00    +0.000 A 
ATOM     12  H   UNL     1      -1.212  13.820  22.123  0.00  0.00    +0.000 HD
ENDROOT
BRANCH   8  13
ATOM     13  O   UNL     1      -3.356   9.958  16.199  0.00  0.00    +0.000 OA
ATOM     14  C   UNL     1      -2.904  10.412  14.927  0.00  0.00    +0.000 C 
ENDBRANCH   8  13
BRANCH   9  15
ATOM     15  O   UNL     1      -5.553  11.108  17.518  0.00  0.00    +0.000 OA
ATOM     16  C   UNL     1      -6.647  11.255  18.414  0.00  0.00    +0.000 C 
ENDBRANCH   9  15
BRANCH   1  17
ATOM     17  C   UNL     1      -3.730  13.481  21.775  0.00  0.00    +0.000 C 
BRANCH  17  19
ATOM     18  C   UNL     1      -3.950  12.746  24.177  0.00  0.00    +0.000 C 
ATOM     19  C   UNL     1      -3.238  13.683  23.212  0.00  0.00    +0.000 C 
ENDBRANCH  17  19
ENDBRANCH   1  17
BRANCH   5  20
ATOM     20  C   UNL     1       0.935  11.659  18.734  0.00  0.00    +0.000 C 
BRANCH  20  21
ATOM     21  C   UNL     1       1.158  10.187  19.031  0.00  0.00    +0.000 A 
ATOM     22  C   UNL     1       1.899   9.427  18.114  0.00  0.00    +0.000 A 
ATOM     23  C   UNL     1       2.312   8.134  18.431  0.00  0.00    +0.000 A 
ATOM     24  C   UNL     1       2.954   7.293  17.505  0.00  0.00    +0.000 A 
ATOM     25  C   UNL     1       3.269   6.024  17.923  0.00  0.00    +0.000 A 
ATOM     26  C   UNL     1       3.094   5.638  19.233  0.00  0.00    +0.000 A 
ATOM     27  C   UNL     1       2.521   6.464  20.167  0.00  0.00    +0.000 A 
ATOM     28  C   UNL     1       2.032   7.685  19.744  0.00  0.00    +0.000 A 
ATOM     29  N   UNL     1       1.241   8.363  20.574  0.00  0.00    +0.000 NA
ATOM     30  C   UNL     1       0.717   9.546  20.194  0.00  0.00    +0.000 A 
ATOM     31  O   UNL     1       3.430   4.334  19.433  0.00  0.00    +0.000 OA
ATOM     32  C   UNL     1       3.432   3.898  18.061  0.00  0.00    +0.000 C 
ATOM     33  O   UNL     1       3.689   4.987  17.147  0.00  0.00    +0.000 OA
BRANCH  30  34
ATOM     34  N   UNL     1      -0.266  10.121  21.032  0.00  0.00    +0.000 N 
ATOM     35  H   UNL     1      -1.183   9.826  20.709  0.00  0.00    +0.000 HD
BRANCH  34  36
ATOM     36  C   UNL     1      -0.094   9.667  22.424  0.00  0.00    +0.000 C 
ATOM     37  C   UNL     1      -1.066  10.399  23.333  0.00  0.00    +0.000 C 
ENDBRANCH  34  36
ENDBRANCH  30  34
ENDBRANCH  20  21
ENDBRANCH   5  20
TORSDOF 8
ENDMDL
MODEL 4
REMARK VINA RESULT:      -7.8      1.936      3.868
REMARK  Name = 
REMARK  12 active torsions:
REMARK  status: ('A' for Active; 'I' for Inactive)
REMARK    1  A    between atoms: C_1  and  C_2
REMARK    2  A    between atoms: C_2  and  C_3
REMARK    3  A    between atoms: C_3  and  C_4
REMARK    4  A    between atoms: C_8  and  C_9
REMARK    5  A    between atoms: C_9  and  C_10
REMARK    6  A    between atoms: C_19  and  N_20
REMARK    7  A    between atoms: N_20  and  C_21
REMARK    8  A    between atoms: C_21  and  C_22
REMARK    9  A    between atoms: C_28  and  O_29
REMARK   10  A    between atoms: O_29  and  C_30
REMARK   11  A    between atoms: C_31  and  O_32
REMARK   12  A    between atoms: O_32  and  C_33
REMARK                            x       y       z     vdW  Elec       q    Type
REMARK                         _______ _______ _______ _____ _____    ______ ____
ROOT
ATOM      1  C   UNL     1      -3.893  11.500  18.581  0.00  0.00    +0.000 A 
ATOM      2  N   UNL     1      -3.141  10.656  17.790  0.00  0.00    +0.000 N 
ATOM      3  C   UNL     1      -1.785  10.494  17.876  0.00  0.00    +0.000 A 
ATOM      4  O   UNL     1      -1.201   9.683  17.164  0.00  0.00    +0.000 OA
ATOM      5  C   UNL     1      -1.065  11.365  18.851  0.00  0.00    +0.000 A 
ATOM      6  C   UNL     1      -1.798  12.178  19.649  0.00  0.00    +0.000 A 
ATOM      7  C   UNL     1      -1.162  13.069  20.623  0.00  0.00    +0.000 A 
ATOM      8  C   UNL     1      -1.873  13.905  21.411  0.00  0.00    +0.000 A 
ATOM      9  C   UNL     1      -3.346  13.911  21.333  0.00  0.00    +0.000 A 
ATOM     10  C   UNL     1      -3.994  13.128  20.446  0.00  0.00    +0.000 A 
ATOM     11  C   UNL     1      -3.276  12.243  19.527  0.00  0.00    +0.000 A 
ATOM     12  H   UNL     1      -3.598  10.071  17.102  0.00  0.00    +0.000 HD
ENDROOT
BRANCH   8  13
ATOM     13  O   UNL     1      -1.314  14.785  22.315  0.00  0.00    +0.000 OA
ATOM     14  C   UNL     1      -1.123  14.340  23.655  0.00  0.00    +0.000 C 
ENDBRANCH   8  13
BRANCH   9  15
ATOM     15  O   UNL     1      -4.117  14.615  22.248  0.00  0.00    +0.000 OA
ATOM     16  C   UNL     1      -4.996  13.876  23.088  0.00  0.00    +0.000 C 
ENDBRANCH   9  15
BRANCH   1  17
ATOM     17  C   UNL     1      -5.382  11.471  18.300  0.00  0.00    +0.000 C 
BRANCH  17  19
ATOM     18  C   UNL     1      -6.512  13.360  17.071  0.00  0.00    +0.000 C 
ATOM     19  C   UNL     1      -5.724  12.065  16.930  0.00  0.00    +0.000 C 
ENDBRANCH  17  19
ENDBRANCH   1  17
BRANCH   5  20
ATOM     20  C   UNL     1       0.453  11.284  18.800  0.00  0.00    +0.000 C 
BRANCH  20  21
ATOM     21  C   UNL     1       0.927   9.863  19.044  0.00  0.00    +0.000 A 
ATOM     22  C   UNL     1       1.791   9.277  18.108  0.00  0.00    +0.000 A 
ATOM     23  C   UNL     1       2.420   8.064  18.381  0.00  0.00    +0.000 A 
ATOM     24  C   UNL     1       3.201   7.382  17.431  0.00  0.00    +0.000 A 
ATOM     25  C   UNL     1       3.730   6.171  17.806  0.00  0.00    +0.000 A 
ATOM     26  C   UNL     1       3.620   5.713  19.100  0.00  0.00    +0.000 A 
ATOM     27  C   UNL     1       2.910   6.391  20.057  0.00  0.00    +0.000 A 
ATOM     28  C   UNL     1       2.218   7.525  19.674  0.00  0.00    +0.000 A 
ATOM     29  N   UNL     1       1.320   8.024  20.521  0.00  0.00    +0.000 NA
ATOM     30  C   UNL     1       0.600   9.112  20.180  0.00  0.00    +0.000 A 
ATOM     31  O   UNL     1       4.176   4.480  19.255  0.00  0.00    +0.000 OA
ATOM     32  C   UNL     1       4.257   4.102  17.868  0.00  0.00    +0.000 C 
ATOM     33  O   UNL     1       4.325   5.253  16.997  0.00  0.00    +0.000 OA
BRANCH  30  34
ATOM     34  N   UNL     1      -0.470   9.477  21.029  0.00  0.00    +0.000 N 
ATOM     35  H   UNL     1      -1.128   8.704  21.076  0.00  0.00    +0.000 HD
BRANCH  34  36
ATOM     36  C   UNL     1       0.018   9.756  22.392  0.00  0.00    +0.000 C 
ATOM     37  C   UNL     1      -1.086  10.391  23.219  0.00  0.00    +0.000 C 
ENDBRANCH  34  36
ENDBRANCH  30  34
ENDBRANCH  20  21
ENDBRANCH   5  20
TORSDOF 8
ENDMDL
MODEL 5
REMARK VINA RESULT:      -7.5      1.896      8.060
REMARK  Name = 
REMARK  12 active torsions:
REMARK  status: ('A' for Active; 'I' for Inactive)
REMARK    1  A    between atoms: C_1  and  C_2
REMARK    2  A    between atoms: C_2  and  C_3
REMARK    3  A    between atoms: C_3  and  C_4
REMARK    4  A    between atoms: C_8  and  C_9
REMARK    5  A    between atoms: C_9  and  C_10
REMARK    6  A    between atoms: C_19  and  N_20
REMARK    7  A    between atoms: N_20  and  C_21
REMARK    8  A    between atoms: C_21  and  C_22
REMARK    9  A    between atoms: C_28  and  O_29
REMARK   10  A    between atoms: O_29  and  C_30
REMARK   11  A    between atoms: C_31  and  O_32
REMARK   12  A    between atoms: O_32  and  C_33
REMARK                            x       y       z     vdW  Elec       q    Type
REMARK                         _______ _______ _______ _____ _____    ______ ____
ROOT
ATOM      1  C   UNL     1       2.057   5.869  20.421  0.00  0.00    +0.000 A 
ATOM      2  N   UNL     1       1.466   7.003  20.938  0.00  0.00    +0.000 N 
ATOM      3  C   UNL     1       1.487   8.240  20.354  0.00  0.00    +0.000 A 
ATOM      4  O   UNL     1       0.891   9.186  20.859  0.00  0.00    +0.000 OA
ATOM      5  C   UNL     1       2.284   8.377  19.099  0.00  0.00    +0.000 A 
ATOM      6  C   UNL     1       2.848   7.263  18.572  0.00  0.00    +0.000 A 
ATOM      7  C   UNL     1       3.653   7.320  17.348  0.00  0.00    +0.000 A 
ATOM      8  C   UNL     1       4.243   6.225  16.819  0.00  0.00    +0.000 A 
ATOM      9  C   UNL     1       4.052   4.909  17.456  0.00  0.00    +0.000 A 
ATOM     10  C   UNL     1       3.337   4.789  18.594  0.00  0.00    +0.000 A 
ATOM     11  C   UNL     1       2.721   5.947  19.246  0.00  0.00    +0.000 A 
ATOM     12  H   UNL     1       0.940   6.947  21.801  0.00  0.00    +0.000 HD
ENDROOT
BRANCH   8  13
ATOM     13  O   UNL     1       5.038   6.239  15.692  0.00  0.00    +0.000 OA
ATOM     14  C   UNL     1       6.398   5.837  15.825  0.00  0.00    +0.000 C 
ENDBRANCH   8  13
BRANCH   9  15
ATOM     15  O   UNL     1       4.484   3.739  16.846  0.00  0.00    +0.000 OA
ATOM     16  C   UNL     1       4.072   2.501  17.412  0.00  0.00    +0.000 C 
ENDBRANCH   9  15
BRANCH   1  17
ATOM     17  C   UNL     1       1.863   4.618  21.255  0.00  0.00    +0.000 C 
BRANCH  17  19
ATOM     18  C   UNL     1       1.549   2.322  20.262  0.00  0.00    +0.000 C 
ATOM     19  C   UNL     1       0.874   3.641  20.610  0.00  0.00    +0.000 C 
ENDBRANCH  17  19
ENDBRANCH   1  17
BRANCH   5  20
ATOM     20  C   UNL     1       2.429   9.795  18.571  0.00  0.00    +0.000 C 
BRANCH  20  21
ATOM     21  C   UNL     1       1.098  10.522  18.602  0.00  0.00    +0.000 A 
ATOM     22  C   UNL     1       0.055  10.041  17.797  0.00  0.00    +0.000 A 
ATOM     23  C   UNL     1      -1.241  10.534  17.940  0.00  0.00    +0.000 A 
ATOM     24  C   UNL     1      -2.292  10.168  17.081  0.00  0.00    +0.000 A 
ATOM     25  C   UNL     1      -3.512  10.759  17.295  0.00  0.00    +0.000 A 
ATOM     26  C   UNL     1      -3.734  11.566  18.389  0.00  0.00    +0.000 A 
ATOM     27  C   UNL     1      -2.736  11.890  19.271  0.00  0.00    +0.000 A 
ATOM     28  C   UNL     1      -1.454  11.456  18.993  0.00  0.00    +0.000 A 
ATOM     29  N   UNL     1      -0.448  11.989  19.685  0.00  0.00    +0.000 NA
ATOM     30  C   UNL     1       0.822  11.618  19.429  0.00  0.00    +0.000 A 
ATOM     31  O   UNL     1      -4.994  12.082  18.398  0.00  0.00    +0.000 OA
ATOM     32  C   UNL     1      -5.342  11.829  17.024  0.00  0.00    +0.000 C 
ATOM     33  O   UNL     1      -4.596  10.721  16.472  0.00  0.00    +0.000 OA
BRANCH  30  34
ATOM     34  N   UNL     1       1.854  12.357  20.052  0.00  0.00    +0.000 N 
ATOM     35  H   UNL     1       2.742  11.903  19.860  0.00  0.00    +0.000 HD
BRANCH  34  36
ATOM     36  C   UNL     1       1.907  13.730  19.518  0.00  0.00    +0.000 C 
ATOM     37  C   UNL     1       2.774  13.769  18.272  0.00  0.00    +0.000 C 
ENDBRANCH  34  36
ENDBRANCH  30  34
ENDBRANCH  20  21
ENDBRANCH   5  20
TORSDOF 8
ENDMDL
MODEL 6
REMARK VINA RESULT:      -7.5      3.965      7.033
REMARK  Name = 
REMARK  12 active torsions:
REMARK  status: ('A' for Active; 'I' for Inactive)
REMARK    1  A    between atoms: C_1  and  C_2
REMARK    2  A    between atoms: C_2  and  C_3
REMARK    3  A    between atoms: C_3  and  C_4
REMARK    4  A    between atoms: C_8  and  C_9
REMARK    5  A    between atoms: C_9  and  C_10
REMARK    6  A    between atoms: C_19  and  N_20
REMARK    7  A    between atoms: N_20  and  C_21
REMARK    8  A    between atoms: C_21  and  C_22
REMARK    9  A    between atoms: C_28  and  O_29
REMARK   10  A    between atoms: O_29  and  C_30
REMARK   11  A    between atoms: C_31  and  O_32
REMARK   12  A    between atoms: O_32  and  C_33
REMARK                            x       y       z     vdW  Elec       q    Type
REMARK                         _______ _______ _______ _____ _____    ______ ____
ROOT
ATOM      1  C   UNL     1      -2.968  10.973  16.719  0.00  0.00    +0.000 A 
ATOM      2  N   UNL     1      -1.743  10.343  16.789  0.00  0.00    +0.000 N 
ATOM      3  C   UNL     1      -0.984  10.216  17.920  0.00  0.00    +0.000 A 
ATOM      4  O   UNL     1       0.074   9.596  17.903  0.00  0.00    +0.000 OA
ATOM      5  C   UNL     1      -1.497  10.887  19.151  0.00  0.00    +0.000 A 
ATOM      6  C   UNL     1      -2.711  11.487  19.097  0.00  0.00    +0.000 A 
ATOM      7  C   UNL     1      -3.276  12.175  20.262  0.00  0.00    +0.000 A 
ATOM      8  C   UNL     1      -4.474  12.799  20.222  0.00  0.00    +0.000 A 
ATOM      9  C   UNL     1      -5.277  12.768  18.986  0.00  0.00    +0.000 A 
ATOM     10  C   UNL     1      -4.808  12.167  17.873  0.00  0.00    +0.000 A 
ATOM     11  C   UNL     1      -3.494  11.522  17.837  0.00  0.00    +0.000 A 
ATOM     12  H   UNL     1      -1.357   9.900  15.964  0.00  0.00    +0.000 HD
ENDROOT
BRANCH   8  13
ATOM     13  O   UNL     1      -5.026  13.488  21.282  0.00  0.00    +0.000 OA
ATOM     14  C   UNL     1      -5.736  12.746  22.268  0.00  0.00    +0.000 C 
ENDBRANCH   8  13
BRANCH   9  15
ATOM     15  O   UNL     1      -6.584  13.234  18.959  0.00  0.00    +0.000 OA
ATOM     16  C   UNL     1      -7.307  13.122  17.739  0.00  0.00    +0.000 C 
ENDBRANCH   9  15
BRANCH   1  17
ATOM     17  C   UNL     1      -3.614  10.950  15.348  0.00  0.00    +0.000 C 
BRANCH  17  19
ATOM     18  C   UNL     1      -3.714   9.782  13.115  0.00  0.00    +0.000 C 
ATOM     19  C   UNL     1      -2.908   9.984  14.391  0.00  0.00    +0.000 C 
ENDBRANCH  17  19
ENDBRANCH   1  17
BRANCH   5  20
ATOM     20  C   UNL     1      -0.551  10.875  20.342  0.00  0.00    +0.000 C 
BRANCH  20  21
ATOM     21  C   UNL     1       0.268  12.151  20.394  0.00  0.00    +0.000 A 
ATOM     22  C   UNL     1       1.225  12.371  19.392  0.00  0.00    +0.000 A 
ATOM     23  C   UNL     1       1.855  13.608  19.269  0.00  0.00    +0.000 A 
ATOM     24  C   UNL     1       2.900  13.841  18.358  0.00  0.00    +0.000 A 
ATOM     25  C   UNL     1       3.472  15.090  18.365  0.00  0.00    +0.000 A 
ATOM     26  C   UNL     1       2.952  16.110  19.129  0.00  0.00    +0.000 A 
ATOM     27  C   UNL     1       1.896  15.918  19.982  0.00  0.00    +0.000 A 
ATOM     28  C   UNL     1       1.405  14.635  20.133  0.00  0.00    +0.000 A 
ATOM     29  N   UNL     1       0.576  14.398  21.149  0.00  0.00    +0.000 NA
ATOM     30  C   UNL     1       0.094  13.156  21.353  0.00  0.00    +0.000 A 
ATOM     31  O   UNL     1       3.684  17.253  19.024  0.00  0.00    +0.000 OA
ATOM     32  C   UNL     1       4.883  16.692  18.456  0.00  0.00    +0.000 C 
ATOM     33  O   UNL     1       4.617  15.469  17.735  0.00  0.00    +0.000 OA
BRANCH  30  34
ATOM     34  N   UNL     1      -0.617  12.923  22.553  0.00  0.00    +0.000 N 
ATOM     35  H   UNL     1      -0.011  12.429  23.201  0.00  0.00    +0.000 HD
BRANCH  34  36
ATOM     36  C   UNL     1      -1.023  14.197  23.173  0.00  0.00    +0.000 C 
ATOM     37  C   UNL     1      -2.460  14.105  23.658  0.00  0.00    +0.000 C 
ENDBRANCH  34  36
ENDBRANCH  30  34
ENDBRANCH  20  21
ENDBRANCH   5  20
TORSDOF 8
ENDMDL
MODEL 7
REMARK VINA RESULT:      -7.5      2.589      4.951
REMARK  Name = 
REMARK  12 active torsions:
REMARK  status: ('A' for Active; 'I' for Inactive)
REMARK    1  A    between atoms: C_1  and  C_2
REMARK    2  A    between atoms: C_2  and  C_3
REMARK    3  A    between atoms: C_3  and  C_4
REMARK    4  A    between atoms: C_8  and  C_9
REMARK    5  A    between atoms: C_9  and  C_10
REMARK    6  A    between atoms: C_19  and  N_20
REMARK    7  A    between atoms: N_20  and  C_21
REMARK    8  A    between atoms: C_21  and  C_22
REMARK    9  A    between atoms: C_28  and  O_29
REMARK   10  A    between atoms: O_29  and  C_30
REMARK   11  A    between atoms: C_31  and  O_32
REMARK   12  A    between atoms: O_32  and  C_33
REMARK                            x       y       z     vdW  Elec       q    Type
REMARK                         _______ _______ _______ _____ _____    ______ ____
ROOT
ATOM      1  C   UNL     1      -4.320  12.118  19.283  0.00  0.00    +0.000 A 
ATOM      2  N   UNL     1      -3.452  11.962  18.223  0.00  0.00    +0.000 N 
ATOM      3  C   UNL     1      -2.098  12.149  18.277  0.00  0.00    +0.000 A 
ATOM      4  O   UNL     1      -1.392  11.940  17.296  0.00  0.00    +0.000 OA
ATOM      5  C   UNL     1      -1.540  12.641  19.572  0.00  0.00    +0.000 A 
ATOM      6  C   UNL     1      -2.382  12.774  20.625  0.00  0.00    +0.000 A 
ATOM      7  C   UNL     1      -1.910  13.261  21.924  0.00  0.00    +0.000 A 
ATOM      8  C   UNL     1      -2.738  13.423  22.980  0.00  0.00    +0.000 A 
ATOM      9  C   UNL     1      -4.164  13.068  22.856  0.00  0.00    +0.000 A 
ATOM     10  C   UNL     1      -4.667  12.631  21.683  0.00  0.00    +0.000 A 
ATOM     11  C   UNL     1      -3.832  12.488  20.488  0.00  0.00    +0.000 A 
ATOM     12  H   UNL     1      -3.804  11.653  17.325  0.00  0.00    +0.000 HD
ENDROOT
BRANCH   8  13
ATOM     13  O   UNL     1      -2.344  13.912  24.208  0.00  0.00    +0.000 OA
ATOM     14  C   UNL     1      -2.248  15.324  24.369  0.00  0.00    +0.000 C 
ENDBRANCH   8  13
BRANCH   9  15
ATOM     15  O   UNL     1      -5.004  13.045  23.961  0.00  0.00    +0.000 OA
ATOM     16  C   UNL     1      -6.401  12.902  23.734  0.00  0.00    +0.000 C 
ENDBRANCH   9  15
BRANCH   1  17
ATOM     17  C   UNL     1      -5.771  11.821  18.962  0.00  0.00    +0.000 C 
BRANCH  17  19
ATOM     18  C   UNL     1      -7.404  13.657  18.397  0.00  0.00    +0.000 C 
ATOM     19  C   UNL     1      -6.319  12.734  17.860  0.00  0.00    +0.000 C 
ENDBRANCH  17  19
ENDBRANCH   1  17
BRANCH   5  20
ATOM     20  C   UNL     1      -0.063  13.004  19.549  0.00  0.00    +0.000 C 
BRANCH  20  21
ATOM     21  C   UNL     1       0.788  11.784  19.251  0.00  0.00    +0.000 A 
ATOM     22  C   UNL     1       0.604  10.634  20.034  0.00  0.00    +0.000 A 
ATOM     23  C   UNL     1       1.201   9.427  19.677  0.00  0.00    +0.000 A 
ATOM     24  C   UNL     1       1.141   8.280  20.489  0.00  0.00    +0.000 A 
ATOM     25  C   UNL     1       1.810   7.165  20.050  0.00  0.00    +0.000 A 
ATOM     26  C   UNL     1       2.395   7.125  18.804  0.00  0.00    +0.000 A 
ATOM     27  C   UNL     1       2.415   8.216  17.973  0.00  0.00    +0.000 A 
ATOM     28  C   UNL     1       1.905   9.408  18.449  0.00  0.00    +0.000 A 
ATOM     29  N   UNL     1       2.167  10.520  17.763  0.00  0.00    +0.000 NA
ATOM     30  C   UNL     1       1.715  11.710  18.205  0.00  0.00    +0.000 A 
ATOM     31  O   UNL     1       3.038   5.947  18.577  0.00  0.00    +0.000 OA
ATOM     32  C   UNL     1       3.114   5.475  19.935  0.00  0.00    +0.000 C 
ATOM     33  O   UNL     1       2.066   6.032  20.760  0.00  0.00    +0.000 OA
BRANCH  30  34
ATOM     34  N   UNL     1       2.188  12.870  17.548  0.00  0.00    +0.000 N 
ATOM     35  H   UNL     1       1.408  13.504  17.404  0.00  0.00    +0.000 HD
BRANCH  34  36
ATOM     36  C   UNL     1       3.201  13.557  18.370  0.00  0.00    +0.000 C 
ATOM     37  C   UNL     1       3.364  14.992  17.901  0.00  0.00    +0.000 C 
ENDBRANCH  34  36
ENDBRANCH  30  34
ENDBRANCH  20  21
ENDBRANCH   5  20
TORSDOF 8
ENDMDL
MODEL 8
REMARK VINA RESULT:      -7.3      3.898      7.241
REMARK  Name = 
REMARK  12 active torsions:
REMARK  status: ('A' for Active; 'I' for Inactive)
REMARK    1  A    between atoms: C_1  and  C_2
REMARK    2  A    between atoms: C_2  and  C_3
REMARK    3  A    between atoms: C_3  and  C_4
REMARK    4  A    between atoms: C_8  and  C_9
REMARK    5  A    between atoms: C_9  and  C_10
REMARK    6  A    between atoms: C_19  and  N_20
REMARK    7  A    between atoms: N_20  and  C_21
REMARK    8  A    between atoms: C_21  and  C_22
REMARK    9  A    between atoms: C_28  and  O_29
REMARK   10  A    between atoms: O_29  and  C_30
REMARK   11  A    between atoms: C_31  and  O_32
REMARK   12  A    between atoms: O_32  and  C_33
REMARK                            x       y       z     vdW  Elec       q    Type
REMARK                         _______ _______ _______ _____ _____    ______ ____
ROOT
ATOM      1  C   UNL     1      -5.272  12.233  18.822  0.00  0.00    +0.000 A 
ATOM      2  N   UNL     1      -5.385  13.025  19.945  0.00  0.00    +0.000 N 
ATOM      3  C   UNL     1      -4.362  13.332  20.801  0.00  0.00    +0.000 A 
ATOM      4  O   UNL     1      -4.541  14.086  21.751  0.00  0.00    +0.000 OA
ATOM      5  C   UNL     1      -3.044  12.686  20.531  0.00  0.00    +0.000 A 
ATOM      6  C   UNL     1      -2.918  11.926  19.416  0.00  0.00    +0.000 A 
ATOM      7  C   UNL     1      -1.658  11.251  19.089  0.00  0.00    +0.000 A 
ATOM      8  C   UNL     1      -1.519  10.470  17.996  0.00  0.00    +0.000 A 
ATOM      9  C   UNL     1      -2.649  10.306  17.062  0.00  0.00    +0.000 A 
ATOM     10  C   UNL     1      -3.841  10.886  17.312  0.00  0.00    +0.000 A 
ATOM     11  C   UNL     1      -4.070  11.697  18.509  0.00  0.00    +0.000 A 
ATOM     12  H   UNL     1      -6.273  13.457  20.169  0.00  0.00    +0.000 HD
ENDROOT
BRANCH   8  13
ATOM     13  O   UNL     1      -0.365   9.789  17.670  0.00  0.00    +0.000 OA
ATOM     14  C   UNL     1       0.769   9.944  18.519  0.00  0.00    +0.000 C 
ENDBRANCH   8  13
BRANCH   9  15
ATOM     15  O   UNL     1      -2.492   9.667  15.839  0.00  0.00    +0.000 OA
ATOM     16  C   UNL     1      -3.179  10.202  14.715  0.00  0.00    +0.000 C 
ENDBRANCH   9  15
BRANCH   1  17
ATOM     17  C   UNL     1      -6.554  12.073  18.029  0.00  0.00    +0.000 C 
BRANCH  17  19
ATOM     18  C   UNL     1      -7.528  14.321  17.436  0.00  0.00    +0.000 C 
ATOM     19  C   UNL     1      -6.700  13.143  16.943  0.00  0.00    +0.000 C 
ENDBRANCH  17  19
ENDBRANCH   1  17
BRANCH   5  20
ATOM     20  C   UNL     1      -1.979  12.909  21.593  0.00  0.00    +0.000 C 
BRANCH  20  21
ATOM     21  C   UNL     1      -0.990  13.972  21.152  0.00  0.00    +0.000 A 
ATOM     22  C   UNL     1       0.212  13.560  20.558  0.00  0.00    +0.000 A 
ATOM     23  C   UNL     1       1.058  14.485  19.948  0.00  0.00    +0.000 A 
ATOM     24  C   UNL     1       2.324  14.139  19.443  0.00  0.00    +0.000 A 
ATOM     25  C   UNL     1       3.083  15.150  18.908  0.00  0.00    +0.000 A 
ATOM     26  C   UNL     1       2.573  16.418  18.743  0.00  0.00    +0.000 A 
ATOM     27  C   UNL     1       1.318  16.762  19.177  0.00  0.00    +0.000 A 
ATOM     28  C   UNL     1       0.590  15.819  19.877  0.00  0.00    +0.000 A 
ATOM     29  N   UNL     1      -0.497  16.227  20.530  0.00  0.00    +0.000 NA
ATOM     30  C   UNL     1      -1.224  15.349  21.250  0.00  0.00    +0.000 A 
ATOM     31  O   UNL     1       3.495  17.279  18.232  0.00  0.00    +0.000 OA
ATOM     32  C   UNL     1       4.681  16.505  18.491  0.00  0.00    +0.000 C 
ATOM     33  O   UNL     1       4.399  15.090  18.564  0.00  0.00    +0.000 OA
BRANCH  30  34
ATOM     34  N   UNL     1      -2.245  15.873  22.076  0.00  0.00    +0.000 N 
ATOM     35  H   UNL     1      -3.019  15.214  22.096  0.00  0.00    +0.000 HD
BRANCH  34  36
ATOM     36  C   UNL     1      -1.756  16.058  23.454  0.00  0.00    +0.000 C 
ATOM     37  C   UNL     1      -2.910  15.945  24.435  0.00  0.00    +0.000 C 
ENDBRANCH  34  36
ENDBRANCH  30  34
ENDBRANCH  20  21
ENDBRANCH   5  20
TORSDOF 8
ENDMDL
MODEL 9
REMARK VINA RESULT:      -7.2      1.998      3.356
REMARK  Name = 
REMARK  12 active torsions:
REMARK  status: ('A' for Active; 'I' for Inactive)
REMARK    1  A    between atoms: C_1  and  C_2
REMARK    2  A    between atoms: C_2  and  C_3
REMARK    3  A    between atoms: C_3  and  C_4
REMARK    4  A    between atoms: C_8  and  C_9
REMARK    5  A    between atoms: C_9  and  C_10
REMARK    6  A    between atoms: C_19  and  N_20
REMARK    7  A    between atoms: N_20  and  C_21
REMARK    8  A    between atoms: C_21  and  C_22
REMARK    9  A    between atoms: C_28  and  O_29
REMARK   10  A    between atoms: O_29  and  C_30
REMARK   11  A    between atoms: C_31  and  O_32
REMARK   12  A    between atoms: O_32  and  C_33
REMARK                            x       y       z     vdW  Elec       q    Type
REMARK                         _______ _______ _______ _____ _____    ______ ____
ROOT
ATOM      1  C   UNL     1      -3.293  12.794  21.494  0.00  0.00    +0.000 A 
ATOM      2  N   UNL     1      -2.235  13.366  22.169  0.00  0.00    +0.000 N 
ATOM      3  C   UNL     1      -1.013  13.653  21.624  0.00  0.00    +0.000 A 
ATOM      4  O   UNL     1      -0.142  14.208  22.286  0.00  0.00    +0.000 OA
ATOM      5  C   UNL     1      -0.796  13.235  20.207  0.00  0.00    +0.000 A 
ATOM      6  C   UNL     1      -1.838  12.696  19.530  0.00  0.00    +0.000 A 
ATOM      7  C   UNL     1      -1.698  12.252  18.140  0.00  0.00    +0.000 A 
ATOM      8  C   UNL     1      -2.718  11.691  17.454  0.00  0.00    +0.000 A 
ATOM      9  C   UNL     1      -4.039  11.543  18.093  0.00  0.00    +0.000 A 
ATOM     10  C   UNL     1      -4.230  11.915  19.376  0.00  0.00    +0.000 A 
ATOM     11  C   UNL     1      -3.150  12.477  20.188  0.00  0.00    +0.000 A 
ATOM     12  H   UNL     1      -2.344  13.637  23.139  0.00  0.00    +0.000 HD
ENDROOT
BRANCH   8  13
ATOM     13  O   UNL     1      -2.621  11.227  16.158  0.00  0.00    +0.000 OA
ATOM     14  C   UNL     1      -2.639   9.819  15.946  0.00  0.00    +0.000 C 
ENDBRANCH   8  13
BRANCH   9  15
ATOM     15  O   UNL     1      -5.154  11.144  17.369  0.00  0.00    +0.000 OA
ATOM     16  C   UNL     1      -6.340  11.919  17.490  0.00  0.00    +0.000 C 
ENDBRANCH   9  15
BRANCH   1  17
ATOM     17  C   UNL     1      -4.547  12.607  22.325  0.00  0.00    +0.000 C 
BRANCH  17  19
ATOM     18  C   UNL     1      -7.007  12.897  21.856  0.00  0.00    +0.000 C 
ATOM     19  C   UNL     1      -5.654  13.591  21.933  0.00  0.00    +0.000 C 
ENDBRANCH  17  19
ENDBRANCH   1  17
BRANCH   5  20
ATOM     20  C   UNL     1       0.622  13.411  19.687  0.00  0.00    +0.000 C 
BRANCH  20  21
ATOM     21  C   UNL     1       1.236  12.070  19.329  0.00  0.00    +0.000 A 
ATOM     22  C   UNL     1       0.984  10.975  20.169  0.00  0.00    +0.000 A 
ATOM     23  C   UNL     1       1.343   9.685  19.783  0.00  0.00    +0.000 A 
ATOM     24  C   UNL     1       1.216   8.574  20.636  0.00  0.00    +0.000 A 
ATOM     25  C   UNL     1       1.649   7.362  20.157  0.00  0.00    +0.000 A 
ATOM     26  C   UNL     1       2.058   7.214  18.850  0.00  0.00    +0.000 A 
ATOM     27  C   UNL     1       2.135   8.275  17.985  0.00  0.00    +0.000 A 
ATOM     28  C   UNL     1       1.874   9.539  18.479  0.00  0.00    +0.000 A 
ATOM     29  N   UNL     1       2.209  10.586  17.727  0.00  0.00    +0.000 NA
ATOM     30  C   UNL     1       2.000  11.839  18.179  0.00  0.00    +0.000 A 
ATOM     31  O   UNL     1       2.483   5.948  18.587  0.00  0.00    +0.000 OA
ATOM     32  C   UNL     1       2.660   5.492  19.941  0.00  0.00    +0.000 C 
ATOM     33  O   UNL     1       1.821   6.215  20.869  0.00  0.00    +0.000 OA
BRANCH  30  34
ATOM     34  N   UNL     1       2.554  12.902  17.429  0.00  0.00    +0.000 N 
ATOM     35  H   UNL     1       1.814  13.558  17.196  0.00  0.00    +0.000 HD
BRANCH  34  36
ATOM     36  C   UNL     1       3.578  13.615  18.213  0.00  0.00    +0.000 C 
ATOM     37  C   UNL     1       3.587  15.088  17.840  0.00  0.00    +0.000 C 
ENDBRANCH  34  36
ENDBRANCH  30  34
ENDBRANCH  20  21
ENDBRANCH   5  20
TORSDOF 8
ENDMDL
