MODEL 1
REMARK VINA RESULT:      -8.4      0.000      0.000
REMARK  Name = 
REMARK  6 active torsions:
REMARK  status: ('A' for Active; 'I' for Inactive)
REMARK    1  A    between atoms: C_1  and  O_2
REMARK    2  A    between atoms: O_2  and  C_3
REMARK    3  A    between atoms: C_7  and  N_8
REMARK    4  A    between atoms: C_12  and  C_14
REMARK    5  A    between atoms: N_17  and  S_18
REMARK    6  A    between atoms: S_18  and  C_21
REMARK                            x       y       z     vdW  Elec       q    Type
REMARK                         _______ _______ _______ _____ _____    ______ ____
ROOT
ATOM      1  C   UNL     1      -0.846  12.352  22.522  0.00  0.00    +0.000 C 
ATOM      2  C   UNL     1      -2.106  11.710  23.102  0.00  0.00    +0.000 C 
ATOM      3  C   UNL     1      -3.416  12.343  22.671  0.00  0.00    +0.000 C 
ATOM      4  N   UNL     1      -3.424  13.819  22.633  0.00  0.00    +0.000 NA
ATOM      5  C   UNL     1      -2.167  14.562  22.424  0.00  0.00    +0.000 C 
ATOM      6  C   UNL     1      -0.896  13.838  22.873  0.00  0.00    +0.000 C 
ENDROOT
BRANCH   1  11
ATOM      7  N   UNL     1       1.547   8.584  20.024  0.00  0.00    +0.000 N 
ATOM      8  C   UNL     1       1.246   9.583  18.975  0.00  0.00    +0.000 C 
ATOM      9  C   UNL     1      -0.096  10.324  19.245  0.00  0.00    +0.000 C 
ATOM     10  N   UNL     1      -0.266  10.712  20.667  0.00  0.00    +0.000 N 
ATOM     11  C   UNL     1      -0.589  12.024  21.031  0.00  0.00    +0.000 C 
ATOM     12  O   UNL     1      -0.665  12.902  20.180  0.00  0.00    +0.000 OA
ATOM     13  C   UNL     1      -0.039   9.597  21.583  0.00  0.00    +0.000 C 
ATOM     14  C   UNL     1       1.397   9.070  21.396  0.00  0.00    +0.000 C 
BRANCH   7  19
ATOM     15  C   UNL     1       1.775   4.893  20.433  0.00  0.00    +0.000 A 
ATOM     16  C   UNL     1       2.528   4.548  19.315  0.00  0.00    +0.000 A 
ATOM     17  C   UNL     1       2.951   5.536  18.430  0.00  0.00    +0.000 A 
ATOM     18  C   UNL     1       2.628   6.879  18.665  0.00  0.00    +0.000 A 
ATOM     19  C   UNL     1       1.873   7.266  19.779  0.00  0.00    +0.000 A 
ATOM     20  C   UNL     1       1.450   6.238  20.647  0.00  0.00    +0.000 A 
BRANCH  15  22
ATOM     21  C   UNL     1       2.473   2.936  21.592  0.00  0.00    +0.000 C 
ATOM     22  O   UNL     1       1.436   3.844  21.246  0.00  0.00    +0.000 OA
ENDBRANCH  15  22
ENDBRANCH   7  19
ENDBRANCH   1  11
BRANCH   4  23
ATOM     23  S   UNL     1      -4.831  14.497  21.908  0.00  0.00    +0.000 S 
ATOM     24  O   UNL     1      -5.775  14.881  22.940  0.00  0.00    +0.000 OA
ATOM     25  O   UNL     1      -4.352  15.495  20.959  0.00  0.00    +0.000 OA
BRANCH  23  26
ATOM     26  C   UNL     1      -5.567  13.225  20.936  0.00  0.00    +0.000 A 
ATOM     27  C   UNL     1      -5.330  13.155  19.539  0.00  0.00    +0.000 A 
ATOM     28  C   UNL     1      -5.956  12.208  18.685  0.00  0.00    +0.000 A 
ATOM     29  C   UNL     1      -6.851  11.235  19.156  0.00  0.00    +0.000 A 
ATOM     30  C   UNL     1      -7.106  11.290  20.539  0.00  0.00    +0.000 A 
ATOM     31  N   UNL     1      -7.916  10.515  21.266  0.00  0.00    +0.000 NA
ATOM     32  O   UNL     1      -7.839  11.002  22.558  0.00  0.00    +0.000 OA
ATOM     33  N   UNL     1      -7.019  12.106  22.637  0.00  0.00    +0.000 NA
ATOM     34  C   UNL     1      -6.495  12.287  21.420  0.00  0.00    +0.000 A 
ENDBRANCH  23  26
ENDBRANCH   4  23
TORSDOF 5
ENDMDL
MODEL 2
REMARK VINA RESULT:      -8.3      2.613      3.909
REMARK  Name = 
REMARK  6 active torsions:
REMARK  status: ('A' for Active; 'I' for Inactive)
REMARK    1  A    between atoms: C_1  and  O_2
REMARK    2  A    between atoms: O_2  and  C_3
REMARK    3  A    between atoms: C_7  and  N_8
REMARK    4  A    between atoms: C_12  and  C_14
REMARK    5  A    between atoms: N_17  and  S_18
REMARK    6  A    between atoms: S_18  and  C_21
REMARK                            x       y       z     vdW  Elec       q    Type
REMARK                         _______ _______ _______ _____ _____    ______ ____
ROOT
ATOM      1  C   UNL     1      -0.487  11.054  18.733  0.00  0.00    +0.000 C 
ATOM      2  C   UNL     1       0.212  12.412  18.811  0.00  0.00    +0.000 C 
ATOM      3  C   UNL     1      -0.225  13.304  19.958  0.00  0.00    +0.000 C 
ATOM      4  N   UNL     1      -1.676  13.329  20.224  0.00  0.00    +0.000 NA
ATOM      5  C   UNL     1      -2.518  12.175  19.854  0.00  0.00    +0.000 C 
ATOM      6  C   UNL     1      -1.990  11.323  18.699  0.00  0.00    +0.000 C 
ENDROOT
BRANCH   1  11
ATOM      7  N   UNL     1       2.638   7.005  18.690  0.00  0.00    +0.000 N 
ATOM      8  C   UNL     1       1.990   6.950  20.019  0.00  0.00    +0.000 C 
ATOM      9  C   UNL     1       1.703   8.372  20.585  0.00  0.00    +0.000 C 
ATOM     10  N   UNL     1       1.158   9.300  19.565  0.00  0.00    +0.000 N 
ATOM     11  C   UNL     1      -0.014  10.031  19.795  0.00  0.00    +0.000 C 
ATOM     12  O   UNL     1      -0.658   9.859  20.822  0.00  0.00    +0.000 OA
ATOM     13  C   UNL     1       1.961   9.327  18.344  0.00  0.00    +0.000 C 
ATOM     14  C   UNL     1       2.004   7.912  17.734  0.00  0.00    +0.000 C 
BRANCH   7  19
ATOM     15  C   UNL     1       5.618   5.896  16.757  0.00  0.00    +0.000 A 
ATOM     16  C   UNL     1       6.166   4.960  17.628  0.00  0.00    +0.000 A 
ATOM     17  C   UNL     1       5.551   4.704  18.851  0.00  0.00    +0.000 A 
ATOM     18  C   UNL     1       4.377   5.381  19.205  0.00  0.00    +0.000 A 
ATOM     19  C   UNL     1       3.794   6.331  18.355  0.00  0.00    +0.000 A 
ATOM     20  C   UNL     1       4.451   6.574  17.131  0.00  0.00    +0.000 A 
BRANCH  15  22
ATOM     21  C   UNL     1       6.892   4.883  15.022  0.00  0.00    +0.000 C 
ATOM     22  O   UNL     1       6.292   6.047  15.575  0.00  0.00    +0.000 OA
ENDBRANCH  15  22
ENDBRANCH   7  19
ENDBRANCH   1  11
BRANCH   4  23
ATOM     23  S   UNL     1      -2.112  14.146  21.676  0.00  0.00    +0.000 S 
ATOM     24  O   UNL     1      -1.449  13.521  22.805  0.00  0.00    +0.000 OA
ATOM     25  O   UNL     1      -1.909  15.566  21.414  0.00  0.00    +0.000 OA
BRANCH  23  26
ATOM     26  C   UNL     1      -3.850  13.938  21.876  0.00  0.00    +0.000 A 
ATOM     27  C   UNL     1      -4.762  14.672  21.074  0.00  0.00    +0.000 A 
ATOM     28  C   UNL     1      -6.172  14.614  21.239  0.00  0.00    +0.000 A 
ATOM     29  C   UNL     1      -6.792  13.800  22.201  0.00  0.00    +0.000 A 
ATOM     30  C   UNL     1      -5.905  13.068  23.012  0.00  0.00    +0.000 A 
ATOM     31  N   UNL     1      -6.195  12.231  24.013  0.00  0.00    +0.000 NA
ATOM     32  O   UNL     1      -4.975  11.803  24.506  0.00  0.00    +0.000 OA
ATOM     33  N   UNL     1      -3.923  12.403  23.849  0.00  0.00    +0.000 NA
ATOM     34  C   UNL     1      -4.450  13.150  22.874  0.00  0.00    +0.000 A 
ENDBRANCH  23  26
ENDBRANCH   4  23
TORSDOF 5
ENDMDL
MODEL 3
REMARK VINA RESULT:      -8.2      2.928      4.387
REMARK  Name = 
REMARK  6 active torsions:
REMARK  status: ('A' for Active; 'I' for Inactive)
REMARK    1  A    between atoms: C_1  and  O_2
REMARK    2  A    between atoms: O_2  and  C_3
REMARK    3  A    between atoms: C_7  and  N_8
REMARK    4  A    between atoms: C_12  and  C_14
REMARK    5  A    between atoms: N_17  and  S_18
REMARK    6  A    between atoms: S_18  and  C_21
REMARK                            x       y       z     vdW  Elec       q    Type
REMARK                         _______ _______ _______ _____ _____    ______ ____
ROOT
ATOM      1  C   UNL     1      -0.201  10.916  18.931  0.00  0.00    +0.000 C 
ATOM      2  C   UNL     1       0.663  12.174  19.010  0.00  0.00    +0.000 C 
ATOM      3  C   UNL     1       0.494  13.001  20.271  0.00  0.00    +0.000 C 
ATOM      4  N   UNL     1      -0.896  13.164  20.741  0.00  0.00    +0.000 NA
ATOM      5  C   UNL     1      -1.914  12.149  20.407  0.00  0.00    +0.000 C 
ATOM      6  C   UNL     1      -1.651  11.353  19.129  0.00  0.00    +0.000 C 
ENDROOT
BRANCH   1  11
ATOM      7  N   UNL     1       2.726   6.780  18.231  0.00  0.00    +0.000 N 
ATOM      8  C   UNL     1       2.145   6.591  19.579  0.00  0.00    +0.000 C 
ATOM      9  C   UNL     1       1.953   7.944  20.324  0.00  0.00    +0.000 C 
ATOM     10  N   UNL     1       1.400   9.011  19.454  0.00  0.00    +0.000 N 
ATOM     11  C   UNL     1       0.277   9.754  19.835  0.00  0.00    +0.000 C 
ATOM     12  O   UNL     1      -0.321   9.484  20.869  0.00  0.00    +0.000 OA
ATOM     13  C   UNL     1       2.140   9.153  18.202  0.00  0.00    +0.000 C 
ATOM     14  C   UNL     1       2.087   7.821  17.426  0.00  0.00    +0.000 C 
BRANCH   7  19
ATOM     15  C   UNL     1       6.176   6.128  17.000  0.00  0.00    +0.000 A 
ATOM     16  C   UNL     1       6.120   4.758  16.766  0.00  0.00    +0.000 A 
ATOM     17  C   UNL     1       4.945   4.057  17.022  0.00  0.00    +0.000 A 
ATOM     18  C   UNL     1       3.815   4.727  17.507  0.00  0.00    +0.000 A 
ATOM     19  C   UNL     1       3.831   6.106  17.755  0.00  0.00    +0.000 A 
ATOM     20  C   UNL     1       5.041   6.782  17.497  0.00  0.00    +0.000 A 
BRANCH  15  22
ATOM     21  C   UNL     1       7.806   7.778  17.532  0.00  0.00    +0.000 C 
ATOM     22  O   UNL     1       7.373   6.718  16.690  0.00  0.00    +0.000 OA
ENDBRANCH  15  22
ENDBRANCH   7  19
ENDBRANCH   1  11
BRANCH   4  23
ATOM     23  S   UNL     1      -1.033  13.889  22.297  0.00  0.00    +0.000 S 
ATOM     24  O   UNL     1      -0.554  12.967  23.308  0.00  0.00    +0.000 OA
ATOM     25  O   UNL     1      -0.428  15.210  22.179  0.00  0.00    +0.000 OA
BRANCH  23  26
ATOM     26  C   UNL     1      -2.749  14.169  22.579  0.00  0.00    +0.000 A 
ATOM     27  C   UNL     1      -3.362  15.378  22.158  0.00  0.00    +0.000 A 
ATOM     28  C   UNL     1      -4.718  15.703  22.426  0.00  0.00    +0.000 A 
ATOM     29  C   UNL     1      -5.585  14.840  23.115  0.00  0.00    +0.000 A 
ATOM     30  C   UNL     1      -4.996  13.637  23.548  0.00  0.00    +0.000 A 
ATOM     31  N   UNL     1      -5.558  12.637  24.234  0.00  0.00    +0.000 NA
ATOM     32  O   UNL     1      -4.550  11.713  24.439  0.00  0.00    +0.000 OA
ATOM     33  N   UNL     1      -3.348  12.148  23.923  0.00  0.00    +0.000 NA
ATOM     34  C   UNL     1      -3.589  13.311  23.308  0.00  0.00    +0.000 A 
ENDBRANCH  23  26
ENDBRANCH   4  23
TORSDOF 5
ENDMDL
MODEL 4
REMARK VINA RESULT:      -8.1      1.574      2.235
REMARK  Name = 
REMARK  6 active torsions:
REMARK  status: ('A' for Active; 'I' for Inactive)
REMARK    1  A    between atoms: C_1  and  O_2
REMARK    2  A    between atoms: O_2  and  C_3
REMARK    3  A    between atoms: C_7  and  N_8
REMARK    4  A    between atoms: C_12  and  C_14
REMARK    5  A    between atoms: N_17  and  S_18
REMARK    6  A    between atoms: S_18  and  C_21
REMARK                            x       y       z     vdW  Elec       q    Type
REMARK                         _______ _______ _______ _____ _____    ______ ____
ROOT
ATOM      1  C   UNL     1      -1.138  12.431  22.698  0.00  0.00    +0.000 C 
ATOM      2  C   UNL     1      -2.363  11.798  23.357  0.00  0.00    +0.000 C 
ATOM      3  C   UNL     1      -3.697  12.415  22.980  0.00  0.00    +0.000 C 
ATOM      4  N   UNL     1      -3.715  13.889  22.909  0.00  0.00    +0.000 NA
ATOM      5  C   UNL     1      -2.474  14.632  22.618  0.00  0.00    +0.000 C 
ATOM      6  C   UNL     1      -1.178  13.924  23.016  0.00  0.00    +0.000 C 
ENDROOT
BRANCH   1  11
ATOM      7  N   UNL     1       1.405   8.793  20.157  0.00  0.00    +0.000 N 
ATOM      8  C   UNL     1       0.944   9.720  19.100  0.00  0.00    +0.000 C 
ATOM      9  C   UNL     1      -0.437  10.351  19.442  0.00  0.00    +0.000 C 
ATOM     10  N   UNL     1      -0.543  10.777  20.860  0.00  0.00    +0.000 N 
ATOM     11  C   UNL     1      -0.957  12.069  21.204  0.00  0.00    +0.000 C 
ATOM     12  O   UNL     1      -1.170  12.903  20.332  0.00  0.00    +0.000 OA
ATOM     13  C   UNL     1      -0.154   9.723  21.793  0.00  0.00    +0.000 C 
ATOM     14  C   UNL     1       1.308   9.316  21.519  0.00  0.00    +0.000 C 
BRANCH   7  19
ATOM     15  C   UNL     1       3.048   5.872  18.541  0.00  0.00    +0.000 A 
ATOM     16  C   UNL     1       2.713   4.854  19.429  0.00  0.00    +0.000 A 
ATOM     17  C   UNL     1       1.952   5.140  20.559  0.00  0.00    +0.000 A 
ATOM     18  C   UNL     1       1.514   6.448  20.801  0.00  0.00    +0.000 A 
ATOM     19  C   UNL     1       1.830   7.500  19.931  0.00  0.00    +0.000 A 
ATOM     20  C   UNL     1       2.613   7.177  18.804  0.00  0.00    +0.000 A 
BRANCH  15  22
ATOM     21  C   UNL     1       4.676   6.421  16.895  0.00  0.00    +0.000 C 
ATOM     22  O   UNL     1       3.778   5.471  17.453  0.00  0.00    +0.000 OA
ENDBRANCH  15  22
ENDBRANCH   7  19
ENDBRANCH   1  11
BRANCH   4  23
ATOM     23  S   UNL     1      -5.161  14.544  22.241  0.00  0.00    +0.000 S 
ATOM     24  O   UNL     1      -5.958  15.140  23.296  0.00  0.00    +0.000 OA
ATOM     25  O   UNL     1      -4.746  15.356  21.103  0.00  0.00    +0.000 OA
BRANCH  23  26
ATOM     26  C   UNL     1      -6.067  13.194  21.564  0.00  0.00    +0.000 A 
ATOM     27  C   UNL     1      -7.189  12.660  22.251  0.00  0.00    +0.000 A 
ATOM     28  C   UNL     1      -7.912  11.522  21.803  0.00  0.00    +0.000 A 
ATOM     29  C   UNL     1      -7.594  10.836  20.620  0.00  0.00    +0.000 A 
ATOM     30  C   UNL     1      -6.481  11.345  19.926  0.00  0.00    +0.000 A 
ATOM     31  N   UNL     1      -5.934  10.898  18.791  0.00  0.00    +0.000 NA
ATOM     32  O   UNL     1      -4.846  11.718  18.553  0.00  0.00    +0.000 OA
ATOM     33  N   UNL     1      -4.681  12.648  19.556  0.00  0.00    +0.000 NA
ATOM     34  C   UNL     1      -5.707  12.494  20.400  0.00  0.00    +0.000 A 
ENDBRANCH  23  26
ENDBRANCH   4  23
TORSDOF 5
ENDMDL
MODEL 5
REMARK VINA RESULT:      -8.1      2.307      3.147
REMARK  Name = 
REMARK  6 active torsions:
REMARK  status: ('A' for Active; 'I' for Inactive)
REMARK    1  A    between atoms: C_1  and  O_2
REMARK    2  A    between atoms: O_2  and  C_3
REMARK    3  A    between atoms: C_7  and  N_8
REMARK    4  A    between atoms: C_12  and  C_14
REMARK    5  A    between atoms: N_17  and  S_18
REMARK    6  A    between atoms: S_18  and  C_21
REMARK                            x       y       z     vdW  Elec       q    Type
REMARK                         _______ _______ _______ _____ _____    ______ ____
ROOT
ATOM      1  C   UNL     1      -0.448  11.407  19.004  0.00  0.00    +0.000 C 
ATOM      2  C   UNL     1       0.201  12.775  19.213  0.00  0.00    +0.000 C 
ATOM      3  C   UNL     1      -0.368  13.598  20.353  0.00  0.00    +0.000 C 
ATOM      4  N   UNL     1      -1.839  13.576  20.478  0.00  0.00    +0.000 NA
ATOM      5  C   UNL     1      -2.608  12.422  19.974  0.00  0.00    +0.000 C 
ATOM      6  C   UNL     1      -1.948  11.642  18.837  0.00  0.00    +0.000 C 
ENDROOT
BRANCH   1  11
ATOM      7  N   UNL     1       2.320   7.107  18.909  0.00  0.00    +0.000 N 
ATOM      8  C   UNL     1       1.688   7.103  20.247  0.00  0.00    +0.000 C 
ATOM      9  C   UNL     1       1.530   8.542  20.819  0.00  0.00    +0.000 C 
ATOM     10  N   UNL     1       1.052   9.517  19.809  0.00  0.00    +0.000 N 
ATOM     11  C   UNL     1      -0.050  10.343  20.056  0.00  0.00    +0.000 C 
ATOM     12  O   UNL     1      -0.693  10.223  21.092  0.00  0.00    +0.000 OA
ATOM     13  C   UNL     1       1.838   9.480  18.578  0.00  0.00    +0.000 C 
ATOM     14  C   UNL     1       1.753   8.069  17.963  0.00  0.00    +0.000 C 
BRANCH   7  19
ATOM     15  C   UNL     1       4.872   4.401  18.977  0.00  0.00    +0.000 A 
ATOM     16  C   UNL     1       5.648   4.740  17.873  0.00  0.00    +0.000 A 
ATOM     17  C   UNL     1       5.320   5.857  17.109  0.00  0.00    +0.000 A 
ATOM     18  C   UNL     1       4.216   6.646  17.453  0.00  0.00    +0.000 A 
ATOM     19  C   UNL     1       3.411   6.338  18.557  0.00  0.00    +0.000 A 
ATOM     20  C   UNL     1       3.764   5.193  19.300  0.00  0.00    +0.000 A 
BRANCH  15  22
ATOM     21  C   UNL     1       4.430   2.176  19.696  0.00  0.00    +0.000 C 
ATOM     22  O   UNL     1       5.302   3.299  19.667  0.00  0.00    +0.000 OA
ENDBRANCH  15  22
ENDBRANCH   7  19
ENDBRANCH   1  11
BRANCH   4  23
ATOM     23  S   UNL     1      -2.434  14.309  21.919  0.00  0.00    +0.000 S 
ATOM     24  O   UNL     1      -1.811  13.691  23.073  0.00  0.00    +0.000 OA
ATOM     25  O   UNL     1      -2.313  15.748  21.716  0.00  0.00    +0.000 OA
BRANCH  23  26
ATOM     26  C   UNL     1      -4.163  13.976  21.983  0.00  0.00    +0.000 A 
ATOM     27  C   UNL     1      -5.055  14.618  21.085  0.00  0.00    +0.000 A 
ATOM     28  C   UNL     1      -6.466  14.459  21.136  0.00  0.00    +0.000 A 
ATOM     29  C   UNL     1      -7.104  13.627  22.071  0.00  0.00    +0.000 A 
ATOM     30  C   UNL     1      -6.237  12.985  22.975  0.00  0.00    +0.000 A 
ATOM     31  N   UNL     1      -6.547  12.155  23.976  0.00  0.00    +0.000 NA
ATOM     32  O   UNL     1      -5.346  11.834  24.581  0.00  0.00    +0.000 OA
ATOM     33  N   UNL     1      -4.289  12.494  23.992  0.00  0.00    +0.000 NA
ATOM     34  C   UNL     1      -4.785  13.173  22.953  0.00  0.00    +0.000 A 
ENDBRANCH  23  26
ENDBRANCH   4  23
TORSDOF 5
ENDMDL
MODEL 6
REMARK VINA RESULT:      -7.9      2.403      3.707
REMARK  Name = 
REMARK  6 active torsions:
REMARK  status: ('A' for Active; 'I' for Inactive)
REMARK    1  A    between atoms: C_1  and  O_2
REMARK    2  A    between atoms: O_2  and  C_3
REMARK    3  A    between atoms: C_7  and  N_8
REMARK    4  A    between atoms: C_12  and  C_14
REMARK    5  A    between atoms: N_17  and  S_18
REMARK    6  A    between atoms: S_18  and  C_21
REMARK                            x       y       z     vdW  Elec       q    Type
REMARK                         _______ _______ _______ _____ _____    ______ ____
ROOT
ATOM      1  C   UNL     1      -0.255  10.661  18.409  0.00  0.00    +0.000 C 
ATOM      2  C   UNL     1       0.181  12.107  18.647  0.00  0.00    +0.000 C 
ATOM      3  C   UNL     1      -0.614  12.862  19.696  0.00  0.00    +0.000 C 
ATOM      4  N   UNL     1      -2.074  12.645  19.663  0.00  0.00    +0.000 NA
ATOM      5  C   UNL     1      -2.624  11.391  19.111  0.00  0.00    +0.000 C 
ATOM      6  C   UNL     1      -1.745  10.691  18.074  0.00  0.00    +0.000 C 
ENDROOT
BRANCH   1  11
ATOM      7  N   UNL     1       2.813   6.576  18.651  0.00  0.00    +0.000 N 
ATOM      8  C   UNL     1       2.111   6.582  19.954  0.00  0.00    +0.000 C 
ATOM      9  C   UNL     1       1.821   8.028  20.451  0.00  0.00    +0.000 C 
ATOM     10  N   UNL     1       1.330   8.922  19.374  0.00  0.00    +0.000 N 
ATOM     11  C   UNL     1       0.160   9.675  19.528  0.00  0.00    +0.000 C 
ATOM     12  O   UNL     1      -0.527   9.552  20.534  0.00  0.00    +0.000 OA
ATOM     13  C   UNL     1       2.182   8.891  18.187  0.00  0.00    +0.000 C 
ATOM     14  C   UNL     1       2.230   7.453  17.635  0.00  0.00    +0.000 C 
BRANCH   7  19
ATOM     15  C   UNL     1       5.333   4.507  16.860  0.00  0.00    +0.000 A 
ATOM     16  C   UNL     1       6.335   4.418  17.821  0.00  0.00    +0.000 A 
ATOM     17  C   UNL     1       6.175   5.048  19.053  0.00  0.00    +0.000 A 
ATOM     18  C   UNL     1       5.004   5.764  19.331  0.00  0.00    +0.000 A 
ATOM     19  C   UNL     1       3.972   5.875  18.391  0.00  0.00    +0.000 A 
ATOM     20  C   UNL     1       4.174   5.236  17.150  0.00  0.00    +0.000 A 
BRANCH  15  22
ATOM     21  C   UNL     1       5.906   4.610  14.553  0.00  0.00    +0.000 C 
ATOM     22  O   UNL     1       5.588   3.829  15.697  0.00  0.00    +0.000 OA
ENDBRANCH  15  22
ENDBRANCH   7  19
ENDBRANCH   1  11
BRANCH   4  23
ATOM     23  S   UNL     1      -2.916  13.311  21.009  0.00  0.00    +0.000 S 
ATOM     24  O   UNL     1      -2.442  12.696  22.234  0.00  0.00    +0.000 OA
ATOM     25  O   UNL     1      -2.842  14.759  20.852  0.00  0.00    +0.000 OA
BRANCH  23  26
ATOM     26  C   UNL     1      -4.615  12.891  20.806  0.00  0.00    +0.000 A 
ATOM     27  C   UNL     1      -5.234  12.982  19.532  0.00  0.00    +0.000 A 
ATOM     28  C   UNL     1      -6.616  12.738  19.314  0.00  0.00    +0.000 A 
ATOM     29  C   UNL     1      -7.493  12.360  20.343  0.00  0.00    +0.000 A 
ATOM     30  C   UNL     1      -6.901  12.270  21.617  0.00  0.00    +0.000 A 
ATOM     31  N   UNL     1      -7.478  11.952  22.780  0.00  0.00    +0.000 NA
ATOM     32  O   UNL     1      -6.477  12.043  23.730  0.00  0.00    +0.000 OA
ATOM     33  N   UNL     1      -5.286  12.460  23.176  0.00  0.00    +0.000 NA
ATOM     34  C   UNL     1      -5.485  12.556  21.857  0.00  0.00    +0.000 A 
ENDBRANCH  23  26
ENDBRANCH   4  23
TORSDOF 5
ENDMDL
MODEL 7
REMARK VINA RESULT:      -7.8      1.892      2.620
REMARK  Name = 
REMARK  6 active torsions:
REMARK  status: ('A' for Active; 'I' for Inactive)
REMARK    1  A    between atoms: C_1  and  O_2
REMARK    2  A    between atoms: O_2  and  C_3
REMARK    3  A    between atoms: C_7  and  N_8
REMARK    4  A    between atoms: C_12  and  C_14
REMARK    5  A    between atoms: N_17  and  S_18
REMARK    6  A    between atoms: S_18  and  C_21
REMARK                            x       y       z     vdW  Elec       q    Type
REMARK                         _______ _______ _______ _____ _____    ______ ____
ROOT
ATOM      1  C   UNL     1      -0.645  13.027  21.848  0.00  0.00    +0.000 C 
ATOM      2  C   UNL     1      -1.118  14.062  22.869  0.00  0.00    +0.000 C 
ATOM      3  C   UNL     1      -2.590  13.996  23.230  0.00  0.00    +0.000 C 
ATOM      4  N   UNL     1      -3.510  13.766  22.098  0.00  0.00    +0.000 NA
ATOM      5  C   UNL     1      -3.036  13.066  20.889  0.00  0.00    +0.000 C 
ATOM      6  C   UNL     1      -1.535  13.174  20.615  0.00  0.00    +0.000 C 
ENDROOT
BRANCH   1  11
ATOM      7  N   UNL     1       1.110   8.592  20.004  0.00  0.00    +0.000 N 
ATOM      8  C   UNL     1       0.469   8.224  21.285  0.00  0.00    +0.000 C 
ATOM      9  C   UNL     1       0.621   9.345  22.354  0.00  0.00    +0.000 C 
ATOM     10  N   UNL     1       0.388  10.704  21.805  0.00  0.00    +0.000 N 
ATOM     11  C   UNL     1      -0.510  11.591  22.409  0.00  0.00    +0.000 C 
ATOM     12  O   UNL     1      -1.182  11.233  23.369  0.00  0.00    +0.000 OA
ATOM     13  C   UNL     1       1.168  10.962  20.597  0.00  0.00    +0.000 C 
ATOM     14  C   UNL     1       0.786   9.932  19.515  0.00  0.00    +0.000 C 
BRANCH   7  19
ATOM     15  C   UNL     1       3.243   5.674  19.117  0.00  0.00    +0.000 A 
ATOM     16  C   UNL     1       3.862   6.139  17.962  0.00  0.00    +0.000 A 
ATOM     17  C   UNL     1       3.567   7.412  17.479  0.00  0.00    +0.000 A 
ATOM     18  C   UNL     1       2.655   8.229  18.157  0.00  0.00    +0.000 A 
ATOM     19  C   UNL     1       2.011   7.797  19.324  0.00  0.00    +0.000 A 
ATOM     20  C   UNL     1       2.323   6.499  19.777  0.00  0.00    +0.000 A 
BRANCH  15  22
ATOM     21  C   UNL     1       2.853   3.801  20.532  0.00  0.00    +0.000 C 
ATOM     22  O   UNL     1       3.627   4.420  19.513  0.00  0.00    +0.000 OA
ENDBRANCH  15  22
ENDBRANCH   7  19
ENDBRANCH   1  11
BRANCH   4  23
ATOM     23  S   UNL     1      -5.137  13.448  22.566  0.00  0.00    +0.000 S 
ATOM     24  O   UNL     1      -5.194  12.208  23.316  0.00  0.00    +0.000 OA
ATOM     25  O   UNL     1      -5.628  14.680  23.170  0.00  0.00    +0.000 OA
BRANCH  23  26
ATOM     26  C   UNL     1      -6.062  13.236  21.082  0.00  0.00    +0.000 A 
ATOM     27  C   UNL     1      -6.647  11.981  20.769  0.00  0.00    +0.000 A 
ATOM     28  C   UNL     1      -7.334  11.720  19.553  0.00  0.00    +0.000 A 
ATOM     29  C   UNL     1      -7.517  12.694  18.559  0.00  0.00    +0.000 A 
ATOM     30  C   UNL     1      -6.939  13.945  18.847  0.00  0.00    +0.000 A 
ATOM     31  N   UNL     1      -6.933  15.049  18.094  0.00  0.00    +0.000 NA
ATOM     32  O   UNL     1      -6.206  15.984  18.809  0.00  0.00    +0.000 OA
ATOM     33  N   UNL     1      -5.718  15.457  19.985  0.00  0.00    +0.000 NA
ATOM     34  C   UNL     1      -6.197  14.212  20.080  0.00  0.00    +0.000 A 
ENDBRANCH  23  26
ENDBRANCH   4  23
TORSDOF 5
ENDMDL
MODEL 8
REMARK VINA RESULT:      -7.8      2.699      3.625
REMARK  Name = 
REMARK  6 active torsions:
REMARK  status: ('A' for Active; 'I' for Inactive)
REMARK    1  A    between atoms: C_1  and  O_2
REMARK    2  A    between atoms: O_2  and  C_3
REMARK    3  A    between atoms: C_7  and  N_8
REMARK    4  A    between atoms: C_12  and  C_14
REMARK    5  A    between atoms: N_17  and  S_18
REMARK    6  A    between atoms: S_18  and  C_21
REMARK                            x       y       z     vdW  Elec       q    Type
REMARK                         _______ _______ _______ _____ _____    ______ ____
ROOT
ATOM      1  C   UNL     1      -0.163  11.299  19.136  0.00  0.00    +0.000 C 
ATOM      2  C   UNL     1       0.618  12.587  19.397  0.00  0.00    +0.000 C 
ATOM      3  C   UNL     1       0.230  13.339  20.657  0.00  0.00    +0.000 C 
ATOM      4  N   UNL     1      -1.219  13.418  20.927  0.00  0.00    +0.000 NA
ATOM      5  C   UNL     1      -2.128  12.380  20.403  0.00  0.00    +0.000 C 
ATOM      6  C   UNL     1      -1.646  11.664  19.141  0.00  0.00    +0.000 C 
ENDROOT
BRANCH   1  11
ATOM      7  N   UNL     1       2.354   6.905  18.420  0.00  0.00    +0.000 N 
ATOM      8  C   UNL     1       1.803   6.790  19.788  0.00  0.00    +0.000 C 
ATOM      9  C   UNL     1       1.759   8.166  20.515  0.00  0.00    +0.000 C 
ATOM     10  N   UNL     1       1.276   9.265  19.643  0.00  0.00    +0.000 N 
ATOM     11  C   UNL     1       0.238  10.112  20.045  0.00  0.00    +0.000 C 
ATOM     12  O   UNL     1      -0.348   9.915  21.103  0.00  0.00    +0.000 OA
ATOM     13  C   UNL     1       1.984   9.320  18.366  0.00  0.00    +0.000 C 
ATOM     14  C   UNL     1       1.785   7.987  17.616  0.00  0.00    +0.000 C 
BRANCH   7  19
ATOM     15  C   UNL     1       4.333   3.900  17.473  0.00  0.00    +0.000 A 
ATOM     16  C   UNL     1       5.462   4.491  16.915  0.00  0.00    +0.000 A 
ATOM     17  C   UNL     1       5.561   5.878  16.849  0.00  0.00    +0.000 A 
ATOM     18  C   UNL     1       4.530   6.682  17.351  0.00  0.00    +0.000 A 
ATOM     19  C   UNL     1       3.377   6.125  17.921  0.00  0.00    +0.000 A 
ATOM     20  C   UNL     1       3.305   4.717  17.958  0.00  0.00    +0.000 A 
BRANCH  15  22
ATOM     21  C   UNL     1       3.210   1.880  18.041  0.00  0.00    +0.000 C 
ATOM     22  O   UNL     1       4.356   2.530  17.506  0.00  0.00    +0.000 OA
ENDBRANCH  15  22
ENDBRANCH   7  19
ENDBRANCH   1  11
BRANCH   4  23
ATOM     23  S   UNL     1      -1.613  14.053  22.479  0.00  0.00    +0.000 S 
ATOM     24  O   UNL     1      -1.141  13.150  23.510  0.00  0.00    +0.000 OA
ATOM     25  O   UNL     1      -1.161  15.439  22.471  0.00  0.00    +0.000 OA
BRANCH  23  26
ATOM     26  C   UNL     1      -3.371  14.121  22.571  0.00  0.00    +0.000 A 
ATOM     27  C   UNL     1      -4.088  15.159  21.921  0.00  0.00    +0.000 A 
ATOM     28  C   UNL     1      -5.496  15.320  22.023  0.00  0.00    +0.000 A 
ATOM     29  C   UNL     1      -6.310  14.444  22.760  0.00  0.00    +0.000 A 
ATOM     30  C   UNL     1      -5.617  13.410  23.417  0.00  0.00    +0.000 A 
ATOM     31  N   UNL     1      -6.113  12.445  24.198  0.00  0.00    +0.000 NA
ATOM     32  O   UNL     1      -5.020  11.712  24.624  0.00  0.00    +0.000 OA
ATOM     33  N   UNL     1      -3.838  12.240  24.151  0.00  0.00    +0.000 NA
ATOM     34  C   UNL     1      -4.163  13.259  23.349  0.00  0.00    +0.000 A 
ENDBRANCH  23  26
ENDBRANCH   4  23
TORSDOF 5
ENDMDL
MODEL 9
REMARK VINA RESULT:      -7.8      2.772      4.481
REMARK  Name = 
REMARK  6 active torsions:
REMARK  status: ('A' for Active; 'I' for Inactive)
REMARK    1  A    between atoms: C_1  and  O_2
REMARK    2  A    between atoms: O_2  and  C_3
REMARK    3  A    between atoms: C_7  and  N_8
REMARK    4  A    between atoms: C_12  and  C_14
REMARK    5  A    between atoms: N_17  and  S_18
REMARK    6  A    between atoms: S_18  and  C_21
REMARK                            x       y       z     vdW  Elec       q    Type
REMARK                         _______ _______ _______ _____ _____    ______ ____
ROOT
ATOM      1  C   UNL     1      -0.168  10.758  18.985  0.00  0.00    +0.000 C 
ATOM      2  C   UNL     1       0.652  12.044  19.084  0.00  0.00    +0.000 C 
ATOM      3  C   UNL     1       0.441  12.854  20.350  0.00  0.00    +0.000 C 
ATOM      4  N   UNL     1      -0.958  12.966  20.804  0.00  0.00    +0.000 NA
ATOM      5  C   UNL     1      -1.938  11.921  20.452  0.00  0.00    +0.000 C 
ATOM      6  C   UNL     1      -1.635  11.144  19.170  0.00  0.00    +0.000 C 
ENDROOT
BRANCH   1  11
ATOM      7  N   UNL     1       2.775   6.641  18.246  0.00  0.00    +0.000 N 
ATOM      8  C   UNL     1       2.226   6.456  19.608  0.00  0.00    +0.000 C 
ATOM      9  C   UNL     1       2.040   7.812  20.349  0.00  0.00    +0.000 C 
ATOM     10  N   UNL     1       1.459   8.868  19.484  0.00  0.00    +0.000 N 
ATOM     11  C   UNL     1       0.339   9.605  19.885  0.00  0.00    +0.000 C 
ATOM     12  O   UNL     1      -0.235   9.337  20.934  0.00  0.00    +0.000 OA
ATOM     13  C   UNL     1       2.171   9.009  18.216  0.00  0.00    +0.000 C 
ATOM     14  C   UNL     1       2.111   7.672  17.449  0.00  0.00    +0.000 C 
BRANCH   7  19
ATOM     15  C   UNL     1       6.235   5.988  17.044  0.00  0.00    +0.000 A 
ATOM     16  C   UNL     1       6.154   4.637  16.723  0.00  0.00    +0.000 A 
ATOM     17  C   UNL     1       4.959   3.948  16.911  0.00  0.00    +0.000 A 
ATOM     18  C   UNL     1       3.834   4.613  17.415  0.00  0.00    +0.000 A 
ATOM     19  C   UNL     1       3.876   5.972  17.749  0.00  0.00    +0.000 A 
ATOM     20  C   UNL     1       5.105   6.635  17.559  0.00  0.00    +0.000 A 
BRANCH  15  22
ATOM     21  C   UNL     1       7.723   7.800  17.450  0.00  0.00    +0.000 C 
ATOM     22  O   UNL     1       7.451   6.568  16.795  0.00  0.00    +0.000 OA
ENDBRANCH  15  22
ENDBRANCH   7  19
ENDBRANCH   1  11
BRANCH   4  23
ATOM     23  S   UNL     1      -1.137  13.673  22.365  0.00  0.00    +0.000 S 
ATOM     24  O   UNL     1      -0.419  12.881  23.344  0.00  0.00    +0.000 OA
ATOM     25  O   UNL     1      -0.818  15.086  22.204  0.00  0.00    +0.000 OA
BRANCH  23  26
ATOM     26  C   UNL     1      -2.853  13.610  22.759  0.00  0.00    +0.000 A 
ATOM     27  C   UNL     1      -3.320  12.794  23.823  0.00  0.00    +0.000 A 
ATOM     28  C   UNL     1      -4.695  12.633  24.141  0.00  0.00    +0.000 A 
ATOM     29  C   UNL     1      -5.719  13.292  23.441  0.00  0.00    +0.000 A 
ATOM     30  C   UNL     1      -5.278  14.102  22.378  0.00  0.00    +0.000 A 
ATOM     31  N   UNL     1      -6.011  14.831  21.531  0.00  0.00    +0.000 NA
ATOM     32  O   UNL     1      -5.108  15.407  20.657  0.00  0.00    +0.000 OA
ATOM     33  N   UNL     1      -3.817  15.007  20.923  0.00  0.00    +0.000 NA
ATOM     34  C   UNL     1      -3.866  14.244  22.020  0.00  0.00    +0.000 A 
ENDBRANCH  23  26
ENDBRANCH   4  23
TORSDOF 5
ENDMDL
