MODEL 1
REMARK VINA RESULT:      -7.8      0.000      0.000
REMARK  Name = 
REMARK  9 active torsions:
REMARK  status: ('A' for Active; 'I' for Inactive)
REMARK    1  A    between atoms: C_5  and  O_6
REMARK    2  A    between atoms: O_6  and  C_7
REMARK    3  A    between atoms: C_7  and  C_8
REMARK    4  A    between atoms: C_11  and  S_12
REMARK    5  A    between atoms: S_12  and  C_13
REMARK    6  A    between atoms: C_13  and  C_14
REMARK    7  A    between atoms: C_14  and  N_15
REMARK    8  A    between atoms: N_21  and  C_22
REMARK    9  A    between atoms: C_22  and  C_23
REMARK                            x       y       z     vdW  Elec       q    Type
REMARK                         _______ _______ _______ _____ _____    ______ ____
ROOT
ATOM      1  C   UNL     1       7.114   6.644  18.182  0.00  0.00    +0.000 A 
ATOM      2  N   UNL     1       7.502   5.915  19.220  0.00  0.00    +0.000 NA
ATOM      3  N   UNL     1       6.646   4.837  19.364  0.00  0.00    +0.000 NA
ATOM      4  C   UNL     1       5.745   4.917  18.416  0.00  0.00    +0.000 A 
ATOM      5  N   UNL     1       6.018   6.011  17.617  0.00  0.00    +0.000 N 
ENDROOT
BRANCH   1   6
ATOM      6  C   UNL     1       7.845   7.856  17.646  0.00  0.00    +0.000 C 
BRANCH   6   7
ATOM      7  O   UNL     1       8.656   8.431  18.685  0.00  0.00    +0.000 OA
BRANCH   7  12
ATOM      8 CL   UNL     1       9.632  14.256  18.943  0.00  0.00    +0.000 Cl
ATOM      9  C   UNL     1       9.335  12.563  18.838  0.00  0.00    +0.000 A 
ATOM     10  C   UNL     1       9.828  11.706  19.817  0.00  0.00    +0.000 A 
ATOM     11  C   UNL     1       9.576  10.330  19.724  0.00  0.00    +0.000 A 
ATOM     12  C   UNL     1       8.821   9.799  18.667  0.00  0.00    +0.000 A 
ATOM     13  C   UNL     1       8.355  10.672  17.678  0.00  0.00    +0.000 A 
ATOM     14  C   UNL     1       8.612  12.050  17.763  0.00  0.00    +0.000 A 
ENDBRANCH   7  12
ENDBRANCH   6   7
ENDBRANCH   1   6
BRANCH   4  15
ATOM     15  S   UNL     1       4.445   3.816  18.077  0.00  0.00    +0.000 S 
BRANCH  15  16
ATOM     16  C   UNL     1       2.920   4.579  18.693  0.00  0.00    +0.000 C 
BRANCH  16  17
ATOM     17  C   UNL     1       3.054   5.640  19.804  0.00  0.00    +0.000 C 
BRANCH  17  18
ATOM     18  N   UNL     1       2.764   7.061  19.489  0.00  0.00    +0.000 NA
ATOM     19  C   UNL     1       2.435   7.296  18.074  0.00  0.00    +0.000 C 
ATOM     20  C   UNL     1       2.168   8.785  17.805  0.00  0.00    +0.000 C 
ATOM     21  C   UNL     1       1.067   9.337  18.702  0.00  0.00    +0.000 C 
ATOM     22  C   UNL     1       1.363   9.010  20.159  0.00  0.00    +0.000 C 
ATOM     23  C   UNL     1       1.652   7.521  20.347  0.00  0.00    +0.000 C 
ENDBRANCH  17  18
ENDBRANCH  16  17
ENDBRANCH  15  16
ENDBRANCH   4  15
BRANCH   5  24
ATOM     24  C   UNL     1       5.375   6.315  16.352  0.00  0.00    +0.000 C 
BRANCH  24  25
ATOM     25  C   UNL     1       5.891   5.460  15.257  0.00  0.00    +0.000 A 
ATOM     26  C   UNL     1       5.356   4.418  14.521  0.00  0.00    +0.000 A 
ATOM     27  C   UNL     1       6.363   4.009  13.616  0.00  0.00    +0.000 A 
ATOM     28  C   UNL     1       7.451   4.814  13.868  0.00  0.00    +0.000 A 
ATOM     29  O   UNL     1       7.177   5.689  14.866  0.00  0.00    +0.000 OA
ENDBRANCH  24  25
ENDBRANCH   5  24
TORSDOF 9
ENDMDL
MODEL 2
REMARK VINA RESULT:      -7.4      3.706      8.101
REMARK  Name = 
REMARK  9 active torsions:
REMARK  status: ('A' for Active; 'I' for Inactive)
REMARK    1  A    between atoms: C_5  and  O_6
REMARK    2  A    between atoms: O_6  and  C_7
REMARK    3  A    between atoms: C_7  and  C_8
REMARK    4  A    between atoms: C_11  and  S_12
REMARK    5  A    between atoms: S_12  and  C_13
REMARK    6  A    between atoms: C_13  and  C_14
REMARK    7  A    between atoms: C_14  and  N_15
REMARK    8  A    between atoms: N_21  and  C_22
REMARK    9  A    between atoms: C_22  and  C_23
REMARK                            x       y       z     vdW  Elec       q    Type
REMARK                         _______ _______ _______ _____ _____    ______ ____
ROOT
ATOM      1  C   UNL     1       5.668   5.203  16.233  0.00  0.00    +0.000 A 
ATOM      2  N   UNL     1       6.658   5.346  15.363  0.00  0.00    +0.000 NA
ATOM      3  N   UNL     1       7.646   6.136  15.925  0.00  0.00    +0.000 NA
ATOM      4  C   UNL     1       7.252   6.467  17.130  0.00  0.00    +0.000 A 
ATOM      5  N   UNL     1       6.033   5.870  17.391  0.00  0.00    +0.000 N 
ENDROOT
BRANCH   1   6
ATOM      6  C   UNL     1       4.444   4.336  16.026  0.00  0.00    +0.000 C 
BRANCH   6   7
ATOM      7  O   UNL     1       4.551   3.148  16.829  0.00  0.00    +0.000 OA
BRANCH   7  12
ATOM      8 CL   UNL     1       1.230   2.638  21.693  0.00  0.00    +0.000 Cl
ATOM      9  C   UNL     1       2.172   2.798  20.260  0.00  0.00    +0.000 A 
ATOM     10  C   UNL     1       3.548   2.600  20.304  0.00  0.00    +0.000 A 
ATOM     11  C   UNL     1       4.304   2.729  19.130  0.00  0.00    +0.000 A 
ATOM     12  C   UNL     1       3.696   3.039  17.904  0.00  0.00    +0.000 A 
ATOM     13  C   UNL     1       2.314   3.259  17.883  0.00  0.00    +0.000 A 
ATOM     14  C   UNL     1       1.554   3.140  19.059  0.00  0.00    +0.000 A 
ENDBRANCH   7  12
ENDBRANCH   6   7
ENDBRANCH   1   6
BRANCH   4  15
ATOM     15  S   UNL     1       8.101   7.410  18.315  0.00  0.00    +0.000 S 
BRANCH  15  16
ATOM     16  C   UNL     1       8.092   9.130  17.740  0.00  0.00    +0.000 C 
BRANCH  16  17
ATOM     17  C   UNL     1       8.643  10.204  18.701  0.00  0.00    +0.000 C 
BRANCH  17  18
ATOM     18  N   UNL     1       9.895  10.918  18.349  0.00  0.00    +0.000 NA
ATOM     19  C   UNL     1       9.671  12.206  17.674  0.00  0.00    +0.000 C 
ATOM     20  C   UNL     1      11.001  12.885  17.314  0.00  0.00    +0.000 C 
ATOM     21  C   UNL     1      11.890  13.078  18.536  0.00  0.00    +0.000 C 
ATOM     22  C   UNL     1      12.045  11.762  19.287  0.00  0.00    +0.000 C 
ATOM     23  C   UNL     1      10.686  11.127  19.581  0.00  0.00    +0.000 C 
ENDBRANCH  17  18
ENDBRANCH  16  17
ENDBRANCH  15  16
ENDBRANCH   4  15
BRANCH   5  24
ATOM     24  C   UNL     1       5.372   5.829  18.683  0.00  0.00    +0.000 C 
BRANCH  24  25
ATOM     25  C   UNL     1       4.071   6.536  18.653  0.00  0.00    +0.000 A 
ATOM     26  C   UNL     1       3.522   7.503  17.829  0.00  0.00    +0.000 A 
ATOM     27  C   UNL     1       2.229   7.774  18.334  0.00  0.00    +0.000 A 
ATOM     28  C   UNL     1       2.077   6.969  19.441  0.00  0.00    +0.000 A 
ATOM     29  O   UNL     1       3.190   6.223  19.646  0.00  0.00    +0.000 OA
ENDBRANCH  24  25
ENDBRANCH   5  24
TORSDOF 9
ENDMDL
MODEL 3
REMARK VINA RESULT:      -7.3      0.873      1.063
REMARK  Name = 
REMARK  9 active torsions:
REMARK  status: ('A' for Active; 'I' for Inactive)
REMARK    1  A    between atoms: C_5  and  O_6
REMARK    2  A    between atoms: O_6  and  C_7
REMARK    3  A    between atoms: C_7  and  C_8
REMARK    4  A    between atoms: C_11  and  S_12
REMARK    5  A    between atoms: S_12  and  C_13
REMARK    6  A    between atoms: C_13  and  C_14
REMARK    7  A    between atoms: C_14  and  N_15
REMARK    8  A    between atoms: N_21  and  C_22
REMARK    9  A    between atoms: C_22  and  C_23
REMARK                            x       y       z     vdW  Elec       q    Type
REMARK                         _______ _______ _______ _____ _____    ______ ____
ROOT
ATOM      1  C   UNL     1       7.472   6.765  18.334  0.00  0.00    +0.000 A 
ATOM      2  N   UNL     1       7.963   6.118  19.383  0.00  0.00    +0.000 NA
ATOM      3  N   UNL     1       7.049   5.165  19.798  0.00  0.00    +0.000 NA
ATOM      4  C   UNL     1       6.011   5.238  19.002  0.00  0.00    +0.000 A 
ATOM      5  N   UNL     1       6.244   6.198  18.035  0.00  0.00    +0.000 N 
ENDROOT
BRANCH   1   6
ATOM      6  C   UNL     1       8.210   7.820  17.538  0.00  0.00    +0.000 C 
BRANCH   6   7
ATOM      7  O   UNL     1       7.552   9.089  17.691  0.00  0.00    +0.000 OA
BRANCH   7  12
ATOM      8 CL   UNL     1      11.041  13.303  19.934  0.00  0.00    +0.000 Cl
ATOM      9  C   UNL     1      10.016  12.095  19.257  0.00  0.00    +0.000 A 
ATOM     10  C   UNL     1      10.064  10.791  19.737  0.00  0.00    +0.000 A 
ATOM     11  C   UNL     1       9.220   9.817  19.181  0.00  0.00    +0.000 A 
ATOM     12  C   UNL     1       8.315  10.138  18.158  0.00  0.00    +0.000 A 
ATOM     13  C   UNL     1       8.298  11.449  17.671  0.00  0.00    +0.000 A 
ATOM     14  C   UNL     1       9.148  12.426  18.218  0.00  0.00    +0.000 A 
ENDBRANCH   7  12
ENDBRANCH   6   7
ENDBRANCH   1   6
BRANCH   4  15
ATOM     15  S   UNL     1       4.577   4.259  19.017  0.00  0.00    +0.000 S 
BRANCH  15  16
ATOM     16  C   UNL     1       3.248   5.262  19.732  0.00  0.00    +0.000 C 
BRANCH  16  17
ATOM     17  C   UNL     1       2.646   6.377  18.852  0.00  0.00    +0.000 C 
BRANCH  17  18
ATOM     18  N   UNL     1       2.276   7.672  19.475  0.00  0.00    +0.000 NA
ATOM     19  C   UNL     1       1.607   8.602  18.552  0.00  0.00    +0.000 C 
ATOM     20  C   UNL     1       1.271   9.930  19.246  0.00  0.00    +0.000 C 
ATOM     21  C   UNL     1       0.420   9.721  20.492  0.00  0.00    +0.000 C 
ATOM     22  C   UNL     1       1.067   8.688  21.404  0.00  0.00    +0.000 C 
ATOM     23  C   UNL     1       1.405   7.407  20.640  0.00  0.00    +0.000 C 
ENDBRANCH  17  18
ENDBRANCH  16  17
ENDBRANCH  15  16
ENDBRANCH   4  15
BRANCH   5  24
ATOM     24  C   UNL     1       5.425   6.429  16.859  0.00  0.00    +0.000 C 
BRANCH  24  25
ATOM     25  C   UNL     1       5.740   5.467  15.778  0.00  0.00    +0.000 A 
ATOM     26  C   UNL     1       5.241   4.226  15.421  0.00  0.00    +0.000 A 
ATOM     27  C   UNL     1       5.971   3.812  14.284  0.00  0.00    +0.000 A 
ATOM     28  C   UNL     1       6.879   4.816  14.028  0.00  0.00    +0.000 A 
ATOM     29  O   UNL     1       6.752   5.817  14.933  0.00  0.00    +0.000 OA
ENDBRANCH  24  25
ENDBRANCH   5  24
TORSDOF 9
ENDMDL
MODEL 4
REMARK VINA RESULT:      -7.2      2.164      3.943
REMARK  Name = 
REMARK  9 active torsions:
REMARK  status: ('A' for Active; 'I' for Inactive)
REMARK    1  A    between atoms: C_5  and  O_6
REMARK    2  A    between atoms: O_6  and  C_7
REMARK    3  A    between atoms: C_7  and  C_8
REMARK    4  A    between atoms: C_11  and  S_12
REMARK    5  A    between atoms: S_12  and  C_13
REMARK    6  A    between atoms: C_13  and  C_14
REMARK    7  A    between atoms: C_14  and  N_15
REMARK    8  A    between atoms: N_21  and  C_22
REMARK    9  A    between atoms: C_22  and  C_23
REMARK                            x       y       z     vdW  Elec       q    Type
REMARK                         _______ _______ _______ _____ _____    ______ ____
ROOT
ATOM      1  C   UNL     1       7.437   6.628  17.431  0.00  0.00    +0.000 A 
ATOM      2  N   UNL     1       7.791   6.515  16.158  0.00  0.00    +0.000 NA
ATOM      3  N   UNL     1       7.209   5.377  15.625  0.00  0.00    +0.000 NA
ATOM      4  C   UNL     1       6.507   4.808  16.574  0.00  0.00    +0.000 A 
ATOM      5  N   UNL     1       6.580   5.578  17.719  0.00  0.00    +0.000 N 
ENDROOT
BRANCH   1   6
ATOM      6  C   UNL     1       7.797   7.788  18.335  0.00  0.00    +0.000 C 
BRANCH   6   7
ATOM      7  O   UNL     1       7.940   8.985  17.552  0.00  0.00    +0.000 OA
BRANCH   7  12
ATOM      8 CL   UNL     1      10.555  13.389  20.505  0.00  0.00    +0.000 Cl
ATOM      9  C   UNL     1       9.790  12.126  19.620  0.00  0.00    +0.000 A 
ATOM     10  C   UNL     1       9.778  10.829  20.123  0.00  0.00    +0.000 A 
ATOM     11  C   UNL     1       9.146   9.810  19.395  0.00  0.00    +0.000 A 
ATOM     12  C   UNL     1       8.512  10.075  18.173  0.00  0.00    +0.000 A 
ATOM     13  C   UNL     1       8.555  11.380  17.670  0.00  0.00    +0.000 A 
ATOM     14  C   UNL     1       9.194  12.403  18.391  0.00  0.00    +0.000 A 
ENDBRANCH   7  12
ENDBRANCH   6   7
ENDBRANCH   1   6
BRANCH   4  15
ATOM     15  S   UNL     1       5.528   3.378  16.473  0.00  0.00    +0.000 S 
BRANCH  15  16
ATOM     16  C   UNL     1       3.796   3.914  16.434  0.00  0.00    +0.000 C 
BRANCH  16  17
ATOM     17  C   UNL     1       2.762   3.029  17.160  0.00  0.00    +0.000 C 
BRANCH  17  18
ATOM     18  N   UNL     1       2.457   3.296  18.588  0.00  0.00    +0.000 NA
ATOM     19  C   UNL     1       1.028   3.175  18.919  0.00  0.00    +0.000 C 
ATOM     20  C   UNL     1       0.772   3.483  20.402  0.00  0.00    +0.000 C 
ATOM     21  C   UNL     1       1.603   2.596  21.320  0.00  0.00    +0.000 C 
ATOM     22  C   UNL     1       3.070   2.650  20.916  0.00  0.00    +0.000 C 
ATOM     23  C   UNL     1       3.247   2.367  19.425  0.00  0.00    +0.000 C 
ENDBRANCH  17  18
ENDBRANCH  16  17
ENDBRANCH  15  16
ENDBRANCH   4  15
BRANCH   5  24
ATOM     24  C   UNL     1       5.779   5.393  18.915  0.00  0.00    +0.000 C 
BRANCH  24  25
ATOM     25  C   UNL     1       4.484   6.106  18.820  0.00  0.00    +0.000 A 
ATOM     26  C   UNL     1       3.929   6.969  17.892  0.00  0.00    +0.000 A 
ATOM     27  C   UNL     1       2.649   7.316  18.381  0.00  0.00    +0.000 A 
ATOM     28  C   UNL     1       2.509   6.657  19.582  0.00  0.00    +0.000 A 
ATOM     29  O   UNL     1       3.619   5.930  19.860  0.00  0.00    +0.000 OA
ENDBRANCH  24  25
ENDBRANCH   5  24
TORSDOF 9
ENDMDL
MODEL 5
REMARK VINA RESULT:      -7.2      2.076      3.864
REMARK  Name = 
REMARK  9 active torsions:
REMARK  status: ('A' for Active; 'I' for Inactive)
REMARK    1  A    between atoms: C_5  and  O_6
REMARK    2  A    between atoms: O_6  and  C_7
REMARK    3  A    between atoms: C_7  and  C_8
REMARK    4  A    between atoms: C_11  and  S_12
REMARK    5  A    between atoms: S_12  and  C_13
REMARK    6  A    between atoms: C_13  and  C_14
REMARK    7  A    between atoms: C_14  and  N_15
REMARK    8  A    between atoms: N_21  and  C_22
REMARK    9  A    between atoms: C_22  and  C_23
REMARK                            x       y       z     vdW  Elec       q    Type
REMARK                         _______ _______ _______ _____ _____    ______ ____
ROOT
ATOM      1  C   UNL     1       6.988   6.971  17.502  0.00  0.00    +0.000 A 
ATOM      2  N   UNL     1       7.994   6.109  17.557  0.00  0.00    +0.000 NA
ATOM      3  N   UNL     1       7.601   4.914  16.978  0.00  0.00    +0.000 NA
ATOM      4  C   UNL     1       6.363   5.056  16.576  0.00  0.00    +0.000 A 
ATOM      5  N   UNL     1       5.942   6.346  16.841  0.00  0.00    +0.000 N 
ENDROOT
BRANCH   1   6
ATOM      6  C   UNL     1       7.052   8.415  17.950  0.00  0.00    +0.000 C 
BRANCH   6   7
ATOM      7  O   UNL     1       8.311   8.988  17.557  0.00  0.00    +0.000 OA
BRANCH   7  12
ATOM      8 CL   UNL     1      10.249  13.518  20.824  0.00  0.00    +0.000 Cl
ATOM      9  C   UNL     1       9.684  12.218  19.847  0.00  0.00    +0.000 A 
ATOM     10  C   UNL     1       9.649  10.925  20.358  0.00  0.00    +0.000 A 
ATOM     11  C   UNL     1       9.181   9.875  19.554  0.00  0.00    +0.000 A 
ATOM     12  C   UNL     1       8.733  10.106  18.245  0.00  0.00    +0.000 A 
ATOM     13  C   UNL     1       8.799  11.408  17.739  0.00  0.00    +0.000 A 
ATOM     14  C   UNL     1       9.275  12.462  18.538  0.00  0.00    +0.000 A 
ENDBRANCH   7  12
ENDBRANCH   6   7
ENDBRANCH   1   6
BRANCH   4  15
ATOM     15  S   UNL     1       5.367   3.904  15.742  0.00  0.00    +0.000 S 
BRANCH  15  16
ATOM     16  C   UNL     1       3.947   3.547  16.812  0.00  0.00    +0.000 C 
BRANCH  16  17
ATOM     17  C   UNL     1       4.159   2.540  17.961  0.00  0.00    +0.000 C 
BRANCH  17  18
ATOM     18  N   UNL     1       3.128   2.426  19.024  0.00  0.00    +0.000 NA
ATOM     19  C   UNL     1       3.582   2.901  20.340  0.00  0.00    +0.000 C 
ATOM     20  C   UNL     1       2.483   2.737  21.401  0.00  0.00    +0.000 C 
ATOM     21  C   UNL     1       1.195   3.445  21.000  0.00  0.00    +0.000 C 
ATOM     22  C   UNL     1       0.777   3.023  19.598  0.00  0.00    +0.000 C 
ATOM     23  C   UNL     1       1.928   3.180  18.604  0.00  0.00    +0.000 C 
ENDBRANCH  17  18
ENDBRANCH  16  17
ENDBRANCH  15  16
ENDBRANCH   4  15
BRANCH   5  24
ATOM     24  C   UNL     1       4.711   6.949  16.363  0.00  0.00    +0.000 C 
BRANCH  24  25
ATOM     25  C   UNL     1       3.749   7.173  17.467  0.00  0.00    +0.000 A 
ATOM     26  C   UNL     1       2.811   8.154  17.739  0.00  0.00    +0.000 A 
ATOM     27  C   UNL     1       2.206   7.801  18.967  0.00  0.00    +0.000 A 
ATOM     28  C   UNL     1       2.823   6.640  19.375  0.00  0.00    +0.000 A 
ATOM     29  O   UNL     1       3.764   6.258  18.477  0.00  0.00    +0.000 OA
ENDBRANCH  24  25
ENDBRANCH   5  24
TORSDOF 9
ENDMDL
MODEL 6
REMARK VINA RESULT:      -7.1      0.907      1.637
REMARK  Name = 
REMARK  9 active torsions:
REMARK  status: ('A' for Active; 'I' for Inactive)
REMARK    1  A    between atoms: C_5  and  O_6
REMARK    2  A    between atoms: O_6  and  C_7
REMARK    3  A    between atoms: C_7  and  C_8
REMARK    4  A    between atoms: C_11  and  S_12
REMARK    5  A    between atoms: S_12  and  C_13
REMARK    6  A    between atoms: C_13  and  C_14
REMARK    7  A    between atoms: C_14  and  N_15
REMARK    8  A    between atoms: N_21  and  C_22
REMARK    9  A    between atoms: C_22  and  C_23
REMARK                            x       y       z     vdW  Elec       q    Type
REMARK                         _______ _______ _______ _____ _____    ______ ____
ROOT
ATOM      1  C   UNL     1       7.053   6.326  18.590  0.00  0.00    +0.000 A 
ATOM      2  N   UNL     1       7.113   5.552  19.665  0.00  0.00    +0.000 NA
ATOM      3  N   UNL     1       5.955   4.799  19.749  0.00  0.00    +0.000 NA
ATOM      4  C   UNL     1       5.199   5.119  18.727  0.00  0.00    +0.000 A 
ATOM      5  N   UNL     1       5.862   6.043  17.942  0.00  0.00    +0.000 N 
ENDROOT
BRANCH   1   6
ATOM      6  C   UNL     1       8.165   7.230  18.104  0.00  0.00    +0.000 C 
BRANCH   6   7
ATOM      7  O   UNL     1       7.630   8.524  17.780  0.00  0.00    +0.000 OA
BRANCH   7  12
ATOM      8 CL   UNL     1      10.457  13.475  19.343  0.00  0.00    +0.000 Cl
ATOM      9  C   UNL     1       9.645  12.019  18.914  0.00  0.00    +0.000 A 
ATOM     10  C   UNL     1       8.735  12.011  17.862  0.00  0.00    +0.000 A 
ATOM     11  C   UNL     1       8.084  10.817  17.519  0.00  0.00    +0.000 A 
ATOM     12  C   UNL     1       8.344   9.623  18.207  0.00  0.00    +0.000 A 
ATOM     13  C   UNL     1       9.244   9.655  19.279  0.00  0.00    +0.000 A 
ATOM     14  C   UNL     1       9.892  10.850  19.632  0.00  0.00    +0.000 A 
ENDBRANCH   7  12
ENDBRANCH   6   7
ENDBRANCH   1   6
BRANCH   4  15
ATOM     15  S   UNL     1       3.651   4.464  18.292  0.00  0.00    +0.000 S 
BRANCH  15  16
ATOM     16  C   UNL     1       2.476   5.844  18.252  0.00  0.00    +0.000 C 
BRANCH  16  17
ATOM     17  C   UNL     1       2.637   6.947  19.319  0.00  0.00    +0.000 C 
BRANCH  17  18
ATOM     18  N   UNL     1       1.504   7.868  19.585  0.00  0.00    +0.000 NA
ATOM     19  C   UNL     1       1.370   8.246  21.000  0.00  0.00    +0.000 C 
ATOM     20  C   UNL     1       0.169   9.180  21.216  0.00  0.00    +0.000 C 
ATOM     21  C   UNL     1       0.254  10.426  20.343  0.00  0.00    +0.000 C 
ATOM     22  C   UNL     1       0.487  10.035  18.890  0.00  0.00    +0.000 C 
ATOM     23  C   UNL     1       1.672   9.080  18.755  0.00  0.00    +0.000 C 
ENDBRANCH  17  18
ENDBRANCH  16  17
ENDBRANCH  15  16
ENDBRANCH   4  15
BRANCH   5  24
ATOM     24  C   UNL     1       5.445   6.485  16.623  0.00  0.00    +0.000 C 
BRANCH  24  25
ATOM     25  C   UNL     1       5.899   5.551  15.566  0.00  0.00    +0.000 A 
ATOM     26  C   UNL     1       5.331   4.451  14.948  0.00  0.00    +0.000 A 
ATOM     27  C   UNL     1       6.282   3.980  14.014  0.00  0.00    +0.000 A 
ATOM     28  C   UNL     1       7.374   4.810  14.131  0.00  0.00    +0.000 A 
ATOM     29  O   UNL     1       7.154   5.758  15.075  0.00  0.00    +0.000 OA
ENDBRANCH  24  25
ENDBRANCH   5  24
TORSDOF 9
ENDMDL
MODEL 7
REMARK VINA RESULT:      -7.0      0.643      1.208
REMARK  Name = 
REMARK  9 active torsions:
REMARK  status: ('A' for Active; 'I' for Inactive)
REMARK    1  A    between atoms: C_5  and  O_6
REMARK    2  A    between atoms: O_6  and  C_7
REMARK    3  A    between atoms: C_7  and  C_8
REMARK    4  A    between atoms: C_11  and  S_12
REMARK    5  A    between atoms: S_12  and  C_13
REMARK    6  A    between atoms: C_13  and  C_14
REMARK    7  A    between atoms: C_14  and  N_15
REMARK    8  A    between atoms: N_21  and  C_22
REMARK    9  A    between atoms: C_22  and  C_23
REMARK                            x       y       z     vdW  Elec       q    Type
REMARK                         _______ _______ _______ _____ _____    ______ ____
ROOT
ATOM      1  C   UNL     1       7.067   6.453  18.261  0.00  0.00    +0.000 A 
ATOM      2  N   UNL     1       7.340   5.716  19.329  0.00  0.00    +0.000 NA
ATOM      3  N   UNL     1       6.362   4.748  19.475  0.00  0.00    +0.000 NA
ATOM      4  C   UNL     1       5.503   4.901  18.498  0.00  0.00    +0.000 A 
ATOM      5  N   UNL     1       5.923   5.932  17.679  0.00  0.00    +0.000 N 
ENDROOT
BRANCH   1   6
ATOM      6  C   UNL     1       7.948   7.557  17.716  0.00  0.00    +0.000 C 
BRANCH   6   7
ATOM      7  O   UNL     1       8.631   8.210  18.800  0.00  0.00    +0.000 OA
BRANCH   7  12
ATOM      8 CL   UNL     1       9.533  14.053  18.762  0.00  0.00    +0.000 Cl
ATOM      9  C   UNL     1       9.257  12.353  18.744  0.00  0.00    +0.000 A 
ATOM     10  C   UNL     1       9.809  11.546  19.733  0.00  0.00    +0.000 A 
ATOM     11  C   UNL     1       9.572  10.164  19.711  0.00  0.00    +0.000 A 
ATOM     12  C   UNL     1       8.775   9.579  18.716  0.00  0.00    +0.000 A 
ATOM     13  C   UNL     1       8.249  10.402  17.714  0.00  0.00    +0.000 A 
ATOM     14  C   UNL     1       8.490  11.786  17.728  0.00  0.00    +0.000 A 
ENDBRANCH   7  12
ENDBRANCH   6   7
ENDBRANCH   1   6
BRANCH   4  15
ATOM     15  S   UNL     1       4.095   3.946  18.147  0.00  0.00    +0.000 S 
BRANCH  15  16
ATOM     16  C   UNL     1       2.779   4.500  19.264  0.00  0.00    +0.000 C 
BRANCH  16  17
ATOM     17  C   UNL     1       2.934   5.891  19.912  0.00  0.00    +0.000 C 
BRANCH  17  18
ATOM     18  N   UNL     1       2.068   7.005  19.451  0.00  0.00    +0.000 NA
ATOM     19  C   UNL     1       1.748   7.979  20.506  0.00  0.00    +0.000 C 
ATOM     20  C   UNL     1       0.833   9.093  19.977  0.00  0.00    +0.000 C 
ATOM     21  C   UNL     1       1.438   9.801  18.771  0.00  0.00    +0.000 C 
ATOM     22  C   UNL     1       1.854   8.783  17.718  0.00  0.00    +0.000 C 
ATOM     23  C   UNL     1       2.733   7.688  18.321  0.00  0.00    +0.000 C 
ENDBRANCH  17  18
ENDBRANCH  16  17
ENDBRANCH  15  16
ENDBRANCH   4  15
BRANCH   5  24
ATOM     24  C   UNL     1       5.355   6.270  16.386  0.00  0.00    +0.000 C 
BRANCH  24  25
ATOM     25  C   UNL     1       5.824   5.348  15.326  0.00  0.00    +0.000 A 
ATOM     26  C   UNL     1       7.066   5.045  14.797  0.00  0.00    +0.000 A 
ATOM     27  C   UNL     1       6.849   4.075  13.791  0.00  0.00    +0.000 A 
ATOM     28  C   UNL     1       5.489   3.860  13.758  0.00  0.00    +0.000 A 
ATOM     29  O   UNL     1       4.860   4.633  14.678  0.00  0.00    +0.000 OA
ENDBRANCH  24  25
ENDBRANCH   5  24
TORSDOF 9
ENDMDL
MODEL 8
REMARK VINA RESULT:      -7.0      3.833      7.840
REMARK  Name = 
REMARK  9 active torsions:
REMARK  status: ('A' for Active; 'I' for Inactive)
REMARK    1  A    between atoms: C_5  and  O_6
REMARK    2  A    between atoms: O_6  and  C_7
REMARK    3  A    between atoms: C_7  and  C_8
REMARK    4  A    between atoms: C_11  and  S_12
REMARK    5  A    between atoms: S_12  and  C_13
REMARK    6  A    between atoms: C_13  and  C_14
REMARK    7  A    between atoms: C_14  and  N_15
REMARK    8  A    between atoms: N_21  and  C_22
REMARK    9  A    between atoms: C_22  and  C_23
REMARK                            x       y       z     vdW  Elec       q    Type
REMARK                         _______ _______ _______ _____ _____    ______ ____
ROOT
ATOM      1  C   UNL     1       6.451   5.009  18.490  0.00  0.00    +0.000 A 
ATOM      2  N   UNL     1       7.270   5.217  19.512  0.00  0.00    +0.000 NA
ATOM      3  N   UNL     1       7.967   6.394  19.303  0.00  0.00    +0.000 NA
ATOM      4  C   UNL     1       7.570   6.893  18.159  0.00  0.00    +0.000 A 
ATOM      5  N   UNL     1       6.584   6.084  17.626  0.00  0.00    +0.000 N 
ENDROOT
BRANCH   1   6
ATOM      6  C   UNL     1       5.455   3.874  18.389  0.00  0.00    +0.000 C 
BRANCH   6   7
ATOM      7  O   UNL     1       4.118   4.402  18.384  0.00  0.00    +0.000 OA
BRANCH   7  12
ATOM      8 CL   UNL     1       0.740   2.159  22.687  0.00  0.00    +0.000 Cl
ATOM      9  C   UNL     1       1.700   2.834  21.426  0.00  0.00    +0.000 A 
ATOM     10  C   UNL     1       3.033   2.461  21.290  0.00  0.00    +0.000 A 
ATOM     11  C   UNL     1       3.804   3.013  20.256  0.00  0.00    +0.000 A 
ATOM     12  C   UNL     1       3.252   3.925  19.345  0.00  0.00    +0.000 A 
ATOM     13  C   UNL     1       1.916   4.308  19.513  0.00  0.00    +0.000 A 
ATOM     14  C   UNL     1       1.143   3.764  20.552  0.00  0.00    +0.000 A 
ENDBRANCH   7  12
ENDBRANCH   6   7
ENDBRANCH   1   6
BRANCH   4  15
ATOM     15  S   UNL     1       8.067   8.377  17.406  0.00  0.00    +0.000 S 
BRANCH  15  16
ATOM     16  C   UNL     1       8.798   9.417  18.698  0.00  0.00    +0.000 C 
BRANCH  16  17
ATOM     17  C   UNL     1       8.820  10.941  18.456  0.00  0.00    +0.000 C 
BRANCH  17  18
ATOM     18  N   UNL     1      10.123  11.652  18.437  0.00  0.00    +0.000 NA
ATOM     19  C   UNL     1       9.996  13.117  18.433  0.00  0.00    +0.000 C 
ATOM     20  C   UNL     1      11.373  13.796  18.390  0.00  0.00    +0.000 C 
ATOM     21  C   UNL     1      12.265  13.347  19.540  0.00  0.00    +0.000 C 
ATOM     22  C   UNL     1      12.321  11.827  19.600  0.00  0.00    +0.000 C 
ATOM     23  C   UNL     1      10.918  11.219  19.606  0.00  0.00    +0.000 C 
ENDBRANCH  17  18
ENDBRANCH  16  17
ENDBRANCH  15  16
ENDBRANCH   4  15
BRANCH   5  24
ATOM     24  C   UNL     1       5.755   6.406  16.479  0.00  0.00    +0.000 C 
BRANCH  24  25
ATOM     25  C   UNL     1       6.023   5.498  15.340  0.00  0.00    +0.000 A 
ATOM     26  C   UNL     1       5.318   4.464  14.749  0.00  0.00    +0.000 A 
ATOM     27  C   UNL     1       6.123   3.983  13.691  0.00  0.00    +0.000 A 
ATOM     28  C   UNL     1       7.273   4.740  13.713  0.00  0.00    +0.000 A 
ATOM     29  O   UNL     1       7.224   5.653  14.713  0.00  0.00    +0.000 OA
ENDBRANCH  24  25
ENDBRANCH   5  24
TORSDOF 9
ENDMDL
MODEL 9
REMARK VINA RESULT:      -6.9      2.125      3.908
REMARK  Name = 
REMARK  9 active torsions:
REMARK  status: ('A' for Active; 'I' for Inactive)
REMARK    1  A    between atoms: C_5  and  O_6
REMARK    2  A    between atoms: O_6  and  C_7
REMARK    3  A    between atoms: C_7  and  C_8
REMARK    4  A    between atoms: C_11  and  S_12
REMARK    5  A    between atoms: S_12  and  C_13
REMARK    6  A    between atoms: C_13  and  C_14
REMARK    7  A    between atoms: C_14  and  N_15
REMARK    8  A    between atoms: N_21  and  C_22
REMARK    9  A    between atoms: C_22  and  C_23
REMARK                            x       y       z     vdW  Elec       q    Type
REMARK                         _______ _______ _______ _____ _____    ______ ____
ROOT
ATOM      1  C   UNL     1       7.255   6.576  17.307  0.00  0.00    +0.000 A 
ATOM      2  N   UNL     1       7.555   6.351  16.035  0.00  0.00    +0.000 NA
ATOM      3  N   UNL     1       6.678   5.413  15.520  0.00  0.00    +0.000 NA
ATOM      4  C   UNL     1       5.851   5.074  16.478  0.00  0.00    +0.000 A 
ATOM      5  N   UNL     1       6.141   5.809  17.612  0.00  0.00    +0.000 N 
ENDROOT
BRANCH   1   6
ATOM      6  C   UNL     1       7.927   7.602  18.193  0.00  0.00    +0.000 C 
BRANCH   6   7
ATOM      7  O   UNL     1       8.130   8.819  17.456  0.00  0.00    +0.000 OA
BRANCH   7  12
ATOM      8 CL   UNL     1      10.171  13.249  20.797  0.00  0.00    +0.000 Cl
ATOM      9  C   UNL     1       9.575  11.979  19.799  0.00  0.00    +0.000 A 
ATOM     10  C   UNL     1       9.583  10.666  20.261  0.00  0.00    +0.000 A 
ATOM     11  C   UNL     1       9.089   9.641  19.440  0.00  0.00    +0.000 A 
ATOM     12  C   UNL     1       8.572   9.916  18.165  0.00  0.00    +0.000 A 
ATOM     13  C   UNL     1       8.595  11.238  17.708  0.00  0.00    +0.000 A 
ATOM     14  C   UNL     1       9.096  12.267  18.523  0.00  0.00    +0.000 A 
ENDBRANCH   7  12
ENDBRANCH   6   7
ENDBRANCH   1   6
BRANCH   4  15
ATOM     15  S   UNL     1       4.513   3.970  16.399  0.00  0.00    +0.000 S 
BRANCH  15  16
ATOM     16  C   UNL     1       4.768   2.724  17.691  0.00  0.00    +0.000 C 
BRANCH  16  17
ATOM     17  C   UNL     1       3.605   1.754  17.982  0.00  0.00    +0.000 C 
BRANCH  17  18
ATOM     18  N   UNL     1       2.706   2.025  19.132  0.00  0.00    +0.000 NA
ATOM     19  C   UNL     1       3.382   2.664  20.272  0.00  0.00    +0.000 C 
ATOM     20  C   UNL     1       2.410   2.898  21.437  0.00  0.00    +0.000 C 
ATOM     21  C   UNL     1       1.200   3.721  21.012  0.00  0.00    +0.000 C 
ATOM     22  C   UNL     1       0.556   3.109  19.775  0.00  0.00    +0.000 C 
ATOM     23  C   UNL     1       1.587   2.873  18.671  0.00  0.00    +0.000 C 
ENDBRANCH  17  18
ENDBRANCH  16  17
ENDBRANCH  15  16
ENDBRANCH   4  15
BRANCH   5  24
ATOM     24  C   UNL     1       5.326   5.869  18.812  0.00  0.00    +0.000 C 
BRANCH  24  25
ATOM     25  C   UNL     1       4.045   6.569  18.566  0.00  0.00    +0.000 A 
ATOM     26  C   UNL     1       2.752   6.398  19.032  0.00  0.00    +0.000 A 
ATOM     27  C   UNL     1       1.967   7.396  18.410  0.00  0.00    +0.000 A 
ATOM     28  C   UNL     1       2.823   8.101  17.594  0.00  0.00    +0.000 A 
ATOM     29  O   UNL     1       4.080   7.601  17.675  0.00  0.00    +0.000 OA
ENDBRANCH  24  25
ENDBRANCH   5  24
TORSDOF 9
ENDMDL
