MODEL 1
REMARK VINA RESULT:      -8.8      0.000      0.000
REMARK  Name = 
REMARK  6 active torsions:
REMARK  status: ('A' for Active; 'I' for Inactive)
REMARK    1  A    between atoms: C_1  and  C_2
REMARK    2  A    between atoms: N_4  and  C_5
REMARK    3  A    between atoms: C_13  and  C_14
REMARK    4  A    between atoms: N_16  and  C_17
REMARK    5  A    between atoms: C_20  and  C_21
REMARK    6  A    between atoms: C_21  and  O_23
REMARK                            x       y       z     vdW  Elec       q    Type
REMARK                         _______ _______ _______ _____ _____    ______ ____
ROOT
ATOM      1  C   UNL     1       5.992   5.482  15.567  0.00  0.00    +0.000 C 
ATOM      2  C   UNL     1       4.949   5.055  16.529  0.00  0.00    +0.000 A 
ATOM      3  N   UNL     1       4.820   3.750  16.886  0.00  0.00    +0.000 NA
ATOM      4  N   UNL     1       3.809   3.749  17.808  0.00  0.00    +0.000 N 
ATOM      5  C   UNL     1       3.301   4.988  17.980  0.00  0.00    +0.000 A 
ATOM      6  S   UNL     1       2.165   5.705  18.940  0.00  0.00    +0.000 S 
ATOM      7  C   UNL     1       2.668   7.265  18.348  0.00  0.00    +0.000 A 
ATOM      8  C   UNL     1       3.691   7.163  17.392  0.00  0.00    +0.000 A 
ATOM      9  C   UNL     1       4.020   5.820  17.229  0.00  0.00    +0.000 A 
ENDROOT
BRANCH   4  10
ATOM     10  C   UNL     1       3.543   2.631  18.706  0.00  0.00    +0.000 C 
ATOM     11  C   UNL     1       3.697   2.934  20.199  0.00  0.00    +0.000 C 
ATOM     12  C   UNL     1       2.430   3.447  20.873  0.00  0.00    +0.000 C 
ATOM     13  C   UNL     1       1.207   2.613  20.509  0.00  0.00    +0.000 C 
ATOM     14  C   UNL     1       1.011   2.548  19.002  0.00  0.00    +0.000 C 
ATOM     15  C   UNL     1       2.230   1.932  18.328  0.00  0.00    +0.000 C 
ENDBRANCH   4  10
BRANCH   7  16
ATOM     16  C   UNL     1       2.044   8.477  18.863  0.00  0.00    +0.000 C 
ATOM     17  O   UNL     1       2.088   9.532  18.234  0.00  0.00    +0.000 OA
ATOM     18  N   UNL     1       1.449   8.330  20.108  0.00  0.00    +0.000 N 
ATOM     19  H   UNL     1       1.605   7.443  20.573  0.00  0.00    +0.000 HD
BRANCH  18  20
ATOM     20  C   UNL     1       0.693   9.284  20.813  0.00  0.00    +0.000 A 
ATOM     21  C   UNL     1       0.114  10.389  20.188  0.00  0.00    +0.000 A 
ATOM     22  C   UNL     1      -0.652  11.302  20.913  0.00  0.00    +0.000 A 
ATOM     23  C   UNL     1      -0.822  11.131  22.289  0.00  0.00    +0.000 A 
ATOM     24  C   UNL     1      -0.267  10.013  22.921  0.00  0.00    +0.000 A 
ATOM     25  C   UNL     1       0.480   9.085  22.183  0.00  0.00    +0.000 A 
BRANCH  23  26
ATOM     26  C   UNL     1      -1.631  12.079  23.094  0.00  0.00    +0.000 C 
ATOM     27  O   UNL     1      -1.268  13.219  23.328  0.00  0.00    +0.000 OA
BRANCH  26  28
ATOM     28  O   UNL     1      -2.805  11.574  23.523  0.00  0.00    +0.000 OA
ATOM     29  H   UNL     1      -2.955  11.621  24.485  0.00  0.00    +0.000 HD
ENDBRANCH  26  28
ENDBRANCH  23  26
ENDBRANCH  18  20
ENDBRANCH   7  16
TORSDOF 5
ENDMDL
MODEL 2
REMARK VINA RESULT:      -8.7      3.345      9.429
REMARK  Name = 
REMARK  6 active torsions:
REMARK  status: ('A' for Active; 'I' for Inactive)
REMARK    1  A    between atoms: C_1  and  C_2
REMARK    2  A    between atoms: N_4  and  C_5
REMARK    3  A    between atoms: C_13  and  C_14
REMARK    4  A    between atoms: N_16  and  C_17
REMARK    5  A    between atoms: C_20  and  C_21
REMARK    6  A    between atoms: C_21  and  O_23
REMARK                            x       y       z     vdW  Elec       q    Type
REMARK                         _______ _______ _______ _____ _____    ______ ____
ROOT
ATOM      1  C   UNL     1       0.138   9.367  23.790  0.00  0.00    +0.000 C 
ATOM      2  C   UNL     1      -0.226   9.956  22.479  0.00  0.00    +0.000 A 
ATOM      3  N   UNL     1      -1.113  10.982  22.396  0.00  0.00    +0.000 NA
ATOM      4  N   UNL     1      -1.156  11.287  21.064  0.00  0.00    +0.000 N 
ATOM      5  C   UNL     1      -0.369  10.456  20.346  0.00  0.00    +0.000 A 
ATOM      6  S   UNL     1       0.093  10.294  18.769  0.00  0.00    +0.000 S 
ATOM      7  C   UNL     1       1.239   9.069  19.245  0.00  0.00    +0.000 A 
ATOM      8  C   UNL     1       1.193   8.810  20.623  0.00  0.00    +0.000 A 
ATOM      9  C   UNL     1       0.250   9.651  21.207  0.00  0.00    +0.000 A 
ENDROOT
BRANCH   4  10
ATOM     10  C   UNL     1      -1.716  12.527  20.541  0.00  0.00    +0.000 C 
ATOM     11  C   UNL     1      -2.500  12.396  19.232  0.00  0.00    +0.000 C 
ATOM     12  C   UNL     1      -3.983  12.100  19.411  0.00  0.00    +0.000 C 
ATOM     13  C   UNL     1      -4.628  13.000  20.459  0.00  0.00    +0.000 C 
ATOM     14  C   UNL     1      -3.907  12.898  21.795  0.00  0.00    +0.000 C 
ATOM     15  C   UNL     1      -2.446  13.301  21.647  0.00  0.00    +0.000 C 
ENDBRANCH   4  10
BRANCH   7  16
ATOM     16  C   UNL     1       2.109   8.457  18.249  0.00  0.00    +0.000 C 
ATOM     17  O   UNL     1       2.279   8.975  17.148  0.00  0.00    +0.000 OA
ATOM     18  N   UNL     1       2.675   7.254  18.645  0.00  0.00    +0.000 N 
ATOM     19  H   UNL     1       2.341   6.874  19.524  0.00  0.00    +0.000 HD
BRANCH  18  20
ATOM     20  C   UNL     1       3.621   6.482  17.946  0.00  0.00    +0.000 A 
ATOM     21  C   UNL     1       3.401   5.141  17.627  0.00  0.00    +0.000 A 
ATOM     22  C   UNL     1       4.349   4.411  16.909  0.00  0.00    +0.000 A 
ATOM     23  C   UNL     1       5.549   5.016  16.527  0.00  0.00    +0.000 A 
ATOM     24  C   UNL     1       5.769   6.366  16.819  0.00  0.00    +0.000 A 
ATOM     25  C   UNL     1       4.801   7.100  17.518  0.00  0.00    +0.000 A 
BRANCH  23  26
ATOM     26  C   UNL     1       6.581   4.273  15.762  0.00  0.00    +0.000 C 
ATOM     27  O   UNL     1       7.775   4.457  15.918  0.00  0.00    +0.000 OA
BRANCH  26  28
ATOM     28  O   UNL     1       6.079   3.369  14.896  0.00  0.00    +0.000 OA
ATOM     29  H   UNL     1       5.660   3.741  14.098  0.00  0.00    +0.000 HD
ENDBRANCH  26  28
ENDBRANCH  23  26
ENDBRANCH  18  20
ENDBRANCH   7  16
TORSDOF 5
ENDMDL
MODEL 3
REMARK VINA RESULT:      -8.6      3.559      9.401
REMARK  Name = 
REMARK  6 active torsions:
REMARK  status: ('A' for Active; 'I' for Inactive)
REMARK    1  A    between atoms: C_1  and  C_2
REMARK    2  A    between atoms: N_4  and  C_5
REMARK    3  A    between atoms: C_13  and  C_14
REMARK    4  A    between atoms: N_16  and  C_17
REMARK    5  A    between atoms: C_20  and  C_21
REMARK    6  A    between atoms: C_21  and  O_23
REMARK                            x       y       z     vdW  Elec       q    Type
REMARK                         _______ _______ _______ _____ _____    ______ ____
ROOT
ATOM      1  C   UNL     1      -4.144  11.355  18.120  0.00  0.00    +0.000 C 
ATOM      2  C   UNL     1      -2.979  11.765  18.939  0.00  0.00    +0.000 A 
ATOM      3  N   UNL     1      -3.117  12.660  19.952  0.00  0.00    +0.000 NA
ATOM      4  N   UNL     1      -1.867  12.749  20.500  0.00  0.00    +0.000 N 
ATOM      5  C   UNL     1      -0.983  11.981  19.827  0.00  0.00    +0.000 A 
ATOM      6  S   UNL     1       0.610  11.570  19.968  0.00  0.00    +0.000 S 
ATOM      7  C   UNL     1       0.409  10.402  18.690  0.00  0.00    +0.000 A 
ATOM      8  C   UNL     1      -0.898  10.401  18.177  0.00  0.00    +0.000 A 
ATOM      9  C   UNL     1      -1.658  11.330  18.882  0.00  0.00    +0.000 A 
ENDROOT
BRANCH   4  10
ATOM     10  C   UNL     1      -1.604  13.332  21.809  0.00  0.00    +0.000 C 
ATOM     11  C   UNL     1      -2.415  14.587  22.146  0.00  0.00    +0.000 C 
ATOM     12  C   UNL     1      -3.754  14.312  22.820  0.00  0.00    +0.000 C 
ATOM     13  C   UNL     1      -3.630  13.303  23.955  0.00  0.00    +0.000 C 
ATOM     14  C   UNL     1      -3.007  12.001  23.473  0.00  0.00    +0.000 C 
ATOM     15  C   UNL     1      -1.619  12.252  22.899  0.00  0.00    +0.000 C 
ENDBRANCH   4  10
BRANCH   7  16
ATOM     16  C   UNL     1       1.528   9.562  18.285  0.00  0.00    +0.000 C 
ATOM     17  O   UNL     1       2.330   9.938  17.434  0.00  0.00    +0.000 OA
ATOM     18  N   UNL     1       1.572   8.325  18.912  0.00  0.00    +0.000 N 
ATOM     19  H   UNL     1       0.772   8.091  19.489  0.00  0.00    +0.000 HD
BRANCH  18  20
ATOM     20  C   UNL     1       2.573   7.343  18.800  0.00  0.00    +0.000 A 
ATOM     21  C   UNL     1       2.726   6.323  19.740  0.00  0.00    +0.000 A 
ATOM     22  C   UNL     1       3.714   5.349  19.585  0.00  0.00    +0.000 A 
ATOM     23  C   UNL     1       4.583   5.407  18.493  0.00  0.00    +0.000 A 
ATOM     24  C   UNL     1       4.422   6.410  17.532  0.00  0.00    +0.000 A 
ATOM     25  C   UNL     1       3.412   7.370  17.680  0.00  0.00    +0.000 A 
BRANCH  23  26
ATOM     26  C   UNL     1       5.644   4.389  18.293  0.00  0.00    +0.000 C 
ATOM     27  O   UNL     1       6.515   4.504  17.449  0.00  0.00    +0.000 OA
BRANCH  26  28
ATOM     28  O   UNL     1       5.567   3.341  19.139  0.00  0.00    +0.000 OA
ATOM     29  H   UNL     1       5.581   2.462  18.718  0.00  0.00    +0.000 HD
ENDBRANCH  26  28
ENDBRANCH  23  26
ENDBRANCH  18  20
ENDBRANCH   7  16
TORSDOF 5
ENDMDL
MODEL 4
REMARK VINA RESULT:      -8.6      3.387      9.590
REMARK  Name = 
REMARK  6 active torsions:
REMARK  status: ('A' for Active; 'I' for Inactive)
REMARK    1  A    between atoms: C_1  and  C_2
REMARK    2  A    between atoms: N_4  and  C_5
REMARK    3  A    between atoms: C_13  and  C_14
REMARK    4  A    between atoms: N_16  and  C_17
REMARK    5  A    between atoms: C_20  and  C_21
REMARK    6  A    between atoms: C_21  and  O_23
REMARK                            x       y       z     vdW  Elec       q    Type
REMARK                         _______ _______ _______ _____ _____    ______ ____
ROOT
ATOM      1  C   UNL     1      -0.045   9.521  23.565  0.00  0.00    +0.000 C 
ATOM      2  C   UNL     1      -0.350  10.103  22.235  0.00  0.00    +0.000 A 
ATOM      3  N   UNL     1      -1.221  11.137  22.109  0.00  0.00    +0.000 NA
ATOM      4  N   UNL     1      -1.208  11.431  20.773  0.00  0.00    +0.000 N 
ATOM      5  C   UNL     1      -0.403  10.585  20.094  0.00  0.00    +0.000 A 
ATOM      6  S   UNL     1       0.120  10.404  18.538  0.00  0.00    +0.000 S 
ATOM      7  C   UNL     1       1.232   9.171  19.069  0.00  0.00    +0.000 A 
ATOM      8  C   UNL     1       1.128   8.925  20.447  0.00  0.00    +0.000 A 
ATOM      9  C   UNL     1       0.172   9.781  20.986  0.00  0.00    +0.000 A 
ENDROOT
BRANCH   4  10
ATOM     10  C   UNL     1      -1.733  12.673  20.218  0.00  0.00    +0.000 C 
ATOM     11  C   UNL     1      -3.111  13.094  20.734  0.00  0.00    +0.000 C 
ATOM     12  C   UNL     1      -3.079  13.964  21.985  0.00  0.00    +0.000 C 
ATOM     13  C   UNL     1      -2.061  15.094  21.875  0.00  0.00    +0.000 C 
ATOM     14  C   UNL     1      -0.670  14.557  21.571  0.00  0.00    +0.000 C 
ATOM     15  C   UNL     1      -0.670  13.779  20.262  0.00  0.00    +0.000 C 
ENDBRANCH   4  10
BRANCH   7  16
ATOM     16  C   UNL     1       2.133   8.541  18.114  0.00  0.00    +0.000 C 
ATOM     17  O   UNL     1       2.368   9.058  17.024  0.00  0.00    +0.000 OA
ATOM     18  N   UNL     1       2.650   7.323  18.532  0.00  0.00    +0.000 N 
ATOM     19  H   UNL     1       2.266   6.949  19.392  0.00  0.00    +0.000 HD
BRANCH  18  20
ATOM     20  C   UNL     1       3.610   6.530  17.877  0.00  0.00    +0.000 A 
ATOM     21  C   UNL     1       3.433   5.161  17.673  0.00  0.00    +0.000 A 
ATOM     22  C   UNL     1       4.393   4.409  16.995  0.00  0.00    +0.000 A 
ATOM     23  C   UNL     1       5.562   5.021  16.537  0.00  0.00    +0.000 A 
ATOM     24  C   UNL     1       5.737   6.398  16.713  0.00  0.00    +0.000 A 
ATOM     25  C   UNL     1       4.758   7.153  17.372  0.00  0.00    +0.000 A 
BRANCH  23  26
ATOM     26  C   UNL     1       6.605   4.256  15.810  0.00  0.00    +0.000 C 
ATOM     27  O   UNL     1       7.791   4.344  16.075  0.00  0.00    +0.000 OA
BRANCH  26  28
ATOM     28  O   UNL     1       6.121   3.444  14.848  0.00  0.00    +0.000 OA
ATOM     29  H   UNL     1       5.471   3.850  14.245  0.00  0.00    +0.000 HD
ENDBRANCH  26  28
ENDBRANCH  23  26
ENDBRANCH  18  20
ENDBRANCH   7  16
TORSDOF 5
ENDMDL
MODEL 5
REMARK VINA RESULT:      -8.6      3.368      9.540
REMARK  Name = 
REMARK  6 active torsions:
REMARK  status: ('A' for Active; 'I' for Inactive)
REMARK    1  A    between atoms: C_1  and  C_2
REMARK    2  A    between atoms: N_4  and  C_5
REMARK    3  A    between atoms: C_13  and  C_14
REMARK    4  A    between atoms: N_16  and  C_17
REMARK    5  A    between atoms: C_20  and  C_21
REMARK    6  A    between atoms: C_21  and  O_23
REMARK                            x       y       z     vdW  Elec       q    Type
REMARK                         _______ _______ _______ _____ _____    ______ ____
ROOT
ATOM      1  C   UNL     1       0.081   9.360  23.751  0.00  0.00    +0.000 C 
ATOM      2  C   UNL     1      -0.263  10.013  22.465  0.00  0.00    +0.000 A 
ATOM      3  N   UNL     1      -1.122  11.065  22.424  0.00  0.00    +0.000 NA
ATOM      4  N   UNL     1      -1.152  11.427  21.105  0.00  0.00    +0.000 N 
ATOM      5  C   UNL     1      -0.386  10.606  20.354  0.00  0.00    +0.000 A 
ATOM      6  S   UNL     1       0.076  10.497  18.773  0.00  0.00    +0.000 S 
ATOM      7  C   UNL     1       1.187   9.223  19.199  0.00  0.00    +0.000 A 
ATOM      8  C   UNL     1       1.130   8.908  20.565  0.00  0.00    +0.000 A 
ATOM      9  C   UNL     1       0.208   9.748  21.182  0.00  0.00    +0.000 A 
ENDROOT
BRANCH   4  10
ATOM     10  C   UNL     1      -1.677  12.703  20.634  0.00  0.00    +0.000 C 
ATOM     11  C   UNL     1      -3.022  12.634  19.906  0.00  0.00    +0.000 C 
ATOM     12  C   UNL     1      -4.239  12.758  20.814  0.00  0.00    +0.000 C 
ATOM     13  C   UNL     1      -4.103  13.909  21.805  0.00  0.00    +0.000 C 
ATOM     14  C   UNL     1      -2.836  13.774  22.638  0.00  0.00    +0.000 C 
ATOM     15  C   UNL     1      -1.605  13.762  21.743  0.00  0.00    +0.000 C 
ENDBRANCH   4  10
BRANCH   7  16
ATOM     16  C   UNL     1       2.043   8.630  18.180  0.00  0.00    +0.000 C 
ATOM     17  O   UNL     1       2.163   9.145  17.071  0.00  0.00    +0.000 OA
ATOM     18  N   UNL     1       2.656   7.446  18.565  0.00  0.00    +0.000 N 
ATOM     19  H   UNL     1       2.361   7.063  19.456  0.00  0.00    +0.000 HD
BRANCH  18  20
ATOM     20  C   UNL     1       3.602   6.697  17.841  0.00  0.00    +0.000 A 
ATOM     21  C   UNL     1       4.762   7.268  17.317  0.00  0.00    +0.000 A 
ATOM     22  C   UNL     1       5.693   6.490  16.627  0.00  0.00    +0.000 A 
ATOM     23  C   UNL     1       5.454   5.128  16.431  0.00  0.00    +0.000 A 
ATOM     24  C   UNL     1       4.307   4.541  16.974  0.00  0.00    +0.000 A 
ATOM     25  C   UNL     1       3.388   5.322  17.688  0.00  0.00    +0.000 A 
BRANCH  23  26
ATOM     26  C   UNL     1       6.421   4.269  15.705  0.00  0.00    +0.000 C 
ATOM     27  O   UNL     1       6.094   3.546  14.780  0.00  0.00    +0.000 OA
BRANCH  26  28
ATOM     28  O   UNL     1       7.691   4.374  16.147  0.00  0.00    +0.000 OA
ATOM     29  H   UNL     1       8.317   3.722  15.781  0.00  0.00    +0.000 HD
ENDBRANCH  26  28
ENDBRANCH  23  26
ENDBRANCH  18  20
ENDBRANCH   7  16
TORSDOF 5
ENDMDL
MODEL 6
REMARK VINA RESULT:      -8.5      3.514      9.421
REMARK  Name = 
REMARK  6 active torsions:
REMARK  status: ('A' for Active; 'I' for Inactive)
REMARK    1  A    between atoms: C_1  and  C_2
REMARK    2  A    between atoms: N_4  and  C_5
REMARK    3  A    between atoms: C_13  and  C_14
REMARK    4  A    between atoms: N_16  and  C_17
REMARK    5  A    between atoms: C_20  and  C_21
REMARK    6  A    between atoms: C_21  and  O_23
REMARK                            x       y       z     vdW  Elec       q    Type
REMARK                         _______ _______ _______ _____ _____    ______ ____
ROOT
ATOM      1  C   UNL     1      -3.994  11.847  18.455  0.00  0.00    +0.000 C 
ATOM      2  C   UNL     1      -2.842  11.944  19.383  0.00  0.00    +0.000 A 
ATOM      3  N   UNL     1      -2.956  12.590  20.572  0.00  0.00    +0.000 NA
ATOM      4  N   UNL     1      -1.733  12.431  21.164  0.00  0.00    +0.000 N 
ATOM      5  C   UNL     1      -0.883  11.759  20.357  0.00  0.00    +0.000 A 
ATOM      6  S   UNL     1       0.659  11.177  20.447  0.00  0.00    +0.000 S 
ATOM      7  C   UNL     1       0.425  10.360  18.925  0.00  0.00    +0.000 A 
ATOM      8  C   UNL     1      -0.848  10.601  18.386  0.00  0.00    +0.000 A 
ATOM      9  C   UNL     1      -1.562  11.410  19.266  0.00  0.00    +0.000 A 
ENDROOT
BRANCH   4  10
ATOM     10  C   UNL     1      -1.490  12.669  22.581  0.00  0.00    +0.000 C 
ATOM     11  C   UNL     1      -1.334  14.138  22.985  0.00  0.00    +0.000 C 
ATOM     12  C   UNL     1      -2.638  14.834  23.353  0.00  0.00    +0.000 C 
ATOM     13  C   UNL     1      -3.492  13.995  24.297  0.00  0.00    +0.000 C 
ATOM     14  C   UNL     1      -3.777  12.620  23.710  0.00  0.00    +0.000 C 
ATOM     15  C   UNL     1      -2.478  11.872  23.443  0.00  0.00    +0.000 C 
ENDBRANCH   4  10
BRANCH   7  16
ATOM     16  C   UNL     1       1.489   9.534  18.369  0.00  0.00    +0.000 C 
ATOM     17  O   UNL     1       2.155   9.914  17.410  0.00  0.00    +0.000 OA
ATOM     18  N   UNL     1       1.641   8.301  18.990  0.00  0.00    +0.000 N 
ATOM     19  H   UNL     1       0.935   8.060  19.677  0.00  0.00    +0.000 HD
BRANCH  18  20
ATOM     20  C   UNL     1       2.631   7.334  18.742  0.00  0.00    +0.000 A 
ATOM     21  C   UNL     1       3.480   7.402  17.637  0.00  0.00    +0.000 A 
ATOM     22  C   UNL     1       4.471   6.440  17.435  0.00  0.00    +0.000 A 
ATOM     23  C   UNL     1       4.602   5.377  18.332  0.00  0.00    +0.000 A 
ATOM     24  C   UNL     1       3.773   5.313  19.456  0.00  0.00    +0.000 A 
ATOM     25  C   UNL     1       2.797   6.297  19.667  0.00  0.00    +0.000 A 
BRANCH  23  26
ATOM     26  C   UNL     1       5.644   4.336  18.152  0.00  0.00    +0.000 C 
ATOM     27  O   UNL     1       6.483   4.390  17.271  0.00  0.00    +0.000 OA
BRANCH  26  28
ATOM     28  O   UNL     1       5.589   3.340  19.060  0.00  0.00    +0.000 OA
ATOM     29  H   UNL     1       5.506   2.441  18.691  0.00  0.00    +0.000 HD
ENDBRANCH  26  28
ENDBRANCH  23  26
ENDBRANCH  18  20
ENDBRANCH   7  16
TORSDOF 5
ENDMDL
MODEL 7
REMARK VINA RESULT:      -8.4      1.472      1.789
REMARK  Name = 
REMARK  6 active torsions:
REMARK  status: ('A' for Active; 'I' for Inactive)
REMARK    1  A    between atoms: C_1  and  C_2
REMARK    2  A    between atoms: N_4  and  C_5
REMARK    3  A    between atoms: C_13  and  C_14
REMARK    4  A    between atoms: N_16  and  C_17
REMARK    5  A    between atoms: C_20  and  C_21
REMARK    6  A    between atoms: C_21  and  O_23
REMARK                            x       y       z     vdW  Elec       q    Type
REMARK                         _______ _______ _______ _____ _____    ______ ____
ROOT
ATOM      1  C   UNL     1       6.851   5.554  16.636  0.00  0.00    +0.000 C 
ATOM      2  C   UNL     1       5.566   5.252  17.311  0.00  0.00    +0.000 A 
ATOM      3  N   UNL     1       5.325   4.023  17.837  0.00  0.00    +0.000 NA
ATOM      4  N   UNL     1       4.088   4.135  18.409  0.00  0.00    +0.000 N 
ATOM      5  C   UNL     1       3.563   5.362  18.205  0.00  0.00    +0.000 A 
ATOM      6  S   UNL     1       2.201   6.183  18.651  0.00  0.00    +0.000 S 
ATOM      7  C   UNL     1       2.871   7.640  17.969  0.00  0.00    +0.000 A 
ATOM      8  C   UNL     1       4.129   7.421  17.386  0.00  0.00    +0.000 A 
ATOM      9  C   UNL     1       4.479   6.085  17.564  0.00  0.00    +0.000 A 
ENDROOT
BRANCH   4  10
ATOM     10  C   UNL     1       3.558   3.175  19.371  0.00  0.00    +0.000 C 
ATOM     11  C   UNL     1       2.907   3.782  20.617  0.00  0.00    +0.000 C 
ATOM     12  C   UNL     1       1.419   4.075  20.473  0.00  0.00    +0.000 C 
ATOM     13  C   UNL     1       0.659   2.906  19.856  0.00  0.00    +0.000 C 
ATOM     14  C   UNL     1       1.250   2.511  18.511  0.00  0.00    +0.000 C 
ATOM     15  C   UNL     1       2.711   2.109  18.663  0.00  0.00    +0.000 C 
ENDBRANCH   4  10
BRANCH   7  16
ATOM     16  C   UNL     1       2.135   8.894  18.059  0.00  0.00    +0.000 C 
ATOM     17  O   UNL     1       2.362   9.822  17.288  0.00  0.00    +0.000 OA
ATOM     18  N   UNL     1       1.209   8.941  19.092  0.00  0.00    +0.000 N 
ATOM     19  H   UNL     1       1.221   8.158  19.735  0.00  0.00    +0.000 HD
BRANCH  18  20
ATOM     20  C   UNL     1       0.290   9.969  19.372  0.00  0.00    +0.000 A 
ATOM     21  C   UNL     1      -0.854  10.178  18.601  0.00  0.00    +0.000 A 
ATOM     22  C   UNL     1      -1.759  11.190  18.922  0.00  0.00    +0.000 A 
ATOM     23  C   UNL     1      -1.508  12.028  20.011  0.00  0.00    +0.000 A 
ATOM     24  C   UNL     1      -0.377  11.811  20.806  0.00  0.00    +0.000 A 
ATOM     25  C   UNL     1       0.514  10.776  20.493  0.00  0.00    +0.000 A 
BRANCH  23  26
ATOM     26  C   UNL     1      -2.447  13.114  20.386  0.00  0.00    +0.000 C 
ATOM     27  O   UNL     1      -3.513  12.902  20.936  0.00  0.00    +0.000 OA
BRANCH  26  28
ATOM     28  O   UNL     1      -2.006  14.352  20.081  0.00  0.00    +0.000 OA
ATOM     29  H   UNL     1      -2.243  15.050  20.720  0.00  0.00    +0.000 HD
ENDBRANCH  26  28
ENDBRANCH  23  26
ENDBRANCH  18  20
ENDBRANCH   7  16
TORSDOF 5
ENDMDL
MODEL 8
REMARK VINA RESULT:      -8.4      1.607      2.010
REMARK  Name = 
REMARK  6 active torsions:
REMARK  status: ('A' for Active; 'I' for Inactive)
REMARK    1  A    between atoms: C_1  and  C_2
REMARK    2  A    between atoms: N_4  and  C_5
REMARK    3  A    between atoms: C_13  and  C_14
REMARK    4  A    between atoms: N_16  and  C_17
REMARK    5  A    between atoms: C_20  and  C_21
REMARK    6  A    between atoms: C_21  and  O_23
REMARK                            x       y       z     vdW  Elec       q    Type
REMARK                         _______ _______ _______ _____ _____    ______ ____
ROOT
ATOM      1  C   UNL     1       7.349   5.259  17.770  0.00  0.00    +0.000 C 
ATOM      2  C   UNL     1       5.952   4.899  18.114  0.00  0.00    +0.000 A 
ATOM      3  N   UNL     1       5.636   3.646  18.533  0.00  0.00    +0.000 NA
ATOM      4  N   UNL     1       4.296   3.706  18.800  0.00  0.00    +0.000 N 
ATOM      5  C   UNL     1       3.793   4.925  18.513  0.00  0.00    +0.000 A 
ATOM      6  S   UNL     1       2.338   5.693  18.648  0.00  0.00    +0.000 S 
ATOM      7  C   UNL     1       3.099   7.191  18.184  0.00  0.00    +0.000 A 
ATOM      8  C   UNL     1       4.466   7.025  17.909  0.00  0.00    +0.000 A 
ATOM      9  C   UNL     1       4.810   5.694  18.126  0.00  0.00    +0.000 A 
ENDROOT
BRANCH   4  10
ATOM     10  C   UNL     1       3.588   2.699  19.582  0.00  0.00    +0.000 C 
ATOM     11  C   UNL     1       2.982   3.194  20.899  0.00  0.00    +0.000 C 
ATOM     12  C   UNL     1       1.562   3.732  20.777  0.00  0.00    +0.000 C 
ATOM     13  C   UNL     1       0.664   2.807  19.964  0.00  0.00    +0.000 C 
ATOM     14  C   UNL     1       1.246   2.544  18.583  0.00  0.00    +0.000 C 
ATOM     15  C   UNL     1       2.622   1.902  18.695  0.00  0.00    +0.000 C 
ENDBRANCH   4  10
BRANCH   7  16
ATOM     16  C   UNL     1       2.320   8.421  18.132  0.00  0.00    +0.000 C 
ATOM     17  O   UNL     1       2.380   9.172  17.162  0.00  0.00    +0.000 OA
ATOM     18  N   UNL     1       1.559   8.665  19.267  0.00  0.00    +0.000 N 
ATOM     19  H   UNL     1       1.709   8.034  20.046  0.00  0.00    +0.000 HD
BRANCH  18  20
ATOM     20  C   UNL     1       0.641   9.710  19.474  0.00  0.00    +0.000 A 
ATOM     21  C   UNL     1       0.625  10.468  20.645  0.00  0.00    +0.000 A 
ATOM     22  C   UNL     1      -0.282  11.517  20.806  0.00  0.00    +0.000 A 
ATOM     23  C   UNL     1      -1.208  11.798  19.799  0.00  0.00    +0.000 A 
ATOM     24  C   UNL     1      -1.184  11.060  18.611  0.00  0.00    +0.000 A 
ATOM     25  C   UNL     1      -0.253  10.026  18.444  0.00  0.00    +0.000 A 
BRANCH  23  26
ATOM     26  C   UNL     1      -2.186  12.905  19.934  0.00  0.00    +0.000 C 
ATOM     27  O   UNL     1      -1.935  13.936  20.532  0.00  0.00    +0.000 OA
BRANCH  26  28
ATOM     28  O   UNL     1      -3.365  12.675  19.320  0.00  0.00    +0.000 OA
ATOM     29  H   UNL     1      -3.561  11.739  19.126  0.00  0.00    +0.000 HD
ENDBRANCH  26  28
ENDBRANCH  23  26
ENDBRANCH  18  20
ENDBRANCH   7  16
TORSDOF 5
ENDMDL
MODEL 9
REMARK VINA RESULT:      -8.4      2.198      2.581
REMARK  Name = 
REMARK  6 active torsions:
REMARK  status: ('A' for Active; 'I' for Inactive)
REMARK    1  A    between atoms: C_1  and  C_2
REMARK    2  A    between atoms: N_4  and  C_5
REMARK    3  A    between atoms: C_13  and  C_14
REMARK    4  A    between atoms: N_16  and  C_17
REMARK    5  A    between atoms: C_20  and  C_21
REMARK    6  A    between atoms: C_21  and  O_23
REMARK                            x       y       z     vdW  Elec       q    Type
REMARK                         _______ _______ _______ _____ _____    ______ ____
ROOT
ATOM      1  C   UNL     1       5.919   5.431  15.721  0.00  0.00    +0.000 C 
ATOM      2  C   UNL     1       4.863   4.983  16.661  0.00  0.00    +0.000 A 
ATOM      3  N   UNL     1       4.722   3.670  16.978  0.00  0.00    +0.000 NA
ATOM      4  N   UNL     1       3.704   3.649  17.891  0.00  0.00    +0.000 N 
ATOM      5  C   UNL     1       3.202   4.886  18.093  0.00  0.00    +0.000 A 
ATOM      6  S   UNL     1       2.062   5.583  19.063  0.00  0.00    +0.000 S 
ATOM      7  C   UNL     1       2.581   7.156  18.521  0.00  0.00    +0.000 A 
ATOM      8  C   UNL     1       3.611   7.075  17.572  0.00  0.00    +0.000 A 
ATOM      9  C   UNL     1       3.933   5.735  17.373  0.00  0.00    +0.000 A 
ENDROOT
BRANCH   4  10
ATOM     10  C   UNL     1       3.422   2.508  18.753  0.00  0.00    +0.000 C 
ATOM     11  C   UNL     1       3.765   2.700  20.233  0.00  0.00    +0.000 C 
ATOM     12  C   UNL     1       2.638   3.289  21.072  0.00  0.00    +0.000 C 
ATOM     13  C   UNL     1       1.303   2.602  20.806  0.00  0.00    +0.000 C 
ATOM     14  C   UNL     1       0.941   2.651  19.329  0.00  0.00    +0.000 C 
ATOM     15  C   UNL     1       2.011   1.965  18.492  0.00  0.00    +0.000 C 
ENDBRANCH   4  10
BRANCH   7  16
ATOM     16  C   UNL     1       1.960   8.357  19.065  0.00  0.00    +0.000 C 
ATOM     17  O   UNL     1       1.701   8.453  20.262  0.00  0.00    +0.000 OA
ATOM     18  N   UNL     1       1.668   9.329  18.118  0.00  0.00    +0.000 N 
ATOM     19  H   UNL     1       1.809   9.064  17.150  0.00  0.00    +0.000 HD
BRANCH  18  20
ATOM     20  C   UNL     1       1.158  10.620  18.347  0.00  0.00    +0.000 A 
ATOM     21  C   UNL     1      -0.193  10.855  18.605  0.00  0.00    +0.000 A 
ATOM     22  C   UNL     1      -0.661  12.145  18.854  0.00  0.00    +0.000 A 
ATOM     23  C   UNL     1       0.224  13.226  18.817  0.00  0.00    +0.000 A 
ATOM     24  C   UNL     1       1.584  12.999  18.585  0.00  0.00    +0.000 A 
ATOM     25  C   UNL     1       2.053  11.697  18.361  0.00  0.00    +0.000 A 
BRANCH  23  26
ATOM     26  C   UNL     1      -0.235  14.612  19.079  0.00  0.00    +0.000 C 
ATOM     27  O   UNL     1       0.427  15.591  18.784  0.00  0.00    +0.000 OA
BRANCH  26  28
ATOM     28  O   UNL     1      -1.454  14.690  19.651  0.00  0.00    +0.000 OA
ATOM     29  H   UNL     1      -2.154  15.080  19.096  0.00  0.00    +0.000 HD
ENDBRANCH  26  28
ENDBRANCH  23  26
ENDBRANCH  18  20
ENDBRANCH   7  16
TORSDOF 5
ENDMDL
