MODEL 1
REMARK VINA RESULT:      -8.5      0.000      0.000
REMARK  Name = 
REMARK  11 active torsions:
REMARK  status: ('A' for Active; 'I' for Inactive)
REMARK    1  A    between atoms: C_1  and  O_2
REMARK    2  A    between atoms: O_2  and  C_3
REMARK    3  A    between atoms: C_3  and  C_5
REMARK    4  A    between atoms: C_8  and  S_9
REMARK    5  A    between atoms: S_9  and  N_12
REMARK    6  A    between atoms: N_12  and  C_13
REMARK    7  A    between atoms: N_12  and  C_20
REMARK    8  A    between atoms: C_13  and  C_14
REMARK    9  A    between atoms: C_14  and  C_15
REMARK   10  A    between atoms: C_15  and  C_16
REMARK   11  A    between atoms: C_28  and  C_29
REMARK                            x       y       z     vdW  Elec       q    Type
REMARK                         _______ _______ _______ _____ _____    ______ ____
ROOT
ATOM      1  N   UNL     1       3.151   4.951  18.972  0.00  0.00    +0.000 N 
ENDROOT
BRANCH   1   2
ATOM      2  C   UNL     1       2.796   6.334  19.161  0.00  0.00    +0.000 A 
ATOM      3  S   UNL     1       1.974   6.788  20.575  0.00  0.00    +0.000 S 
ATOM      4  C   UNL     1       1.573   8.328  19.956  0.00  0.00    +0.000 A 
ATOM      5  C   UNL     1       0.831   9.321  20.627  0.00  0.00    +0.000 A 
ATOM      6  C   UNL     1       0.500  10.495  19.953  0.00  0.00    +0.000 A 
ATOM      7  C   UNL     1       0.901  10.678  18.640  0.00  0.00    +0.000 A 
ATOM      8  C   UNL     1       1.682   9.709  17.993  0.00  0.00    +0.000 A 
ATOM      9  C   UNL     1       2.050   8.503  18.656  0.00  0.00    +0.000 A 
ATOM     10  C   UNL     1       2.871   7.366  18.230  0.00  0.00    +0.000 A 
ATOM     11  C   UNL     1       3.661   7.365  16.956  0.00  0.00    +0.000 C 
ENDBRANCH   1   2
BRANCH   1  12
ATOM     12  S   UNL     1       4.796   4.524  19.101  0.00  0.00    +0.000 S 
ATOM     13  O   UNL     1       4.903   3.134  19.508  0.00  0.00    +0.000 OA
ATOM     14  O   UNL     1       5.458   5.552  19.876  0.00  0.00    +0.000 OA
BRANCH  12  18
ATOM     15  C   UNL     1       6.523   4.544  14.794  0.00  0.00    +0.000 A 
ATOM     16  C   UNL     1       7.332   4.924  15.874  0.00  0.00    +0.000 A 
ATOM     17  C   UNL     1       6.807   4.951  17.188  0.00  0.00    +0.000 A 
ATOM     18  C   UNL     1       5.472   4.585  17.425  0.00  0.00    +0.000 A 
ATOM     19  C   UNL     1       4.709   4.101  16.362  0.00  0.00    +0.000 A 
ATOM     20  C   UNL     1       5.220   4.093  15.054  0.00  0.00    +0.000 A 
BRANCH  15  21
ATOM     21  C   UNL     1       6.967   4.620  13.368  0.00  0.00    +0.000 C 
ATOM     22  O   UNL     1       7.864   5.350  12.977  0.00  0.00    +0.000 OA
BRANCH  21  24
ATOM     23  C   UNL     1       7.127   3.080  11.598  0.00  0.00    +0.000 C 
ATOM     24  O   UNL     1       6.324   3.684  12.621  0.00  0.00    +0.000 OA
ENDBRANCH  21  24
ENDBRANCH  15  21
ENDBRANCH  12  18
ENDBRANCH   1  12
BRANCH   1  25
ATOM     25  C   UNL     1       2.117   4.064  18.374  0.00  0.00    +0.000 C 
BRANCH  25  26
ATOM     26  C   UNL     1       1.039   3.589  19.345  0.00  0.00    +0.000 C 
BRANCH  26  27
ATOM     27  C   UNL     1       1.480   2.347  20.135  0.00  0.00    +0.000 C 
BRANCH  27  28
ATOM     28  C   UNL     1       1.860   2.673  21.572  0.00  0.00    +0.000 C 
ATOM     29  F   UNL     1       3.058   2.158  21.918  0.00  0.00    +0.000 F 
ATOM     30  F   UNL     1       1.919   4.009  21.761  0.00  0.00    +0.000 F 
ATOM     31  F   UNL     1       0.940   2.184  22.433  0.00  0.00    +0.000 F 
ENDBRANCH  27  28
ENDBRANCH  26  27
ENDBRANCH  25  26
ENDBRANCH   1  25
TORSDOF 9
ENDMDL
MODEL 2
REMARK VINA RESULT:      -8.1      0.552      1.422
REMARK  Name = 
REMARK  11 active torsions:
REMARK  status: ('A' for Active; 'I' for Inactive)
REMARK    1  A    between atoms: C_1  and  O_2
REMARK    2  A    between atoms: O_2  and  C_3
REMARK    3  A    between atoms: C_3  and  C_5
REMARK    4  A    between atoms: C_8  and  S_9
REMARK    5  A    between atoms: S_9  and  N_12
REMARK    6  A    between atoms: N_12  and  C_13
REMARK    7  A    between atoms: N_12  and  C_20
REMARK    8  A    between atoms: C_13  and  C_14
REMARK    9  A    between atoms: C_14  and  C_15
REMARK   10  A    between atoms: C_15  and  C_16
REMARK   11  A    between atoms: C_28  and  C_29
REMARK                            x       y       z     vdW  Elec       q    Type
REMARK                         _______ _______ _______ _____ _____    ______ ____
ROOT
ATOM      1  N   UNL     1       3.433   4.820  18.984  0.00  0.00    +0.000 N 
ENDROOT
BRANCH   1   2
ATOM      2  C   UNL     1       3.009   6.187  19.146  0.00  0.00    +0.000 A 
ATOM      3  S   UNL     1       2.174   6.630  20.555  0.00  0.00    +0.000 S 
ATOM      4  C   UNL     1       1.690   8.133  19.906  0.00  0.00    +0.000 A 
ATOM      5  C   UNL     1       0.902   9.100  20.561  0.00  0.00    +0.000 A 
ATOM      6  C   UNL     1       0.507  10.242  19.864  0.00  0.00    +0.000 A 
ATOM      7  C   UNL     1       0.890  10.416  18.544  0.00  0.00    +0.000 A 
ATOM      8  C   UNL     1       1.715   9.474  17.913  0.00  0.00    +0.000 A 
ATOM      9  C   UNL     1       2.150   8.303  18.600  0.00  0.00    +0.000 A 
ATOM     10  C   UNL     1       3.025   7.201  18.193  0.00  0.00    +0.000 A 
ATOM     11  C   UNL     1       3.806   7.212  16.912  0.00  0.00    +0.000 C 
ENDBRANCH   1   2
BRANCH   1  12
ATOM     12  S   UNL     1       5.103   4.488  19.067  0.00  0.00    +0.000 S 
ATOM     13  O   UNL     1       5.301   3.131  19.549  0.00  0.00    +0.000 OA
ATOM     14  O   UNL     1       5.738   5.593  19.752  0.00  0.00    +0.000 OA
BRANCH  12  18
ATOM     15  C   UNL     1       6.638   4.610  14.690  0.00  0.00    +0.000 A 
ATOM     16  C   UNL     1       5.409   4.004  14.984  0.00  0.00    +0.000 A 
ATOM     17  C   UNL     1       4.944   3.934  16.319  0.00  0.00    +0.000 A 
ATOM     18  C   UNL     1       5.707   4.483  17.363  0.00  0.00    +0.000 A 
ATOM     19  C   UNL     1       6.873   5.182  17.048  0.00  0.00    +0.000 A 
ATOM     20  C   UNL     1       7.346   5.235  15.727  0.00  0.00    +0.000 A 
BRANCH  15  21
ATOM     21  C   UNL     1       7.253   4.603  13.326  0.00  0.00    +0.000 C 
ATOM     22  O   UNL     1       6.850   3.909  12.407  0.00  0.00    +0.000 OA
BRANCH  21  24
ATOM     23  C   UNL     1       8.296   6.212  11.965  0.00  0.00    +0.000 C 
ATOM     24  O   UNL     1       8.219   5.555  13.237  0.00  0.00    +0.000 OA
ENDBRANCH  21  24
ENDBRANCH  15  21
ENDBRANCH  12  18
ENDBRANCH   1  12
BRANCH   1  25
ATOM     25  C   UNL     1       2.430   3.860  18.448  0.00  0.00    +0.000 C 
BRANCH  25  26
ATOM     26  C   UNL     1       1.124   3.792  19.235  0.00  0.00    +0.000 C 
BRANCH  26  27
ATOM     27  C   UNL     1       1.053   2.544  20.128  0.00  0.00    +0.000 C 
BRANCH  27  28
ATOM     28  C   UNL     1       1.831   2.708  21.426  0.00  0.00    +0.000 C 
ATOM     29  F   UNL     1       1.909   3.996  21.822  0.00  0.00    +0.000 F 
ATOM     30  F   UNL     1       1.250   2.008  22.425  0.00  0.00    +0.000 F 
ATOM     31  F   UNL     1       3.093   2.244  21.289  0.00  0.00    +0.000 F 
ENDBRANCH  27  28
ENDBRANCH  26  27
ENDBRANCH  25  26
ENDBRANCH   1  25
TORSDOF 9
ENDMDL
MODEL 3
REMARK VINA RESULT:      -7.9      1.789      2.501
REMARK  Name = 
REMARK  11 active torsions:
REMARK  status: ('A' for Active; 'I' for Inactive)
REMARK    1  A    between atoms: C_1  and  O_2
REMARK    2  A    between atoms: O_2  and  C_3
REMARK    3  A    between atoms: C_3  and  C_5
REMARK    4  A    between atoms: C_8  and  S_9
REMARK    5  A    between atoms: S_9  and  N_12
REMARK    6  A    between atoms: N_12  and  C_13
REMARK    7  A    between atoms: N_12  and  C_20
REMARK    8  A    between atoms: C_13  and  C_14
REMARK    9  A    between atoms: C_14  and  C_15
REMARK   10  A    between atoms: C_15  and  C_16
REMARK   11  A    between atoms: C_28  and  C_29
REMARK                            x       y       z     vdW  Elec       q    Type
REMARK                         _______ _______ _______ _____ _____    ______ ____
ROOT
ATOM      1  N   UNL     1       4.857   4.866  18.841  0.00  0.00    +0.000 N 
ENDROOT
BRANCH   1   2
ATOM      2  C   UNL     1       3.791   5.833  18.792  0.00  0.00    +0.000 A 
ATOM      3  S   UNL     1       3.707   6.904  17.478  0.00  0.00    +0.000 S 
ATOM      4  C   UNL     1       2.560   7.905  18.249  0.00  0.00    +0.000 A 
ATOM      5  C   UNL     1       1.997   9.081  17.713  0.00  0.00    +0.000 A 
ATOM      6  C   UNL     1       1.142   9.848  18.503  0.00  0.00    +0.000 A 
ATOM      7  C   UNL     1       0.853   9.452  19.798  0.00  0.00    +0.000 A 
ATOM      8  C   UNL     1       1.376   8.256  20.310  0.00  0.00    +0.000 A 
ATOM      9  C   UNL     1       2.241   7.440  19.525  0.00  0.00    +0.000 A 
ATOM     10  C   UNL     1       2.884   6.152  19.800  0.00  0.00    +0.000 A 
ATOM     11  C   UNL     1       2.575   5.331  21.017  0.00  0.00    +0.000 C 
ENDBRANCH   1   2
BRANCH   1  12
ATOM     12  S   UNL     1       6.347   5.285  18.129  0.00  0.00    +0.000 S 
ATOM     13  O   UNL     1       7.404   4.473  18.707  0.00  0.00    +0.000 OA
ATOM     14  O   UNL     1       6.457   6.728  18.152  0.00  0.00    +0.000 OA
BRANCH  12  18
ATOM     15  C   UNL     1       6.137   3.853  13.720  0.00  0.00    +0.000 A 
ATOM     16  C   UNL     1       7.043   4.857  14.087  0.00  0.00    +0.000 A 
ATOM     17  C   UNL     1       7.095   5.323  15.422  0.00  0.00    +0.000 A 
ATOM     18  C   UNL     1       6.246   4.775  16.397  0.00  0.00    +0.000 A 
ATOM     19  C   UNL     1       5.428   3.699  16.047  0.00  0.00    +0.000 A 
ATOM     20  C   UNL     1       5.359   3.249  14.719  0.00  0.00    +0.000 A 
BRANCH  15  21
ATOM     21  C   UNL     1       5.933   3.406  12.307  0.00  0.00    +0.000 C 
ATOM     22  O   UNL     1       4.855   3.444  11.735  0.00  0.00    +0.000 OA
BRANCH  21  24
ATOM     23  C   UNL     1       7.151   1.798  11.098  0.00  0.00    +0.000 C 
ATOM     24  O   UNL     1       7.123   3.082  11.736  0.00  0.00    +0.000 OA
ENDBRANCH  21  24
ENDBRANCH  15  21
ENDBRANCH  12  18
ENDBRANCH   1  12
BRANCH   1  25
ATOM     25  C   UNL     1       4.490   3.476  19.222  0.00  0.00    +0.000 C 
BRANCH  25  26
ATOM     26  C   UNL     1       3.450   2.816  18.321  0.00  0.00    +0.000 C 
BRANCH  26  27
ATOM     27  C   UNL     1       2.363   2.090  19.127  0.00  0.00    +0.000 C 
BRANCH  27  28
ATOM     28  C   UNL     1       0.992   2.732  18.970  0.00  0.00    +0.000 C 
ATOM     29  F   UNL     1       0.095   1.900  18.400  0.00  0.00    +0.000 F 
ATOM     30  F   UNL     1       0.497   3.106  20.170  0.00  0.00    +0.000 F 
ATOM     31  F   UNL     1       1.068   3.841  18.202  0.00  0.00    +0.000 F 
ENDBRANCH  27  28
ENDBRANCH  26  27
ENDBRANCH  25  26
ENDBRANCH   1  25
TORSDOF 9
ENDMDL
MODEL 4
REMARK VINA RESULT:      -7.8      0.556      1.218
REMARK  Name = 
REMARK  11 active torsions:
REMARK  status: ('A' for Active; 'I' for Inactive)
REMARK    1  A    between atoms: C_1  and  O_2
REMARK    2  A    between atoms: O_2  and  C_3
REMARK    3  A    between atoms: C_3  and  C_5
REMARK    4  A    between atoms: C_8  and  S_9
REMARK    5  A    between atoms: S_9  and  N_12
REMARK    6  A    between atoms: N_12  and  C_13
REMARK    7  A    between atoms: N_12  and  C_20
REMARK    8  A    between atoms: C_13  and  C_14
REMARK    9  A    between atoms: C_14  and  C_15
REMARK   10  A    between atoms: C_15  and  C_16
REMARK   11  A    between atoms: C_28  and  C_29
REMARK                            x       y       z     vdW  Elec       q    Type
REMARK                         _______ _______ _______ _____ _____    ______ ____
ROOT
ATOM      1  N   UNL     1       3.144   4.972  18.990  0.00  0.00    +0.000 N 
ENDROOT
BRANCH   1   2
ATOM      2  C   UNL     1       2.802   6.358  19.176  0.00  0.00    +0.000 A 
ATOM      3  S   UNL     1       2.012   6.828  20.603  0.00  0.00    +0.000 S 
ATOM      4  C   UNL     1       1.607   8.365  19.982  0.00  0.00    +0.000 A 
ATOM      5  C   UNL     1       0.885   9.367  20.660  0.00  0.00    +0.000 A 
ATOM      6  C   UNL     1       0.547  10.539  19.985  0.00  0.00    +0.000 A 
ATOM      7  C   UNL     1       0.920  10.710  18.662  0.00  0.00    +0.000 A 
ATOM      8  C   UNL     1       1.682   9.731  18.006  0.00  0.00    +0.000 A 
ATOM      9  C   UNL     1       2.057   8.528  18.671  0.00  0.00    +0.000 A 
ATOM     10  C   UNL     1       2.862   7.383  18.236  0.00  0.00    +0.000 A 
ATOM     11  C   UNL     1       3.625   7.368  16.945  0.00  0.00    +0.000 C 
ENDBRANCH   1   2
BRANCH   1  12
ATOM     12  S   UNL     1       4.786   4.532  19.117  0.00  0.00    +0.000 S 
ATOM     13  O   UNL     1       4.883   3.157  19.577  0.00  0.00    +0.000 OA
ATOM     14  O   UNL     1       5.468   5.581  19.843  0.00  0.00    +0.000 OA
BRANCH  12  18
ATOM     15  C   UNL     1       6.487   4.636  14.801  0.00  0.00    +0.000 A 
ATOM     16  C   UNL     1       5.137   4.327  15.013  0.00  0.00    +0.000 A 
ATOM     17  C   UNL     1       4.614   4.263  16.327  0.00  0.00    +0.000 A 
ATOM     18  C   UNL     1       5.442   4.520  17.432  0.00  0.00    +0.000 A 
ATOM     19  C   UNL     1       6.755   4.936  17.205  0.00  0.00    +0.000 A 
ATOM     20  C   UNL     1       7.281   4.981  15.904  0.00  0.00    +0.000 A 
BRANCH  15  21
ATOM     21  C   UNL     1       7.138   4.591  13.455  0.00  0.00    +0.000 C 
ATOM     22  O   UNL     1       7.859   5.477  13.023  0.00  0.00    +0.000 OA
BRANCH  21  24
ATOM     23  C   UNL     1       5.807   3.372  11.947  0.00  0.00    +0.000 C 
ATOM     24  O   UNL     1       6.913   3.390  12.859  0.00  0.00    +0.000 OA
ENDBRANCH  21  24
ENDBRANCH  15  21
ENDBRANCH  12  18
ENDBRANCH   1  12
BRANCH   1  25
ATOM     25  C   UNL     1       2.102   4.092  18.396  0.00  0.00    +0.000 C 
BRANCH  25  26
ATOM     26  C   UNL     1       0.939   3.757  19.327  0.00  0.00    +0.000 C 
BRANCH  26  27
ATOM     27  C   UNL     1       1.334   3.868  20.808  0.00  0.00    +0.000 C 
BRANCH  27  28
ATOM     28  C   UNL     1       1.741   2.529  21.407  0.00  0.00    +0.000 C 
ATOM     29  F   UNL     1       0.954   2.166  22.440  0.00  0.00    +0.000 F 
ATOM     30  F   UNL     1       1.675   1.550  20.479  0.00  0.00    +0.000 F 
ATOM     31  F   UNL     1       3.014   2.574  21.857  0.00  0.00    +0.000 F 
ENDBRANCH  27  28
ENDBRANCH  26  27
ENDBRANCH  25  26
ENDBRANCH   1  25
TORSDOF 9
ENDMDL
MODEL 5
REMARK VINA RESULT:      -7.7      4.705      6.665
REMARK  Name = 
REMARK  11 active torsions:
REMARK  status: ('A' for Active; 'I' for Inactive)
REMARK    1  A    between atoms: C_1  and  O_2
REMARK    2  A    between atoms: O_2  and  C_3
REMARK    3  A    between atoms: C_3  and  C_5
REMARK    4  A    between atoms: C_8  and  S_9
REMARK    5  A    between atoms: S_9  and  N_12
REMARK    6  A    between atoms: N_12  and  C_13
REMARK    7  A    between atoms: N_12  and  C_20
REMARK    8  A    between atoms: C_13  and  C_14
REMARK    9  A    between atoms: C_14  and  C_15
REMARK   10  A    between atoms: C_15  and  C_16
REMARK   11  A    between atoms: C_28  and  C_29
REMARK                            x       y       z     vdW  Elec       q    Type
REMARK                         _______ _______ _______ _____ _____    ______ ____
ROOT
ATOM      1  N   UNL     1       5.583   5.064  16.535  0.00  0.00    +0.000 N 
ENDROOT
BRANCH   1   2
ATOM      2  C   UNL     1       4.388   5.185  17.330  0.00  0.00    +0.000 A 
ATOM      3  S   UNL     1       3.990   6.694  17.996  0.00  0.00    +0.000 S 
ATOM      4  C   UNL     1       2.809   6.028  19.033  0.00  0.00    +0.000 A 
ATOM      5  C   UNL     1       2.019   6.745  19.954  0.00  0.00    +0.000 A 
ATOM      6  C   UNL     1       1.163   6.046  20.804  0.00  0.00    +0.000 A 
ATOM      7  C   UNL     1       1.094   4.664  20.738  0.00  0.00    +0.000 A 
ATOM      8  C   UNL     1       1.846   3.960  19.786  0.00  0.00    +0.000 A 
ATOM      9  C   UNL     1       2.720   4.643  18.892  0.00  0.00    +0.000 A 
ATOM     10  C   UNL     1       3.574   4.160  17.803  0.00  0.00    +0.000 A 
ATOM     11  C   UNL     1       3.539   2.745  17.307  0.00  0.00    +0.000 C 
ENDBRANCH   1   2
BRANCH   1  12
ATOM     12  S   UNL     1       7.064   4.840  17.349  0.00  0.00    +0.000 S 
ATOM     13  O   UNL     1       8.046   4.302  16.424  0.00  0.00    +0.000 OA
ATOM     14  O   UNL     1       6.785   4.141  18.586  0.00  0.00    +0.000 OA
BRANCH  12  18
ATOM     15  C   UNL     1       8.521   9.076  18.559  0.00  0.00    +0.000 A 
ATOM     16  C   UNL     1       7.772   8.902  17.388  0.00  0.00    +0.000 A 
ATOM     17  C   UNL     1       7.348   7.611  16.993  0.00  0.00    +0.000 A 
ATOM     18  C   UNL     1       7.664   6.490  17.779  0.00  0.00    +0.000 A 
ATOM     19  C   UNL     1       8.313   6.687  18.999  0.00  0.00    +0.000 A 
ATOM     20  C   UNL     1       8.753   7.964  19.383  0.00  0.00    +0.000 A 
BRANCH  15  21
ATOM     21  C   UNL     1       9.116  10.386  18.968  0.00  0.00    +0.000 C 
ATOM     22  O   UNL     1       9.356  10.688  20.126  0.00  0.00    +0.000 OA
BRANCH  21  24
ATOM     23  C   UNL     1       9.181  12.519  17.978  0.00  0.00    +0.000 C 
ATOM     24  O   UNL     1       9.455  11.115  17.872  0.00  0.00    +0.000 OA
ENDBRANCH  21  24
ENDBRANCH  15  21
ENDBRANCH  12  18
ENDBRANCH   1  12
BRANCH   1  25
ATOM     25  C   UNL     1       5.484   5.455  15.103  0.00  0.00    +0.000 C 
BRANCH  25  26
ATOM     26  C   UNL     1       5.077   4.328  14.157  0.00  0.00    +0.000 C 
BRANCH  26  27
ATOM     27  C   UNL     1       6.295   3.611  13.554  0.00  0.00    +0.000 C 
BRANCH  27  28
ATOM     28  C   UNL     1       6.087   3.232  12.095  0.00  0.00    +0.000 C 
ATOM     29  F   UNL     1       7.137   3.571  11.319  0.00  0.00    +0.000 F 
ATOM     30  F   UNL     1       5.897   1.901  11.968  0.00  0.00    +0.000 F 
ATOM     31  F   UNL     1       4.992   3.846  11.593  0.00  0.00    +0.000 F 
ENDBRANCH  27  28
ENDBRANCH  26  27
ENDBRANCH  25  26
ENDBRANCH   1  25
TORSDOF 9
ENDMDL
MODEL 6
REMARK VINA RESULT:      -7.6      6.375     11.047
REMARK  Name = 
REMARK  11 active torsions:
REMARK  status: ('A' for Active; 'I' for Inactive)
REMARK    1  A    between atoms: C_1  and  O_2
REMARK    2  A    between atoms: O_2  and  C_3
REMARK    3  A    between atoms: C_3  and  C_5
REMARK    4  A    between atoms: C_8  and  S_9
REMARK    5  A    between atoms: S_9  and  N_12
REMARK    6  A    between atoms: N_12  and  C_13
REMARK    7  A    between atoms: N_12  and  C_20
REMARK    8  A    between atoms: C_13  and  C_14
REMARK    9  A    between atoms: C_14  and  C_15
REMARK   10  A    between atoms: C_15  and  C_16
REMARK   11  A    between atoms: C_28  and  C_29
REMARK                            x       y       z     vdW  Elec       q    Type
REMARK                         _______ _______ _______ _____ _____    ______ ____
ROOT
ATOM      1  N   UNL     1      -0.049  10.592  19.376  0.00  0.00    +0.000 N 
ENDROOT
BRANCH   1   2
ATOM      2  C   UNL     1       0.999   9.608  19.301  0.00  0.00    +0.000 A 
ATOM      3  S   UNL     1       1.943   9.512  17.893  0.00  0.00    +0.000 S 
ATOM      4  C   UNL     1       2.615   8.007  18.336  0.00  0.00    +0.000 A 
ATOM      5  C   UNL     1       3.544   7.263  17.581  0.00  0.00    +0.000 A 
ATOM      6  C   UNL     1       3.930   6.001  18.029  0.00  0.00    +0.000 A 
ATOM      7  C   UNL     1       3.403   5.490  19.204  0.00  0.00    +0.000 A 
ATOM      8  C   UNL     1       2.516   6.255  19.976  0.00  0.00    +0.000 A 
ATOM      9  C   UNL     1       2.112   7.555  19.556  0.00  0.00    +0.000 A 
ATOM     10  C   UNL     1       1.243   8.556  20.180  0.00  0.00    +0.000 A 
ATOM     11  C   UNL     1       0.712   8.417  21.576  0.00  0.00    +0.000 C 
ENDBRANCH   1   2
BRANCH   1  12
ATOM     12  S   UNL     1       0.273  12.038  20.220  0.00  0.00    +0.000 S 
ATOM     13  O   UNL     1       0.270  13.152  19.287  0.00  0.00    +0.000 OA
ATOM     14  O   UNL     1       1.429  11.808  21.060  0.00  0.00    +0.000 OA
BRANCH  12  18
ATOM     15  C   UNL     1      -3.401  12.633  22.991  0.00  0.00    +0.000 A 
ATOM     16  C   UNL     1      -3.349  13.280  21.749  0.00  0.00    +0.000 A 
ATOM     17  C   UNL     1      -2.220  13.130  20.908  0.00  0.00    +0.000 A 
ATOM     18  C   UNL     1      -1.144  12.320  21.307  0.00  0.00    +0.000 A 
ATOM     19  C   UNL     1      -1.253  11.592  22.492  0.00  0.00    +0.000 A 
ATOM     20  C   UNL     1      -2.363  11.755  23.337  0.00  0.00    +0.000 A 
BRANCH  15  21
ATOM     21  C   UNL     1      -4.497  12.850  23.986  0.00  0.00    +0.000 C 
ATOM     22  O   UNL     1      -4.842  12.012  24.804  0.00  0.00    +0.000 OA
BRANCH  21  24
ATOM     23  C   UNL     1      -6.358  14.259  23.702  0.00  0.00    +0.000 C 
ATOM     24  O   UNL     1      -4.947  14.131  23.923  0.00  0.00    +0.000 OA
ENDBRANCH  21  24
ENDBRANCH  15  21
ENDBRANCH  12  18
ENDBRANCH   1  12
BRANCH   1  25
ATOM     25  C   UNL     1      -1.418  10.153  18.992  0.00  0.00    +0.000 C 
BRANCH  25  26
ATOM     26  C   UNL     1      -1.864  10.588  17.599  0.00  0.00    +0.000 C 
BRANCH  26  27
ATOM     27  C   UNL     1      -2.962  11.661  17.653  0.00  0.00    +0.000 C 
BRANCH  27  28
ATOM     28  C   UNL     1      -4.260  11.203  17.003  0.00  0.00    +0.000 C 
ATOM     29  F   UNL     1      -4.049  10.418  15.926  0.00  0.00    +0.000 F 
ATOM     30  F   UNL     1      -5.013  10.504  17.878  0.00  0.00    +0.000 F 
ATOM     31  F   UNL     1      -4.992  12.265  16.598  0.00  0.00    +0.000 F 
ENDBRANCH  27  28
ENDBRANCH  26  27
ENDBRANCH  25  26
ENDBRANCH   1  25
TORSDOF 9
ENDMDL
MODEL 7
REMARK VINA RESULT:      -7.5      1.718      2.372
REMARK  Name = 
REMARK  11 active torsions:
REMARK  status: ('A' for Active; 'I' for Inactive)
REMARK    1  A    between atoms: C_1  and  O_2
REMARK    2  A    between atoms: O_2  and  C_3
REMARK    3  A    between atoms: C_3  and  C_5
REMARK    4  A    between atoms: C_8  and  S_9
REMARK    5  A    between atoms: S_9  and  N_12
REMARK    6  A    between atoms: N_12  and  C_13
REMARK    7  A    between atoms: N_12  and  C_20
REMARK    8  A    between atoms: C_13  and  C_14
REMARK    9  A    between atoms: C_14  and  C_15
REMARK   10  A    between atoms: C_15  and  C_16
REMARK   11  A    between atoms: C_28  and  C_29
REMARK                            x       y       z     vdW  Elec       q    Type
REMARK                         _______ _______ _______ _____ _____    ______ ____
ROOT
ATOM      1  N   UNL     1       4.553   4.874  18.719  0.00  0.00    +0.000 N 
ENDROOT
BRANCH   1   2
ATOM      2  C   UNL     1       3.550   5.907  18.738  0.00  0.00    +0.000 A 
ATOM      3  S   UNL     1       3.494   7.027  17.465  0.00  0.00    +0.000 S 
ATOM      4  C   UNL     1       2.437   8.070  18.307  0.00  0.00    +0.000 A 
ATOM      5  C   UNL     1       1.934   9.298  17.830  0.00  0.00    +0.000 A 
ATOM      6  C   UNL     1       1.155  10.087  18.674  0.00  0.00    +0.000 A 
ATOM      7  C   UNL     1       0.881   9.664  19.964  0.00  0.00    +0.000 A 
ATOM      8  C   UNL     1       1.342   8.419  20.417  0.00  0.00    +0.000 A 
ATOM      9  C   UNL     1       2.129   7.580  19.576  0.00  0.00    +0.000 A 
ATOM     10  C   UNL     1       2.697   6.245  19.786  0.00  0.00    +0.000 A 
ATOM     11  C   UNL     1       2.374   5.402  20.983  0.00  0.00    +0.000 C 
ENDBRANCH   1   2
BRANCH   1  12
ATOM     12  S   UNL     1       6.127   5.300  18.224  0.00  0.00    +0.000 S 
ATOM     13  O   UNL     1       7.091   4.441  18.888  0.00  0.00    +0.000 OA
ATOM     14  O   UNL     1       6.250   6.738  18.336  0.00  0.00    +0.000 OA
BRANCH  12  18
ATOM     15  C   UNL     1       6.478   4.100  13.755  0.00  0.00    +0.000 A 
ATOM     16  C   UNL     1       7.242   5.162  14.256  0.00  0.00    +0.000 A 
ATOM     17  C   UNL     1       7.122   5.557  15.610  0.00  0.00    +0.000 A 
ATOM     18  C   UNL     1       6.241   4.878  16.469  0.00  0.00    +0.000 A 
ATOM     19  C   UNL     1       5.569   3.753  15.991  0.00  0.00    +0.000 A 
ATOM     20  C   UNL     1       5.671   3.372  14.643  0.00  0.00    +0.000 A 
BRANCH  15  21
ATOM     21  C   UNL     1       6.453   3.715  12.310  0.00  0.00    +0.000 C 
ATOM     22  O   UNL     1       7.247   4.138  11.484  0.00  0.00    +0.000 OA
BRANCH  21  24
ATOM     23  C   UNL     1       4.361   3.193  11.371  0.00  0.00    +0.000 C 
ATOM     24  O   UNL     1       5.519   2.751  12.092  0.00  0.00    +0.000 OA
ENDBRANCH  21  24
ENDBRANCH  15  21
ENDBRANCH  12  18
ENDBRANCH   1  12
BRANCH   1  25
ATOM     25  C   UNL     1       4.078   3.468  18.826  0.00  0.00    +0.000 C 
BRANCH  25  26
ATOM     26  C   UNL     1       3.127   3.027  17.716  0.00  0.00    +0.000 C 
BRANCH  26  27
ATOM     27  C   UNL     1       1.677   3.454  17.994  0.00  0.00    +0.000 C 
BRANCH  27  28
ATOM     28  C   UNL     1       0.982   2.547  18.998  0.00  0.00    +0.000 C 
ATOM     29  F   UNL     1       0.332   3.240  19.956  0.00  0.00    +0.000 F 
ATOM     30  F   UNL     1       0.078   1.754  18.382  0.00  0.00    +0.000 F 
ATOM     31  F   UNL     1       1.875   1.739  19.612  0.00  0.00    +0.000 F 
ENDBRANCH  27  28
ENDBRANCH  26  27
ENDBRANCH  25  26
ENDBRANCH   1  25
TORSDOF 9
ENDMDL
MODEL 8
REMARK VINA RESULT:      -7.4      4.696      6.570
REMARK  Name = 
REMARK  11 active torsions:
REMARK  status: ('A' for Active; 'I' for Inactive)
REMARK    1  A    between atoms: C_1  and  O_2
REMARK    2  A    between atoms: O_2  and  C_3
REMARK    3  A    between atoms: C_3  and  C_5
REMARK    4  A    between atoms: C_8  and  S_9
REMARK    5  A    between atoms: S_9  and  N_12
REMARK    6  A    between atoms: N_12  and  C_13
REMARK    7  A    between atoms: N_12  and  C_20
REMARK    8  A    between atoms: C_13  and  C_14
REMARK    9  A    between atoms: C_14  and  C_15
REMARK   10  A    between atoms: C_15  and  C_16
REMARK   11  A    between atoms: C_28  and  C_29
REMARK                            x       y       z     vdW  Elec       q    Type
REMARK                         _______ _______ _______ _____ _____    ______ ____
ROOT
ATOM      1  N   UNL     1       5.508   5.169  16.509  0.00  0.00    +0.000 N 
ENDROOT
BRANCH   1   2
ATOM      2  C   UNL     1       4.336   5.420  17.306  0.00  0.00    +0.000 A 
ATOM      3  S   UNL     1       4.036   6.996  17.860  0.00  0.00    +0.000 S 
ATOM      4  C   UNL     1       2.836   6.480  18.959  0.00  0.00    +0.000 A 
ATOM      5  C   UNL     1       2.104   7.309  19.832  0.00  0.00    +0.000 A 
ATOM      6  C   UNL     1       1.223   6.729  20.743  0.00  0.00    +0.000 A 
ATOM      7  C   UNL     1       1.073   5.352  20.784  0.00  0.00    +0.000 A 
ATOM      8  C   UNL     1       1.767   4.535  19.879  0.00  0.00    +0.000 A 
ATOM      9  C   UNL     1       2.665   5.096  18.925  0.00  0.00    +0.000 A 
ATOM     10  C   UNL     1       3.471   4.483  17.866  0.00  0.00    +0.000 A 
ATOM     11  C   UNL     1       3.347   3.039  17.480  0.00  0.00    +0.000 C 
ENDBRANCH   1   2
BRANCH   1  12
ATOM     12  S   UNL     1       6.983   4.903  17.321  0.00  0.00    +0.000 S 
ATOM     13  O   UNL     1       7.974   4.420  16.374  0.00  0.00    +0.000 OA
ATOM     14  O   UNL     1       6.697   4.136  18.514  0.00  0.00    +0.000 OA
BRANCH  12  18
ATOM     15  C   UNL     1       8.597   9.070  18.569  0.00  0.00    +0.000 A 
ATOM     16  C   UNL     1       8.799   7.963  19.404  0.00  0.00    +0.000 A 
ATOM     17  C   UNL     1       8.285   6.693  19.048  0.00  0.00    +0.000 A 
ATOM     18  C   UNL     1       7.577   6.528  17.846  0.00  0.00    +0.000 A 
ATOM     19  C   UNL     1       7.479   7.609  16.969  0.00  0.00    +0.000 A 
ATOM     20  C   UNL     1       7.969   8.874  17.329  0.00  0.00    +0.000 A 
BRANCH  15  21
ATOM     21  C   UNL     1       8.993  10.464  18.941  0.00  0.00    +0.000 C 
ATOM     22  O   UNL     1       9.150  10.837  20.092  0.00  0.00    +0.000 OA
BRANCH  21  24
ATOM     23  C   UNL     1       8.760  12.534  17.849  0.00  0.00    +0.000 C 
ATOM     24  O   UNL     1       9.267  11.193  17.826  0.00  0.00    +0.000 OA
ENDBRANCH  21  24
ENDBRANCH  15  21
ENDBRANCH  12  18
ENDBRANCH   1  12
BRANCH   1  25
ATOM     25  C   UNL     1       5.414   5.471  15.055  0.00  0.00    +0.000 C 
BRANCH  25  26
ATOM     26  C   UNL     1       5.124   4.263  14.167  0.00  0.00    +0.000 C 
BRANCH  26  27
ATOM     27  C   UNL     1       6.382   3.766  13.439  0.00  0.00    +0.000 C 
BRANCH  27  28
ATOM     28  C   UNL     1       6.077   3.219  12.052  0.00  0.00    +0.000 C 
ATOM     29  F   UNL     1       5.076   3.887  11.441  0.00  0.00    +0.000 F 
ATOM     30  F   UNL     1       7.166   3.297  11.256  0.00  0.00    +0.000 F 
ATOM     31  F   UNL     1       5.719   1.917  12.120  0.00  0.00    +0.000 F 
ENDBRANCH  27  28
ENDBRANCH  26  27
ENDBRANCH  25  26
ENDBRANCH   1  25
TORSDOF 9
ENDMDL
MODEL 9
REMARK VINA RESULT:      -7.3      6.352     10.908
REMARK  Name = 
REMARK  11 active torsions:
REMARK  status: ('A' for Active; 'I' for Inactive)
REMARK    1  A    between atoms: C_1  and  O_2
REMARK    2  A    between atoms: O_2  and  C_3
REMARK    3  A    between atoms: C_3  and  C_5
REMARK    4  A    between atoms: C_8  and  S_9
REMARK    5  A    between atoms: S_9  and  N_12
REMARK    6  A    between atoms: N_12  and  C_13
REMARK    7  A    between atoms: N_12  and  C_20
REMARK    8  A    between atoms: C_13  and  C_14
REMARK    9  A    between atoms: C_14  and  C_15
REMARK   10  A    between atoms: C_15  and  C_16
REMARK   11  A    between atoms: C_28  and  C_29
REMARK                            x       y       z     vdW  Elec       q    Type
REMARK                         _______ _______ _______ _____ _____    ______ ____
ROOT
ATOM      1  N   UNL     1       0.014  10.436  19.355  0.00  0.00    +0.000 N 
ENDROOT
BRANCH   1   2
ATOM      2  C   UNL     1       1.080   9.472  19.269  0.00  0.00    +0.000 A 
ATOM      3  S   UNL     1       2.043   9.428  17.872  0.00  0.00    +0.000 S 
ATOM      4  C   UNL     1       2.736   7.925  18.285  0.00  0.00    +0.000 A 
ATOM      5  C   UNL     1       3.688   7.216  17.524  0.00  0.00    +0.000 A 
ATOM      6  C   UNL     1       4.091   5.950  17.946  0.00  0.00    +0.000 A 
ATOM      7  C   UNL     1       3.558   5.401  19.100  0.00  0.00    +0.000 A 
ATOM      8  C   UNL     1       2.649   6.130  19.880  0.00  0.00    +0.000 A 
ATOM      9  C   UNL     1       2.226   7.433  19.487  0.00  0.00    +0.000 A 
ATOM     10  C   UNL     1       1.332   8.403  20.125  0.00  0.00    +0.000 A 
ATOM     11  C   UNL     1       0.787   8.220  21.510  0.00  0.00    +0.000 C 
ENDBRANCH   1   2
BRANCH   1  12
ATOM     12  S   UNL     1       0.290  11.852  20.263  0.00  0.00    +0.000 S 
ATOM     13  O   UNL     1       0.459  12.978  19.361  0.00  0.00    +0.000 OA
ATOM     14  O   UNL     1       1.315  11.555  21.240  0.00  0.00    +0.000 OA
BRANCH  12  18
ATOM     15  C   UNL     1      -3.608  12.842  22.577  0.00  0.00    +0.000 A 
ATOM     16  C   UNL     1      -2.596  12.098  23.198  0.00  0.00    +0.000 A 
ATOM     17  C   UNL     1      -1.415  11.764  22.492  0.00  0.00    +0.000 A 
ATOM     18  C   UNL     1      -1.242  12.186  21.164  0.00  0.00    +0.000 A 
ATOM     19  C   UNL     1      -2.204  13.021  20.592  0.00  0.00    +0.000 A 
ATOM     20  C   UNL     1      -3.385  13.336  21.283  0.00  0.00    +0.000 A 
BRANCH  15  21
ATOM     21  C   UNL     1      -4.934  13.117  23.213  0.00  0.00    +0.000 C 
ATOM     22  O   UNL     1      -5.142  14.059  23.961  0.00  0.00    +0.000 OA
BRANCH  21  24
ATOM     23  C   UNL     1      -7.049  12.884  22.212  0.00  0.00    +0.000 C 
ATOM     24  O   UNL     1      -5.874  12.256  22.741  0.00  0.00    +0.000 OA
ENDBRANCH  21  24
ENDBRANCH  15  21
ENDBRANCH  12  18
ENDBRANCH   1  12
BRANCH   1  25
ATOM     25  C   UNL     1      -1.337   9.990  18.918  0.00  0.00    +0.000 C 
BRANCH  25  26
ATOM     26  C   UNL     1      -1.610  10.140  17.424  0.00  0.00    +0.000 C 
BRANCH  26  27
ATOM     27  C   UNL     1      -2.393  11.423  17.106  0.00  0.00    +0.000 C 
BRANCH  27  28
ATOM     28  C   UNL     1      -3.653  11.153  16.296  0.00  0.00    +0.000 C 
ATOM     29  F   UNL     1      -4.196   9.949  16.570  0.00  0.00    +0.000 F 
ATOM     30  F   UNL     1      -4.593  12.091  16.545  0.00  0.00    +0.000 F 
ATOM     31  F   UNL     1      -3.387  11.190  14.971  0.00  0.00    +0.000 F 
ENDBRANCH  27  28
ENDBRANCH  26  27
ENDBRANCH  25  26
ENDBRANCH   1  25
TORSDOF 9
ENDMDL
