MODEL 1
REMARK VINA RESULT:      -8.6      0.000      0.000
REMARK  Name = 
REMARK  5 active torsions:
REMARK  status: ('A' for Active; 'I' for Inactive)
REMARK    1  A    between atoms: C_2  and  C_3
REMARK    2  A    between atoms: C_6  and  C_7
REMARK    3  A    between atoms: C_17  and  N_18
REMARK    4  A    between atoms: C_20  and  C_21
REMARK    5  A    between atoms: C_21  and  O_22
REMARK                            x       y       z     vdW  Elec       q    Type
REMARK                         _______ _______ _______ _____ _____    ______ ____
ROOT
ATOM      1  O   UNL     1       2.937   4.568  19.642  0.00  0.00    +0.000 OA
ATOM      2  C   UNL     1       3.333   5.601  19.096  0.00  0.00    +0.000 C 
ATOM      3  N   UNL     1       4.507   5.630  18.323  0.00  0.00    +0.000 N 
ATOM      4  C   UNL     1       5.191   4.361  18.102  0.00  0.00    +0.000 C 
ATOM      5  C   UNL     1       6.693   4.561  17.918  0.00  0.00    +0.000 C 
ATOM      6  C   UNL     1       7.034   5.647  16.890  0.00  0.00    +0.000 C 
ATOM      7  C   UNL     1       6.230   6.926  17.134  0.00  0.00    +0.000 C 
ATOM      8  C   UNL     1       4.745   6.647  17.298  0.00  0.00    +0.000 C 
ENDROOT
BRANCH   2   9
ATOM      9  C   UNL     1       2.555   6.840  19.201  0.00  0.00    +0.000 A 
ATOM     10  C   UNL     1       2.444   7.796  18.214  0.00  0.00    +0.000 A 
ATOM     11  N   UNL     1       1.738   8.818  18.778  0.00  0.00    +0.000 N 
ATOM     12  C   UNL     1       1.400   8.464  20.064  0.00  0.00    +0.000 A 
ATOM     13  N   UNL     1       1.849   7.252  20.323  0.00  0.00    +0.000 NA
ATOM     14  H   UNL     1       1.552   9.717  18.356  0.00  0.00    +0.000 HD
BRANCH  12  15
ATOM     15  C   UNL     1       0.718   9.364  20.991  0.00  0.00    +0.000 A 
ATOM     16  C   UNL     1       0.235   8.898  22.222  0.00  0.00    +0.000 A 
ATOM     17  C   UNL     1      -0.460   9.747  23.081  0.00  0.00    +0.000 A 
ATOM     18  C   UNL     1      -0.681  11.074  22.726  0.00  0.00    +0.000 A 
ATOM     19  C   UNL     1      -0.194  11.557  21.513  0.00  0.00    +0.000 A 
ATOM     20  C   UNL     1       0.507  10.709  20.652  0.00  0.00    +0.000 A 
ENDBRANCH  12  15
ENDBRANCH   2   9
BRANCH   6  21
ATOM     21  N   UNL     1       6.927   5.191  15.511  0.00  0.00    +0.000 N 
ATOM     22  C   UNL     1       6.110   4.214  15.025  0.00  0.00    +0.000 A 
ATOM     23  C   UNL     1       6.479   4.098  13.703  0.00  0.00    +0.000 A 
ATOM     24  N   UNL     1       7.479   4.995  13.437  0.00  0.00    +0.000 NA
ATOM     25  N   UNL     1       7.733   5.667  14.548  0.00  0.00    +0.000 NA
BRANCH  23  26
ATOM     26  C   UNL     1       5.997   3.173  12.653  0.00  0.00    +0.000 C 
BRANCH  26  27
ATOM     27  O   UNL     1       4.714   3.559  12.165  0.00  0.00    +0.000 OA
ATOM     28  H   UNL     1       4.784   3.534  11.193  0.00  0.00    +0.000 HD
ENDBRANCH  26  27
ENDBRANCH  23  26
ENDBRANCH   6  21
TORSDOF 5
ENDMDL
MODEL 2
REMARK VINA RESULT:      -8.5      1.951      2.324
REMARK  Name = 
REMARK  5 active torsions:
REMARK  status: ('A' for Active; 'I' for Inactive)
REMARK    1  A    between atoms: C_2  and  C_3
REMARK    2  A    between atoms: C_6  and  C_7
REMARK    3  A    between atoms: C_17  and  N_18
REMARK    4  A    between atoms: C_20  and  C_21
REMARK    5  A    between atoms: C_21  and  O_22
REMARK                            x       y       z     vdW  Elec       q    Type
REMARK                         _______ _______ _______ _____ _____    ______ ____
ROOT
ATOM      1  O   UNL     1       1.393   4.803  18.070  0.00  0.00    +0.000 OA
ATOM      2  C   UNL     1       2.321   5.604  18.212  0.00  0.00    +0.000 C 
ATOM      3  N   UNL     1       3.634   5.300  17.813  0.00  0.00    +0.000 N 
ATOM      4  C   UNL     1       3.845   4.032  17.125  0.00  0.00    +0.000 C 
ATOM      5  C   UNL     1       5.249   3.488  17.372  0.00  0.00    +0.000 C 
ATOM      6  C   UNL     1       6.349   4.527  17.125  0.00  0.00    +0.000 C 
ATOM      7  C   UNL     1       6.033   5.857  17.814  0.00  0.00    +0.000 C 
ATOM      8  C   UNL     1       4.622   6.337  17.513  0.00  0.00    +0.000 C 
ENDROOT
BRANCH   2   9
ATOM      9  C   UNL     1       2.070   6.938  18.770  0.00  0.00    +0.000 A 
ATOM     10  C   UNL     1       2.191   7.280  20.100  0.00  0.00    +0.000 A 
ATOM     11  N   UNL     1       1.749   8.568  20.184  0.00  0.00    +0.000 N 
ATOM     12  C   UNL     1       1.407   9.000  18.923  0.00  0.00    +0.000 A 
ATOM     13  N   UNL     1       1.636   8.041  18.048  0.00  0.00    +0.000 NA
ATOM     14  H   UNL     1       1.621   9.099  21.034  0.00  0.00    +0.000 HD
BRANCH  12  15
ATOM     15  C   UNL     1       0.807  10.306  18.657  0.00  0.00    +0.000 A 
ATOM     16  C   UNL     1       1.572  11.477  18.733  0.00  0.00    +0.000 A 
ATOM     17  C   UNL     1       0.986  12.725  18.528  0.00  0.00    +0.000 A 
ATOM     18  C   UNL     1      -0.374  12.821  18.243  0.00  0.00    +0.000 A 
ATOM     19  C   UNL     1      -1.145  11.664  18.150  0.00  0.00    +0.000 A 
ATOM     20  C   UNL     1      -0.558  10.412  18.349  0.00  0.00    +0.000 A 
ENDBRANCH  12  15
ENDBRANCH   2   9
BRANCH   6  21
ATOM     21  N   UNL     1       6.668   4.707  15.716  0.00  0.00    +0.000 N 
ATOM     22  C   UNL     1       6.234   3.953  14.667  0.00  0.00    +0.000 A 
ATOM     23  C   UNL     1       6.911   4.466  13.583  0.00  0.00    +0.000 A 
ATOM     24  N   UNL     1       7.709   5.497  14.001  0.00  0.00    +0.000 NA
ATOM     25  N   UNL     1       7.540   5.644  15.306  0.00  0.00    +0.000 NA
BRANCH  23  26
ATOM     26  C   UNL     1       6.909   4.041  12.166  0.00  0.00    +0.000 C 
BRANCH  26  27
ATOM     27  O   UNL     1       6.554   2.667  12.032  0.00  0.00    +0.000 OA
ATOM     28  H   UNL     1       7.349   2.223  11.683  0.00  0.00    +0.000 HD
ENDBRANCH  26  27
ENDBRANCH  23  26
ENDBRANCH   6  21
TORSDOF 5
ENDMDL
MODEL 3
REMARK VINA RESULT:      -8.1      4.167      7.190
REMARK  Name = 
REMARK  5 active torsions:
REMARK  status: ('A' for Active; 'I' for Inactive)
REMARK    1  A    between atoms: C_2  and  C_3
REMARK    2  A    between atoms: C_6  and  C_7
REMARK    3  A    between atoms: C_17  and  N_18
REMARK    4  A    between atoms: C_20  and  C_21
REMARK    5  A    between atoms: C_21  and  O_22
REMARK                            x       y       z     vdW  Elec       q    Type
REMARK                         _______ _______ _______ _____ _____    ______ ____
ROOT
ATOM      1  O   UNL     1       7.694   4.313  16.526  0.00  0.00    +0.000 OA
ATOM      2  C   UNL     1       7.014   5.143  17.135  0.00  0.00    +0.000 C 
ATOM      3  N   UNL     1       5.616   5.030  17.234  0.00  0.00    +0.000 N 
ATOM      4  C   UNL     1       5.002   3.831  16.674  0.00  0.00    +0.000 C 
ATOM      5  C   UNL     1       3.579   4.104  16.194  0.00  0.00    +0.000 C 
ATOM      6  C   UNL     1       2.718   4.820  17.242  0.00  0.00    +0.000 C 
ATOM      7  C   UNL     1       3.447   6.024  17.843  0.00  0.00    +0.000 C 
ATOM      8  C   UNL     1       4.852   5.672  18.304  0.00  0.00    +0.000 C 
ENDROOT
BRANCH   2   9
ATOM      9  C   UNL     1       7.658   6.267  17.824  0.00  0.00    +0.000 A 
ATOM     10  C   UNL     1       8.195   6.220  19.092  0.00  0.00    +0.000 A 
ATOM     11  N   UNL     1       8.570   7.501  19.374  0.00  0.00    +0.000 N 
ATOM     12  C   UNL     1       8.298   8.291  18.280  0.00  0.00    +0.000 A 
ATOM     13  N   UNL     1       7.786   7.552  17.316  0.00  0.00    +0.000 NA
ATOM     14  H   UNL     1       8.922   7.837  20.259  0.00  0.00    +0.000 HD
BRANCH  12  15
ATOM     15  C   UNL     1       8.491   9.739  18.268  0.00  0.00    +0.000 A 
ATOM     16  C   UNL     1       7.745  10.557  17.408  0.00  0.00    +0.000 A 
ATOM     17  C   UNL     1       7.967  11.932  17.363  0.00  0.00    +0.000 A 
ATOM     18  C   UNL     1       8.935  12.512  18.179  0.00  0.00    +0.000 A 
ATOM     19  C   UNL     1       9.674  11.715  19.050  0.00  0.00    +0.000 A 
ATOM     20  C   UNL     1       9.449  10.337  19.101  0.00  0.00    +0.000 A 
ENDBRANCH  12  15
ENDBRANCH   2   9
BRANCH   6  21
ATOM     21  N   UNL     1       2.201   3.929  18.271  0.00  0.00    +0.000 N 
ATOM     22  C   UNL     1       2.066   4.192  19.602  0.00  0.00    +0.000 A 
ATOM     23  C   UNL     1       1.647   2.994  20.138  0.00  0.00    +0.000 A 
ATOM     24  N   UNL     1       1.536   2.069  19.135  0.00  0.00    +0.000 NA
ATOM     25  N   UNL     1       1.864   2.658  17.996  0.00  0.00    +0.000 NA
BRANCH  23  26
ATOM     26  C   UNL     1       1.375   2.620  21.543  0.00  0.00    +0.000 C 
BRANCH  26  27
ATOM     27  O   UNL     1       2.486   2.911  22.388  0.00  0.00    +0.000 OA
ATOM     28  H   UNL     1       2.112   3.353  23.172  0.00  0.00    +0.000 HD
ENDBRANCH  26  27
ENDBRANCH  23  26
ENDBRANCH   6  21
TORSDOF 5
ENDMDL
MODEL 4
REMARK VINA RESULT:      -8.1      2.124      9.080
REMARK  Name = 
REMARK  5 active torsions:
REMARK  status: ('A' for Active; 'I' for Inactive)
REMARK    1  A    between atoms: C_2  and  C_3
REMARK    2  A    between atoms: C_6  and  C_7
REMARK    3  A    between atoms: C_17  and  N_18
REMARK    4  A    between atoms: C_20  and  C_21
REMARK    5  A    between atoms: C_21  and  O_22
REMARK                            x       y       z     vdW  Elec       q    Type
REMARK                         _______ _______ _______ _____ _____    ______ ____
ROOT
ATOM      1  O   UNL     1       7.322   4.447  18.445  0.00  0.00    +0.000 OA
ATOM      2  C   UNL     1       6.355   4.611  17.697  0.00  0.00    +0.000 C 
ATOM      3  N   UNL     1       5.063   4.860  18.194  0.00  0.00    +0.000 N 
ATOM      4  C   UNL     1       4.923   5.021  19.637  0.00  0.00    +0.000 C 
ATOM      5  C   UNL     1       3.544   4.580  20.117  0.00  0.00    +0.000 C 
ATOM      6  C   UNL     1       2.398   5.194  19.302  0.00  0.00    +0.000 C 
ATOM      7  C   UNL     1       2.641   5.057  17.797  0.00  0.00    +0.000 C 
ATOM      8  C   UNL     1       4.031   5.523  17.396  0.00  0.00    +0.000 C 
ENDROOT
BRANCH   2   9
ATOM      9  C   UNL     1       6.534   4.597  16.241  0.00  0.00    +0.000 A 
ATOM     10  C   UNL     1       7.199   5.559  15.512  0.00  0.00    +0.000 A 
ATOM     11  N   UNL     1       7.018   5.212  14.205  0.00  0.00    +0.000 N 
ATOM     12  C   UNL     1       6.291   4.044  14.155  0.00  0.00    +0.000 A 
ATOM     13  N   UNL     1       6.027   3.634  15.380  0.00  0.00    +0.000 NA
ATOM     14  H   UNL     1       7.302   5.753  13.400  0.00  0.00    +0.000 HD
BRANCH  12  15
ATOM     15  C   UNL     1       5.836   3.435  12.908  0.00  0.00    +0.000 A 
ATOM     16  C   UNL     1       4.582   3.752  12.368  0.00  0.00    +0.000 A 
ATOM     17  C   UNL     1       4.130   3.131  11.205  0.00  0.00    +0.000 A 
ATOM     18  C   UNL     1       4.924   2.185  10.562  0.00  0.00    +0.000 A 
ATOM     19  C   UNL     1       6.179   1.870  11.078  0.00  0.00    +0.000 A 
ATOM     20  C   UNL     1       6.637   2.495  12.241  0.00  0.00    +0.000 A 
ENDBRANCH  12  15
ENDBRANCH   2   9
BRANCH   6  21
ATOM     21  N   UNL     1       2.091   6.566  19.681  0.00  0.00    +0.000 N 
ATOM     22  C   UNL     1       1.591   7.003  20.871  0.00  0.00    +0.000 A 
ATOM     23  C   UNL     1       1.378   8.349  20.669  0.00  0.00    +0.000 A 
ATOM     24  N   UNL     1       1.755   8.676  19.395  0.00  0.00    +0.000 NA
ATOM     25  N   UNL     1       2.204   7.579  18.806  0.00  0.00    +0.000 NA
BRANCH  23  26
ATOM     26  C   UNL     1       0.801   9.371  21.571  0.00  0.00    +0.000 C 
BRANCH  26  27
ATOM     27  O   UNL     1       1.647   9.618  22.692  0.00  0.00    +0.000 OA
ATOM     28  H   UNL     1       2.213   8.828  22.774  0.00  0.00    +0.000 HD
ENDBRANCH  26  27
ENDBRANCH  23  26
ENDBRANCH   6  21
TORSDOF 5
ENDMDL
MODEL 5
REMARK VINA RESULT:      -8.0      0.930      1.397
REMARK  Name = 
REMARK  5 active torsions:
REMARK  status: ('A' for Active; 'I' for Inactive)
REMARK    1  A    between atoms: C_2  and  C_3
REMARK    2  A    between atoms: C_6  and  C_7
REMARK    3  A    between atoms: C_17  and  N_18
REMARK    4  A    between atoms: C_20  and  C_21
REMARK    5  A    between atoms: C_21  and  O_22
REMARK                            x       y       z     vdW  Elec       q    Type
REMARK                         _______ _______ _______ _____ _____    ______ ____
ROOT
ATOM      1  O   UNL     1       3.016   4.912  20.314  0.00  0.00    +0.000 OA
ATOM      2  C   UNL     1       3.268   5.847  19.550  0.00  0.00    +0.000 C 
ATOM      3  N   UNL     1       4.319   5.785  18.618  0.00  0.00    +0.000 N 
ATOM      4  C   UNL     1       5.043   4.523  18.514  0.00  0.00    +0.000 C 
ATOM      5  C   UNL     1       6.489   4.743  18.079  0.00  0.00    +0.000 C 
ATOM      6  C   UNL     1       6.616   5.645  16.845  0.00  0.00    +0.000 C 
ATOM      7  C   UNL     1       5.776   6.917  16.988  0.00  0.00    +0.000 C 
ATOM      8  C   UNL     1       4.348   6.616  17.414  0.00  0.00    +0.000 C 
ENDROOT
BRANCH   2   9
ATOM      9  C   UNL     1       2.437   7.057  19.560  0.00  0.00    +0.000 A 
ATOM     10  C   UNL     1       2.329   7.956  18.522  0.00  0.00    +0.000 A 
ATOM     11  N   UNL     1       1.559   8.974  19.003  0.00  0.00    +0.000 N 
ATOM     12  C   UNL     1       1.182   8.671  20.292  0.00  0.00    +0.000 A 
ATOM     13  N   UNL     1       1.668   7.493  20.630  0.00  0.00    +0.000 NA
ATOM     14  H   UNL     1       1.355   9.842  18.529  0.00  0.00    +0.000 HD
BRANCH  12  15
ATOM     15  C   UNL     1       0.425   9.585  21.143  0.00  0.00    +0.000 A 
ATOM     16  C   UNL     1       0.215  10.917  20.761  0.00  0.00    +0.000 A 
ATOM     17  C   UNL     1      -0.464  11.800  21.598  0.00  0.00    +0.000 A 
ATOM     18  C   UNL     1      -0.946  11.366  22.830  0.00  0.00    +0.000 A 
ATOM     19  C   UNL     1      -0.759  10.041  23.219  0.00  0.00    +0.000 A 
ATOM     20  C   UNL     1      -0.083   9.153  22.378  0.00  0.00    +0.000 A 
ENDBRANCH  12  15
ENDBRANCH   2   9
BRANCH   6  21
ATOM     21  N   UNL     1       6.346   4.952  15.594  0.00  0.00    +0.000 N 
ATOM     22  C   UNL     1       7.217   4.725  14.570  0.00  0.00    +0.000 A 
ATOM     23  C   UNL     1       6.439   4.144  13.593  0.00  0.00    +0.000 A 
ATOM     24  N   UNL     1       5.154   4.034  14.050  0.00  0.00    +0.000 NA
ATOM     25  N   UNL     1       5.114   4.519  15.281  0.00  0.00    +0.000 NA
BRANCH  23  26
ATOM     26  C   UNL     1       6.792   3.711  12.222  0.00  0.00    +0.000 C 
BRANCH  26  27
ATOM     27  O   UNL     1       6.622   2.305  12.058  0.00  0.00    +0.000 OA
ATOM     28  H   UNL     1       7.522   1.943  11.952  0.00  0.00    +0.000 HD
ENDBRANCH  26  27
ENDBRANCH  23  26
ENDBRANCH   6  21
TORSDOF 5
ENDMDL
MODEL 6
REMARK VINA RESULT:      -8.0      4.057      7.207
REMARK  Name = 
REMARK  5 active torsions:
REMARK  status: ('A' for Active; 'I' for Inactive)
REMARK    1  A    between atoms: C_2  and  C_3
REMARK    2  A    between atoms: C_6  and  C_7
REMARK    3  A    between atoms: C_17  and  N_18
REMARK    4  A    between atoms: C_20  and  C_21
REMARK    5  A    between atoms: C_21  and  O_22
REMARK                            x       y       z     vdW  Elec       q    Type
REMARK                         _______ _______ _______ _____ _____    ______ ____
ROOT
ATOM      1  O   UNL     1       7.277   4.345  16.334  0.00  0.00    +0.000 OA
ATOM      2  C   UNL     1       6.700   5.162  17.056  0.00  0.00    +0.000 C 
ATOM      3  N   UNL     1       5.312   5.116  17.270  0.00  0.00    +0.000 N 
ATOM      4  C   UNL     1       4.584   3.995  16.685  0.00  0.00    +0.000 C 
ATOM      5  C   UNL     1       3.144   4.376  16.352  0.00  0.00    +0.000 C 
ATOM      6  C   UNL     1       2.417   5.058  17.518  0.00  0.00    +0.000 C 
ATOM      7  C   UNL     1       3.263   6.175  18.133  0.00  0.00    +0.000 C 
ATOM      8  C   UNL     1       4.679   5.718  18.444  0.00  0.00    +0.000 C 
ENDROOT
BRANCH   2   9
ATOM      9  C   UNL     1       7.464   6.198  17.760  0.00  0.00    +0.000 A 
ATOM     10  C   UNL     1       8.073   6.041  18.987  0.00  0.00    +0.000 A 
ATOM     11  N   UNL     1       8.556   7.275  19.311  0.00  0.00    +0.000 N 
ATOM     12  C   UNL     1       8.276   8.144  18.281  0.00  0.00    +0.000 A 
ATOM     13  N   UNL     1       7.654   7.498  17.314  0.00  0.00    +0.000 NA
ATOM     14  H   UNL     1       8.984   7.536  20.188  0.00  0.00    +0.000 HD
BRANCH  12  15
ATOM     15  C   UNL     1       8.571   9.574  18.333  0.00  0.00    +0.000 A 
ATOM     16  C   UNL     1       9.441  10.094  19.301  0.00  0.00    +0.000 A 
ATOM     17  C   UNL     1       9.681  11.464  19.380  0.00  0.00    +0.000 A 
ATOM     18  C   UNL     1       9.057  12.336  18.492  0.00  0.00    +0.000 A 
ATOM     19  C   UNL     1       8.201  11.834  17.514  0.00  0.00    +0.000 A 
ATOM     20  C   UNL     1       7.964  10.459  17.430  0.00  0.00    +0.000 A 
ENDBRANCH  12  15
ENDBRANCH   2   9
BRANCH   6  21
ATOM     21  N   UNL     1       1.937   4.123  18.525  0.00  0.00    +0.000 N 
ATOM     22  C   UNL     1       2.248   4.104  19.852  0.00  0.00    +0.000 A 
ATOM     23  C   UNL     1       1.631   2.967  20.324  0.00  0.00    +0.000 A 
ATOM     24  N   UNL     1       0.975   2.352  19.292  0.00  0.00    +0.000 NA
ATOM     25  N   UNL     1       1.158   3.078  18.200  0.00  0.00    +0.000 NA
BRANCH  23  26
ATOM     26  C   UNL     1       1.636   2.369  21.678  0.00  0.00    +0.000 C 
BRANCH  26  27
ATOM     27  O   UNL     1       2.934   2.414  22.266  0.00  0.00    +0.000 OA
ATOM     28  H   UNL     1       3.190   3.354  22.265  0.00  0.00    +0.000 HD
ENDBRANCH  26  27
ENDBRANCH  23  26
ENDBRANCH   6  21
TORSDOF 5
ENDMDL
MODEL 7
REMARK VINA RESULT:      -7.9      1.407      2.119
REMARK  Name = 
REMARK  5 active torsions:
REMARK  status: ('A' for Active; 'I' for Inactive)
REMARK    1  A    between atoms: C_2  and  C_3
REMARK    2  A    between atoms: C_6  and  C_7
REMARK    3  A    between atoms: C_17  and  N_18
REMARK    4  A    between atoms: C_20  and  C_21
REMARK    5  A    between atoms: C_21  and  O_22
REMARK                            x       y       z     vdW  Elec       q    Type
REMARK                         _______ _______ _______ _____ _____    ______ ____
ROOT
ATOM      1  O   UNL     1       4.850   3.063  19.889  0.00  0.00    +0.000 OA
ATOM      2  C   UNL     1       4.595   4.135  19.335  0.00  0.00    +0.000 C 
ATOM      3  N   UNL     1       5.386   4.639  18.288  0.00  0.00    +0.000 N 
ATOM      4  C   UNL     1       6.472   3.793  17.807  0.00  0.00    +0.000 C 
ATOM      5  C   UNL     1       7.627   4.624  17.255  0.00  0.00    +0.000 C 
ATOM      6  C   UNL     1       7.173   5.694  16.254  0.00  0.00    +0.000 C 
ATOM      7  C   UNL     1       5.986   6.498  16.789  0.00  0.00    +0.000 C 
ATOM      8  C   UNL     1       4.875   5.602  17.312  0.00  0.00    +0.000 C 
ENDROOT
BRANCH   2   9
ATOM      9  C   UNL     1       3.410   4.908  19.726  0.00  0.00    +0.000 A 
ATOM     10  C   UNL     1       2.176   4.374  20.026  0.00  0.00    +0.000 A 
ATOM     11  N   UNL     1       1.353   5.447  20.213  0.00  0.00    +0.000 N 
ATOM     12  C   UNL     1       2.091   6.599  20.066  0.00  0.00    +0.000 A 
ATOM     13  N   UNL     1       3.348   6.292  19.814  0.00  0.00    +0.000 NA
ATOM     14  H   UNL     1       0.355   5.413  20.362  0.00  0.00    +0.000 HD
BRANCH  12  15
ATOM     15  C   UNL     1       1.507   7.938  20.110  0.00  0.00    +0.000 A 
ATOM     16  C   UNL     1       1.583   8.793  19.002  0.00  0.00    +0.000 A 
ATOM     17  C   UNL     1       1.069  10.086  19.065  0.00  0.00    +0.000 A 
ATOM     18  C   UNL     1       0.469  10.545  20.235  0.00  0.00    +0.000 A 
ATOM     19  C   UNL     1       0.373   9.703  21.340  0.00  0.00    +0.000 A 
ATOM     20  C   UNL     1       0.882   8.403  21.277  0.00  0.00    +0.000 A 
ENDBRANCH  12  15
ENDBRANCH   2   9
BRANCH   6  21
ATOM     21  N   UNL     1       6.917   5.167  14.922  0.00  0.00    +0.000 N 
ATOM     22  C   UNL     1       5.963   4.263  14.559  0.00  0.00    +0.000 A 
ATOM     23  C   UNL     1       6.222   4.020  13.228  0.00  0.00    +0.000 A 
ATOM     24  N   UNL     1       7.295   4.774  12.836  0.00  0.00    +0.000 NA
ATOM     25  N   UNL     1       7.702   5.482  13.878  0.00  0.00    +0.000 NA
BRANCH  23  26
ATOM     26  C   UNL     1       5.564   3.094  12.281  0.00  0.00    +0.000 C 
BRANCH  26  27
ATOM     27  O   UNL     1       6.478   2.120  11.780  0.00  0.00    +0.000 OA
ATOM     28  H   UNL     1       5.930   1.359  11.513  0.00  0.00    +0.000 HD
ENDBRANCH  26  27
ENDBRANCH  23  26
ENDBRANCH   6  21
TORSDOF 5
ENDMDL
MODEL 8
REMARK VINA RESULT:      -7.8      2.586      8.884
REMARK  Name = 
REMARK  5 active torsions:
REMARK  status: ('A' for Active; 'I' for Inactive)
REMARK    1  A    between atoms: C_2  and  C_3
REMARK    2  A    between atoms: C_6  and  C_7
REMARK    3  A    between atoms: C_17  and  N_18
REMARK    4  A    between atoms: C_20  and  C_21
REMARK    5  A    between atoms: C_21  and  O_22
REMARK                            x       y       z     vdW  Elec       q    Type
REMARK                         _______ _______ _______ _____ _____    ______ ____
ROOT
ATOM      1  O   UNL     1       7.732   4.925  18.011  0.00  0.00    +0.000 OA
ATOM      2  C   UNL     1       6.716   4.850  17.315  0.00  0.00    +0.000 C 
ATOM      3  N   UNL     1       5.428   4.963  17.865  0.00  0.00    +0.000 N 
ATOM      4  C   UNL     1       5.334   5.279  19.286  0.00  0.00    +0.000 C 
ATOM      5  C   UNL     1       4.065   4.700  19.905  0.00  0.00    +0.000 C 
ATOM      6  C   UNL     1       2.800   5.031  19.103  0.00  0.00    +0.000 C 
ATOM      7  C   UNL     1       2.988   4.747  17.611  0.00  0.00    +0.000 C 
ATOM      8  C   UNL     1       4.267   5.361  17.067  0.00  0.00    +0.000 C 
ENDROOT
BRANCH   2   9
ATOM      9  C   UNL     1       6.825   4.682  15.862  0.00  0.00    +0.000 A 
ATOM     10  C   UNL     1       7.576   5.477  15.023  0.00  0.00    +0.000 A 
ATOM     11  N   UNL     1       7.291   5.043  13.761  0.00  0.00    +0.000 N 
ATOM     12  C   UNL     1       6.417   3.984  13.846  0.00  0.00    +0.000 A 
ATOM     13  N   UNL     1       6.158   3.723  15.112  0.00  0.00    +0.000 NA
ATOM     14  H   UNL     1       7.606   5.467  12.901  0.00  0.00    +0.000 HD
BRANCH  12  15
ATOM     15  C   UNL     1       5.828   3.333  12.678  0.00  0.00    +0.000 A 
ATOM     16  C   UNL     1       4.606   3.770  12.150  0.00  0.00    +0.000 A 
ATOM     17  C   UNL     1       4.024   3.115  11.067  0.00  0.00    +0.000 A 
ATOM     18  C   UNL     1       4.654   2.015  10.493  0.00  0.00    +0.000 A 
ATOM     19  C   UNL     1       5.878   1.577  10.996  0.00  0.00    +0.000 A 
ATOM     20  C   UNL     1       6.466   2.236  12.079  0.00  0.00    +0.000 A 
ENDBRANCH  12  15
ENDBRANCH   2   9
BRANCH   6  21
ATOM     21  N   UNL     1       2.302   6.379  19.341  0.00  0.00    +0.000 N 
ATOM     22  C   UNL     1       2.271   7.417  18.458  0.00  0.00    +0.000 A 
ATOM     23  C   UNL     1       1.821   8.480  19.210  0.00  0.00    +0.000 A 
ATOM     24  N   UNL     1       1.592   8.058  20.491  0.00  0.00    +0.000 NA
ATOM     25  N   UNL     1       1.876   6.767  20.555  0.00  0.00    +0.000 NA
BRANCH  23  26
ATOM     26  C   UNL     1       1.621   9.898  18.835  0.00  0.00    +0.000 C 
BRANCH  26  27
ATOM     27  O   UNL     1       1.709  10.084  17.424  0.00  0.00    +0.000 OA
ATOM     28  H   UNL     1       1.417  11.000  17.262  0.00  0.00    +0.000 HD
ENDBRANCH  26  27
ENDBRANCH  23  26
ENDBRANCH   6  21
TORSDOF 5
ENDMDL
MODEL 9
REMARK VINA RESULT:      -7.8      3.027      8.604
REMARK  Name = 
REMARK  5 active torsions:
REMARK  status: ('A' for Active; 'I' for Inactive)
REMARK    1  A    between atoms: C_2  and  C_3
REMARK    2  A    between atoms: C_6  and  C_7
REMARK    3  A    between atoms: C_17  and  N_18
REMARK    4  A    between atoms: C_20  and  C_21
REMARK    5  A    between atoms: C_21  and  O_22
REMARK                            x       y       z     vdW  Elec       q    Type
REMARK                         _______ _______ _______ _____ _____    ______ ____
ROOT
ATOM      1  O   UNL     1       2.027   6.292  21.282  0.00  0.00    +0.000 OA
ATOM      2  C   UNL     1       1.960   6.782  20.152  0.00  0.00    +0.000 C 
ATOM      3  N   UNL     1       1.435   8.066  19.927  0.00  0.00    +0.000 N 
ATOM      4  C   UNL     1       1.062   8.849  21.100  0.00  0.00    +0.000 C 
ATOM      5  C   UNL     1      -0.077   9.816  20.788  0.00  0.00    +0.000 C 
ATOM      6  C   UNL     1       0.173  10.653  19.528  0.00  0.00    +0.000 C 
ATOM      7  C   UNL     1       0.631   9.783  18.355  0.00  0.00    +0.000 C 
ATOM      8  C   UNL     1       1.771   8.854  18.740  0.00  0.00    +0.000 C 
ENDROOT
BRANCH   2   9
ATOM      9  C   UNL     1       2.477   6.045  18.993  0.00  0.00    +0.000 A 
ATOM     10  C   UNL     1       1.869   4.956  18.407  0.00  0.00    +0.000 A 
ATOM     11  N   UNL     1       2.745   4.521  17.456  0.00  0.00    +0.000 N 
ATOM     12  C   UNL     1       3.838   5.357  17.447  0.00  0.00    +0.000 A 
ATOM     13  N   UNL     1       3.673   6.312  18.341  0.00  0.00    +0.000 NA
ATOM     14  H   UNL     1       2.650   3.685  16.897  0.00  0.00    +0.000 HD
BRANCH  12  15
ATOM     15  C   UNL     1       5.015   5.131  16.611  0.00  0.00    +0.000 A 
ATOM     16  C   UNL     1       6.196   5.855  16.820  0.00  0.00    +0.000 A 
ATOM     17  C   UNL     1       7.300   5.673  15.990  0.00  0.00    +0.000 A 
ATOM     18  C   UNL     1       7.241   4.763  14.937  0.00  0.00    +0.000 A 
ATOM     19  C   UNL     1       6.079   4.025  14.724  0.00  0.00    +0.000 A 
ATOM     20  C   UNL     1       4.974   4.202  15.560  0.00  0.00    +0.000 A 
ENDBRANCH  12  15
ENDBRANCH   2   9
BRANCH   6  21
ATOM     21  N   UNL     1       1.068  11.780  19.751  0.00  0.00    +0.000 N 
ATOM     22  C   UNL     1       1.738  12.503  18.809  0.00  0.00    +0.000 A 
ATOM     23  C   UNL     1       2.524  13.362  19.545  0.00  0.00    +0.000 A 
ATOM     24  N   UNL     1       2.302  13.141  20.878  0.00  0.00    +0.000 NA
ATOM     25  N   UNL     1       1.399  12.181  20.990  0.00  0.00    +0.000 NA
BRANCH  23  26
ATOM     26  C   UNL     1       3.516  14.366  19.102  0.00  0.00    +0.000 C 
BRANCH  26  27
ATOM     27  O   UNL     1       4.102  14.007  17.852  0.00  0.00    +0.000 OA
ATOM     28  H   UNL     1       4.758  13.317  18.058  0.00  0.00    +0.000 HD
ENDBRANCH  26  27
ENDBRANCH  23  26
ENDBRANCH   6  21
TORSDOF 5
ENDMDL
