MODEL 1
REMARK VINA RESULT:      -7.2      0.000      0.000
REMARK  Name = 
REMARK  11 active torsions:
REMARK  status: ('A' for Active; 'I' for Inactive)
REMARK    1  A    between atoms: C_1  and  C_2
REMARK    2  A    between atoms: C_2  and  O_3
REMARK    3  A    between atoms: O_3  and  C_4
REMARK    4  A    between atoms: C_4  and  C_6
REMARK    5  A    between atoms: C_7  and  C_8
REMARK    6  A    between atoms: C_10  and  C_11
REMARK    7  A    between atoms: C_12  and  C_13
REMARK    8  A    between atoms: C_13  and  O_15
REMARK    9  A    between atoms: O_15  and  C_16
REMARK   10  A    between atoms: C_17  and  C_18
REMARK   11  A    between atoms: C_22  and  N_23
REMARK                            x       y       z     vdW  Elec       q    Type
REMARK                         _______ _______ _______ _____ _____    ______ ____
ROOT
ATOM      1  C   UNL     1       3.038   4.319  19.516  0.00  0.00    +0.000 C 
ATOM      2  C   UNL     1       2.447   4.522  20.720  0.00  0.00    +0.000 C 
ATOM      3  C   UNL     1       2.370   3.560  21.886  0.00  0.00    +0.000 C 
ATOM      4  N   UNL     1       1.835   5.735  20.982  0.00  0.00    +0.000 N 
ATOM      5  C   UNL     1       1.904   6.853  20.184  0.00  0.00    +0.000 C 
ATOM      6  C   UNL     1       1.360   8.122  20.798  0.00  0.00    +0.000 C 
ATOM      7  C   UNL     1       2.455   6.768  18.951  0.00  0.00    +0.000 C 
ATOM      8  C   UNL     1       3.006   5.420  18.435  0.00  0.00    +0.000 C 
ATOM      9  H   UNL     1       1.461   5.860  21.923  0.00  0.00    +0.000 HD
ENDROOT
BRANCH   8  10
ATOM     10  C   UNL     1       4.364   5.625  17.749  0.00  0.00    +0.000 A 
ATOM     11  C   UNL     1       4.545   5.335  16.390  0.00  0.00    +0.000 A 
ATOM     12  C   UNL     1       5.825   5.336  15.830  0.00  0.00    +0.000 A 
ATOM     13  C   UNL     1       6.939   5.629  16.620  0.00  0.00    +0.000 A 
ATOM     14  C   UNL     1       6.762   5.957  17.969  0.00  0.00    +0.000 A 
ATOM     15  C   UNL     1       5.482   5.980  18.529  0.00  0.00    +0.000 A 
BRANCH  14  16
ATOM     16  N   UNL     1       7.932   6.204  18.821  0.00  0.00    +0.000 N 
ATOM     17  O   UNL     1       8.471   7.320  18.753  0.00  0.00    +0.000 OA
ATOM     18  O   UNL     1       8.323   5.280  19.548  0.00  0.00    +0.000 OA
ENDBRANCH  14  16
ENDBRANCH   8  10
BRANCH   1  19
ATOM     19  C   UNL     1       3.738   3.037  19.228  0.00  0.00    +0.000 C 
ATOM     20  O   UNL     1       4.789   2.696  19.750  0.00  0.00    +0.000 OA
BRANCH  19  21
ATOM     21  O   UNL     1       3.075   2.302  18.297  0.00  0.00    +0.000 OA
BRANCH  21  23
ATOM     22  C   UNL     1       0.646   2.249  18.646  0.00  0.00    +0.000 C 
ATOM     23  C   UNL     1       1.976   1.530  18.817  0.00  0.00    +0.000 C 
ENDBRANCH  21  23
ENDBRANCH  19  21
ENDBRANCH   1  19
BRANCH   7  24
ATOM     24  C   UNL     1       2.624   8.015  18.149  0.00  0.00    +0.000 C 
ATOM     25  O   UNL     1       3.694   8.587  17.999  0.00  0.00    +0.000 OA
BRANCH  24  26
ATOM     26  O   UNL     1       1.461   8.413  17.577  0.00  0.00    +0.000 OA
ATOM     27  C   UNL     1       1.099   9.762  17.899  0.00  0.00    +0.000 C 
ENDBRANCH  24  26
ENDBRANCH   7  24
TORSDOF 7
ENDMDL
MODEL 2
REMARK VINA RESULT:      -7.1      1.824      2.141
REMARK  Name = 
REMARK  11 active torsions:
REMARK  status: ('A' for Active; 'I' for Inactive)
REMARK    1  A    between atoms: C_1  and  C_2
REMARK    2  A    between atoms: C_2  and  O_3
REMARK    3  A    between atoms: O_3  and  C_4
REMARK    4  A    between atoms: C_4  and  C_6
REMARK    5  A    between atoms: C_7  and  C_8
REMARK    6  A    between atoms: C_10  and  C_11
REMARK    7  A    between atoms: C_12  and  C_13
REMARK    8  A    between atoms: C_13  and  O_15
REMARK    9  A    between atoms: O_15  and  C_16
REMARK   10  A    between atoms: C_17  and  C_18
REMARK   11  A    between atoms: C_22  and  N_23
REMARK                            x       y       z     vdW  Elec       q    Type
REMARK                         _______ _______ _______ _____ _____    ______ ____
ROOT
ATOM      1  C   UNL     1       3.186   3.780  19.712  0.00  0.00    +0.000 C 
ATOM      2  C   UNL     1       2.463   4.097  20.816  0.00  0.00    +0.000 C 
ATOM      3  C   UNL     1       2.165   3.218  22.010  0.00  0.00    +0.000 C 
ATOM      4  N   UNL     1       1.916   5.364  20.930  0.00  0.00    +0.000 N 
ATOM      5  C   UNL     1       2.171   6.423  20.089  0.00  0.00    +0.000 C 
ATOM      6  C   UNL     1       1.651   7.761  20.558  0.00  0.00    +0.000 C 
ATOM      7  C   UNL     1       2.867   6.223  18.946  0.00  0.00    +0.000 C 
ATOM      8  C   UNL     1       3.376   4.811  18.580  0.00  0.00    +0.000 C 
ATOM      9  H   UNL     1       1.436   5.573  21.805  0.00  0.00    +0.000 HD
ENDROOT
BRANCH   8  10
ATOM     10  C   UNL     1       4.822   4.880  18.070  0.00  0.00    +0.000 A 
ATOM     11  C   UNL     1       5.869   5.298  18.903  0.00  0.00    +0.000 A 
ATOM     12  C   UNL     1       7.138   5.546  18.374  0.00  0.00    +0.000 A 
ATOM     13  C   UNL     1       7.378   5.378  17.009  0.00  0.00    +0.000 A 
ATOM     14  C   UNL     1       6.348   4.924  16.177  0.00  0.00    +0.000 A 
ATOM     15  C   UNL     1       5.082   4.653  16.704  0.00  0.00    +0.000 A 
BRANCH  14  16
ATOM     16  N   UNL     1       6.573   4.806  14.731  0.00  0.00    +0.000 N 
ATOM     17  O   UNL     1       7.529   5.428  14.243  0.00  0.00    +0.000 OA
ATOM     18  O   UNL     1       5.786   4.104  14.080  0.00  0.00    +0.000 OA
ENDBRANCH  14  16
ENDBRANCH   8  10
BRANCH   1  19
ATOM     19  C   UNL     1       3.818   2.438  19.588  0.00  0.00    +0.000 C 
ATOM     20  O   UNL     1       4.865   2.118  20.132  0.00  0.00    +0.000 OA
BRANCH  19  21
ATOM     21  O   UNL     1       3.098   1.618  18.778  0.00  0.00    +0.000 OA
BRANCH  21  23
ATOM     22  C   UNL     1       0.688   2.062  18.651  0.00  0.00    +0.000 C 
ATOM     23  C   UNL     1       2.060   2.279  18.030  0.00  0.00    +0.000 C 
ENDBRANCH  21  23
ENDBRANCH  19  21
ENDBRANCH   1  19
BRANCH   7  24
ATOM     24  C   UNL     1       3.231   7.403  18.109  0.00  0.00    +0.000 C 
ATOM     25  O   UNL     1       4.375   7.815  17.976  0.00  0.00    +0.000 OA
BRANCH  24  26
ATOM     26  O   UNL     1       2.153   7.936  17.484  0.00  0.00    +0.000 OA
ATOM     27  C   UNL     1       2.019   9.349  17.681  0.00  0.00    +0.000 C 
ENDBRANCH  24  26
ENDBRANCH   7  24
TORSDOF 7
ENDMDL
MODEL 3
REMARK VINA RESULT:      -7.1      2.194      2.749
REMARK  Name = 
REMARK  11 active torsions:
REMARK  status: ('A' for Active; 'I' for Inactive)
REMARK    1  A    between atoms: C_1  and  C_2
REMARK    2  A    between atoms: C_2  and  O_3
REMARK    3  A    between atoms: O_3  and  C_4
REMARK    4  A    between atoms: C_4  and  C_6
REMARK    5  A    between atoms: C_7  and  C_8
REMARK    6  A    between atoms: C_10  and  C_11
REMARK    7  A    between atoms: C_12  and  C_13
REMARK    8  A    between atoms: C_13  and  O_15
REMARK    9  A    between atoms: O_15  and  C_16
REMARK   10  A    between atoms: C_17  and  C_18
REMARK   11  A    between atoms: C_22  and  N_23
REMARK                            x       y       z     vdW  Elec       q    Type
REMARK                         _______ _______ _______ _____ _____    ______ ____
ROOT
ATOM      1  C   UNL     1       3.274   3.363  19.625  0.00  0.00    +0.000 C 
ATOM      2  C   UNL     1       2.528   3.602  20.732  0.00  0.00    +0.000 C 
ATOM      3  C   UNL     1       2.256   2.660  21.885  0.00  0.00    +0.000 C 
ATOM      4  N   UNL     1       1.926   4.838  20.894  0.00  0.00    +0.000 N 
ATOM      5  C   UNL     1       2.143   5.942  20.103  0.00  0.00    +0.000 C 
ATOM      6  C   UNL     1       1.562   7.236  20.623  0.00  0.00    +0.000 C 
ATOM      7  C   UNL     1       2.858   5.821  18.960  0.00  0.00    +0.000 C 
ATOM      8  C   UNL     1       3.430   4.449  18.539  0.00  0.00    +0.000 C 
ATOM      9  H   UNL     1       1.429   4.988  21.773  0.00  0.00    +0.000 HD
ENDROOT
BRANCH   8  10
ATOM     10  C   UNL     1       4.877   4.602  18.049  0.00  0.00    +0.000 A 
ATOM     11  C   UNL     1       5.898   5.021  18.913  0.00  0.00    +0.000 A 
ATOM     12  C   UNL     1       7.161   5.346  18.410  0.00  0.00    +0.000 A 
ATOM     13  C   UNL     1       7.419   5.254  17.041  0.00  0.00    +0.000 A 
ATOM     14  C   UNL     1       6.416   4.799  16.177  0.00  0.00    +0.000 A 
ATOM     15  C   UNL     1       5.158   4.452  16.677  0.00  0.00    +0.000 A 
BRANCH  14  16
ATOM     16  N   UNL     1       6.658   4.760  14.730  0.00  0.00    +0.000 N 
ATOM     17  O   UNL     1       7.609   5.421  14.286  0.00  0.00    +0.000 OA
ATOM     18  O   UNL     1       5.890   4.080  14.034  0.00  0.00    +0.000 OA
ENDBRANCH  14  16
ENDBRANCH   8  10
BRANCH   1  19
ATOM     19  C   UNL     1       3.964   2.056  19.450  0.00  0.00    +0.000 C 
ATOM     20  O   UNL     1       3.650   1.219  18.616  0.00  0.00    +0.000 OA
BRANCH  19  21
ATOM     21  O   UNL     1       4.974   1.900  20.344  0.00  0.00    +0.000 OA
BRANCH  21  23
ATOM     22  C   UNL     1       5.942   0.389  22.019  0.00  0.00    +0.000 C 
ATOM     23  C   UNL     1       5.298   0.530  20.647  0.00  0.00    +0.000 C 
ENDBRANCH  21  23
ENDBRANCH  19  21
ENDBRANCH   1  19
BRANCH   7  24
ATOM     24  C   UNL     1       3.179   7.051  18.178  0.00  0.00    +0.000 C 
ATOM     25  O   UNL     1       4.305   7.517  18.076  0.00  0.00    +0.000 OA
BRANCH  24  26
ATOM     26  O   UNL     1       2.084   7.564  17.565  0.00  0.00    +0.000 OA
ATOM     27  C   UNL     1       1.972   8.987  17.692  0.00  0.00    +0.000 C 
ENDBRANCH  24  26
ENDBRANCH   7  24
TORSDOF 7
ENDMDL
MODEL 4
REMARK VINA RESULT:      -7.0      1.096      1.729
REMARK  Name = 
REMARK  11 active torsions:
REMARK  status: ('A' for Active; 'I' for Inactive)
REMARK    1  A    between atoms: C_1  and  C_2
REMARK    2  A    between atoms: C_2  and  O_3
REMARK    3  A    between atoms: O_3  and  C_4
REMARK    4  A    between atoms: C_4  and  C_6
REMARK    5  A    between atoms: C_7  and  C_8
REMARK    6  A    between atoms: C_10  and  C_11
REMARK    7  A    between atoms: C_12  and  C_13
REMARK    8  A    between atoms: C_13  and  O_15
REMARK    9  A    between atoms: O_15  and  C_16
REMARK   10  A    between atoms: C_17  and  C_18
REMARK   11  A    between atoms: C_22  and  N_23
REMARK                            x       y       z     vdW  Elec       q    Type
REMARK                         _______ _______ _______ _____ _____    ______ ____
ROOT
ATOM      1  C   UNL     1       3.006   3.755  19.552  0.00  0.00    +0.000 C 
ATOM      2  C   UNL     1       2.407   4.000  20.745  0.00  0.00    +0.000 C 
ATOM      3  C   UNL     1       2.260   3.054  21.917  0.00  0.00    +0.000 C 
ATOM      4  N   UNL     1       1.855   5.246  20.987  0.00  0.00    +0.000 N 
ATOM      5  C   UNL     1       1.996   6.352  20.181  0.00  0.00    +0.000 C 
ATOM      6  C   UNL     1       1.510   7.653  20.776  0.00  0.00    +0.000 C 
ATOM      7  C   UNL     1       2.562   6.227  18.958  0.00  0.00    +0.000 C 
ATOM      8  C   UNL     1       3.050   4.847  18.462  0.00  0.00    +0.000 C 
ATOM      9  H   UNL     1       1.473   5.399  21.920  0.00  0.00    +0.000 HD
ENDROOT
BRANCH   8  10
ATOM     10  C   UNL     1       4.428   4.975  17.798  0.00  0.00    +0.000 A 
ATOM     11  C   UNL     1       4.674   4.448  16.523  0.00  0.00    +0.000 A 
ATOM     12  C   UNL     1       5.975   4.395  16.018  0.00  0.00    +0.000 A 
ATOM     13  C   UNL     1       7.046   4.869  16.778  0.00  0.00    +0.000 A 
ATOM     14  C   UNL     1       6.804   5.432  18.037  0.00  0.00    +0.000 A 
ATOM     15  C   UNL     1       5.502   5.508  18.538  0.00  0.00    +0.000 A 
BRANCH  14  16
ATOM     16  N   UNL     1       7.929   5.874  18.870  0.00  0.00    +0.000 N 
ATOM     17  O   UNL     1       8.394   5.067  19.688  0.00  0.00    +0.000 OA
ATOM     18  O   UNL     1       8.339   7.034  18.717  0.00  0.00    +0.000 OA
ENDBRANCH  14  16
ENDBRANCH   8  10
BRANCH   1  19
ATOM     19  C   UNL     1       3.642   2.437  19.286  0.00  0.00    +0.000 C 
ATOM     20  O   UNL     1       3.186   1.594  18.527  0.00  0.00    +0.000 OA
BRANCH  19  21
ATOM     21  O   UNL     1       4.783   2.277  20.006  0.00  0.00    +0.000 OA
BRANCH  21  23
ATOM     22  C   UNL     1       5.665   0.798  21.755  0.00  0.00    +0.000 C 
ATOM     23  C   UNL     1       5.085   0.912  20.352  0.00  0.00    +0.000 C 
ENDBRANCH  21  23
ENDBRANCH  19  21
ENDBRANCH   1  19
BRANCH   7  24
ATOM     24  C   UNL     1       2.810   7.456  18.149  0.00  0.00    +0.000 C 
ATOM     25  O   UNL     1       3.924   7.900  17.911  0.00  0.00    +0.000 OA
BRANCH  24  26
ATOM     26  O   UNL     1       1.659   7.997  17.680  0.00  0.00    +0.000 OA
ATOM     27  C   UNL     1       1.628   9.428  17.753  0.00  0.00    +0.000 C 
ENDBRANCH  24  26
ENDBRANCH   7  24
TORSDOF 7
ENDMDL
MODEL 5
REMARK VINA RESULT:      -6.8      2.248      6.071
REMARK  Name = 
REMARK  11 active torsions:
REMARK  status: ('A' for Active; 'I' for Inactive)
REMARK    1  A    between atoms: C_1  and  C_2
REMARK    2  A    between atoms: C_2  and  O_3
REMARK    3  A    between atoms: O_3  and  C_4
REMARK    4  A    between atoms: C_4  and  C_6
REMARK    5  A    between atoms: C_7  and  C_8
REMARK    6  A    between atoms: C_10  and  C_11
REMARK    7  A    between atoms: C_12  and  C_13
REMARK    8  A    between atoms: C_13  and  O_15
REMARK    9  A    between atoms: O_15  and  C_16
REMARK   10  A    between atoms: C_17  and  C_18
REMARK   11  A    between atoms: C_22  and  N_23
REMARK                            x       y       z     vdW  Elec       q    Type
REMARK                         _______ _______ _______ _____ _____    ______ ____
ROOT
ATOM      1  C   UNL     1       4.774   5.342  16.813  0.00  0.00    +0.000 C 
ATOM      2  C   UNL     1       5.567   4.242  16.766  0.00  0.00    +0.000 C 
ATOM      3  C   UNL     1       7.016   4.165  16.337  0.00  0.00    +0.000 C 
ATOM      4  N   UNL     1       5.054   3.016  17.153  0.00  0.00    +0.000 N 
ATOM      5  C   UNL     1       3.833   2.815  17.755  0.00  0.00    +0.000 C 
ATOM      6  C   UNL     1       3.603   1.426  18.303  0.00  0.00    +0.000 C 
ATOM      7  C   UNL     1       2.949   3.836  17.842  0.00  0.00    +0.000 C 
ATOM      8  C   UNL     1       3.304   5.226  17.269  0.00  0.00    +0.000 C 
ATOM      9  H   UNL     1       5.708   2.233  17.160  0.00  0.00    +0.000 HD
ENDROOT
BRANCH   8  10
ATOM     10  C   UNL     1       2.894   6.330  18.253  0.00  0.00    +0.000 A 
ATOM     11  C   UNL     1       2.817   6.085  19.631  0.00  0.00    +0.000 A 
ATOM     12  C   UNL     1       2.254   7.035  20.488  0.00  0.00    +0.000 A 
ATOM     13  C   UNL     1       1.763   8.239  19.980  0.00  0.00    +0.000 A 
ATOM     14  C   UNL     1       1.871   8.507  18.610  0.00  0.00    +0.000 A 
ATOM     15  C   UNL     1       2.454   7.571  17.752  0.00  0.00    +0.000 A 
BRANCH  14  16
ATOM     16  N   UNL     1       1.301   9.742  18.059  0.00  0.00    +0.000 N 
ATOM     17  O   UNL     1       2.084  10.570  17.570  0.00  0.00    +0.000 OA
ATOM     18  O   UNL     1       0.073   9.892  18.127  0.00  0.00    +0.000 OA
ENDBRANCH  14  16
ENDBRANCH   8  10
BRANCH   1  19
ATOM     19  C   UNL     1       5.316   6.677  16.440  0.00  0.00    +0.000 C 
ATOM     20  O   UNL     1       5.212   7.175  15.329  0.00  0.00    +0.000 OA
BRANCH  19  21
ATOM     21  O   UNL     1       5.957   7.266  17.483  0.00  0.00    +0.000 OA
BRANCH  21  23
ATOM     22  C   UNL     1       7.890   8.753  17.760  0.00  0.00    +0.000 C 
ATOM     23  C   UNL     1       7.382   7.388  17.316  0.00  0.00    +0.000 C 
ENDBRANCH  21  23
ENDBRANCH  19  21
ENDBRANCH   1  19
BRANCH   7  24
ATOM     24  C   UNL     1       1.681   3.627  18.599  0.00  0.00    +0.000 C 
ATOM     25  O   UNL     1       0.592   3.460  18.069  0.00  0.00    +0.000 OA
BRANCH  24  26
ATOM     26  O   UNL     1       1.886   3.608  19.939  0.00  0.00    +0.000 OA
ATOM     27  C   UNL     1       0.929   2.813  20.653  0.00  0.00    +0.000 C 
ENDBRANCH  24  26
ENDBRANCH   7  24
TORSDOF 7
ENDMDL
MODEL 6
REMARK VINA RESULT:      -6.6      1.264      1.771
REMARK  Name = 
REMARK  11 active torsions:
REMARK  status: ('A' for Active; 'I' for Inactive)
REMARK    1  A    between atoms: C_1  and  C_2
REMARK    2  A    between atoms: C_2  and  O_3
REMARK    3  A    between atoms: O_3  and  C_4
REMARK    4  A    between atoms: C_4  and  C_6
REMARK    5  A    between atoms: C_7  and  C_8
REMARK    6  A    between atoms: C_10  and  C_11
REMARK    7  A    between atoms: C_12  and  C_13
REMARK    8  A    between atoms: C_13  and  O_15
REMARK    9  A    between atoms: O_15  and  C_16
REMARK   10  A    between atoms: C_17  and  C_18
REMARK   11  A    between atoms: C_22  and  N_23
REMARK                            x       y       z     vdW  Elec       q    Type
REMARK                         _______ _______ _______ _____ _____    ______ ____
ROOT
ATOM      1  C   UNL     1       2.210   3.830  18.764  0.00  0.00    +0.000 C 
ATOM      2  C   UNL     1       1.665   4.029  19.991  0.00  0.00    +0.000 C 
ATOM      3  C   UNL     1       1.237   2.979  20.994  0.00  0.00    +0.000 C 
ATOM      4  N   UNL     1       1.460   5.321  20.443  0.00  0.00    +0.000 N 
ATOM      5  C   UNL     1       1.915   6.464  19.828  0.00  0.00    +0.000 C 
ATOM      6  C   UNL     1       1.778   7.733  20.636  0.00  0.00    +0.000 C 
ATOM      7  C   UNL     1       2.461   6.392  18.592  0.00  0.00    +0.000 C 
ATOM      8  C   UNL     1       2.576   5.032  17.868  0.00  0.00    +0.000 C 
ATOM      9  H   UNL     1       1.107   5.417  21.395  0.00  0.00    +0.000 HD
ENDROOT
BRANCH   8  10
ATOM     10  C   UNL     1       3.956   4.891  17.211  0.00  0.00    +0.000 A 
ATOM     11  C   UNL     1       4.088   4.517  15.867  0.00  0.00    +0.000 A 
ATOM     12  C   UNL     1       5.343   4.200  15.340  0.00  0.00    +0.000 A 
ATOM     13  C   UNL     1       6.480   4.254  16.148  0.00  0.00    +0.000 A 
ATOM     14  C   UNL     1       6.361   4.663  17.482  0.00  0.00    +0.000 A 
ATOM     15  C   UNL     1       5.112   5.003  18.008  0.00  0.00    +0.000 A 
BRANCH  14  16
ATOM     16  N   UNL     1       7.541   4.662  18.355  0.00  0.00    +0.000 N 
ATOM     17  O   UNL     1       8.562   4.090  17.946  0.00  0.00    +0.000 OA
ATOM     18  O   UNL     1       7.443   5.220  19.458  0.00  0.00    +0.000 OA
ENDBRANCH  14  16
ENDBRANCH   8  10
BRANCH   1  19
ATOM     19  C   UNL     1       2.477   2.450  18.275  0.00  0.00    +0.000 C 
ATOM     20  O   UNL     1       2.219   2.059  17.146  0.00  0.00    +0.000 OA
BRANCH  19  21
ATOM     21  O   UNL     1       3.027   1.672  19.244  0.00  0.00    +0.000 OA
BRANCH  21  23
ATOM     22  C   UNL     1       4.954   1.968  20.736  0.00  0.00    +0.000 C 
ATOM     23  C   UNL     1       4.464   1.731  19.314  0.00  0.00    +0.000 C 
ENDBRANCH  21  23
ENDBRANCH  19  21
ENDBRANCH   1  19
BRANCH   7  24
ATOM     24  C   UNL     1       3.052   7.624  17.992  0.00  0.00    +0.000 C 
ATOM     25  O   UNL     1       4.240   7.906  18.050  0.00  0.00    +0.000 OA
BRANCH  24  26
ATOM     26  O   UNL     1       2.123   8.370  17.344  0.00  0.00    +0.000 OA
ATOM     27  C   UNL     1       2.006   9.705  17.852  0.00  0.00    +0.000 C 
ENDBRANCH  24  26
ENDBRANCH   7  24
TORSDOF 7
ENDMDL
MODEL 7
REMARK VINA RESULT:      -6.4      2.031      2.546
REMARK  Name = 
REMARK  11 active torsions:
REMARK  status: ('A' for Active; 'I' for Inactive)
REMARK    1  A    between atoms: C_1  and  C_2
REMARK    2  A    between atoms: C_2  and  O_3
REMARK    3  A    between atoms: O_3  and  C_4
REMARK    4  A    between atoms: C_4  and  C_6
REMARK    5  A    between atoms: C_7  and  C_8
REMARK    6  A    between atoms: C_10  and  C_11
REMARK    7  A    between atoms: C_12  and  C_13
REMARK    8  A    between atoms: C_13  and  O_15
REMARK    9  A    between atoms: O_15  and  C_16
REMARK   10  A    between atoms: C_17  and  C_18
REMARK   11  A    between atoms: C_22  and  N_23
REMARK                            x       y       z     vdW  Elec       q    Type
REMARK                         _______ _______ _______ _____ _____    ______ ____
ROOT
ATOM      1  C   UNL     1       3.248   3.713  19.592  0.00  0.00    +0.000 C 
ATOM      2  C   UNL     1       2.526   4.165  20.647  0.00  0.00    +0.000 C 
ATOM      3  C   UNL     1       2.128   3.401  21.891  0.00  0.00    +0.000 C 
ATOM      4  N   UNL     1       2.080   5.476  20.656  0.00  0.00    +0.000 N 
ATOM      5  C   UNL     1       2.442   6.448  19.752  0.00  0.00    +0.000 C 
ATOM      6  C   UNL     1       2.020   7.854  20.110  0.00  0.00    +0.000 C 
ATOM      7  C   UNL     1       3.148   6.112  18.647  0.00  0.00    +0.000 C 
ATOM      8  C   UNL     1       3.550   4.642  18.396  0.00  0.00    +0.000 C 
ATOM      9  H   UNL     1       1.597   5.785  21.499  0.00  0.00    +0.000 HD
ENDROOT
BRANCH   8  10
ATOM     10  C   UNL     1       5.009   4.559  17.927  0.00  0.00    +0.000 A 
ATOM     11  C   UNL     1       6.072   4.784  18.813  0.00  0.00    +0.000 A 
ATOM     12  C   UNL     1       7.379   4.903  18.334  0.00  0.00    +0.000 A 
ATOM     13  C   UNL     1       7.641   4.797  16.966  0.00  0.00    +0.000 A 
ATOM     14  C   UNL     1       6.590   4.535  16.080  0.00  0.00    +0.000 A 
ATOM     15  C   UNL     1       5.283   4.393  16.556  0.00  0.00    +0.000 A 
BRANCH  14  16
ATOM     16  N   UNL     1       6.845   4.485  14.635  0.00  0.00    +0.000 N 
ATOM     17  O   UNL     1       7.667   5.287  14.167  0.00  0.00    +0.000 OA
ATOM     18  O   UNL     1       6.214   3.655  13.965  0.00  0.00    +0.000 OA
ENDBRANCH  14  16
ENDBRANCH   8  10
BRANCH   1  19
ATOM     19  C   UNL     1       3.773   2.320  19.581  0.00  0.00    +0.000 C 
ATOM     20  O   UNL     1       4.776   1.959  20.179  0.00  0.00    +0.000 OA
BRANCH  19  21
ATOM     21  O   UNL     1       3.010   1.504  18.808  0.00  0.00    +0.000 OA
BRANCH  21  23
ATOM     22  C   UNL     1       0.621   2.049  18.660  0.00  0.00    +0.000 C 
ATOM     23  C   UNL     1       2.003   2.183  18.034  0.00  0.00    +0.000 C 
ENDBRANCH  21  23
ENDBRANCH  19  21
ENDBRANCH   1  19
BRANCH   7  24
ATOM     24  C   UNL     1       3.627   7.196  17.741  0.00  0.00    +0.000 C 
ATOM     25  O   UNL     1       2.957   7.671  16.835  0.00  0.00    +0.000 OA
BRANCH  24  26
ATOM     26  O   UNL     1       4.875   7.616  18.066  0.00  0.00    +0.000 OA
ATOM     27  C   UNL     1       5.698   7.898  16.927  0.00  0.00    +0.000 C 
ENDBRANCH  24  26
ENDBRANCH   7  24
TORSDOF 7
ENDMDL
MODEL 8
REMARK VINA RESULT:      -6.3      2.110      5.488
REMARK  Name = 
REMARK  11 active torsions:
REMARK  status: ('A' for Active; 'I' for Inactive)
REMARK    1  A    between atoms: C_1  and  C_2
REMARK    2  A    between atoms: C_2  and  O_3
REMARK    3  A    between atoms: O_3  and  C_4
REMARK    4  A    between atoms: C_4  and  C_6
REMARK    5  A    between atoms: C_7  and  C_8
REMARK    6  A    between atoms: C_10  and  C_11
REMARK    7  A    between atoms: C_12  and  C_13
REMARK    8  A    between atoms: C_13  and  O_15
REMARK    9  A    between atoms: O_15  and  C_16
REMARK   10  A    between atoms: C_17  and  C_18
REMARK   11  A    between atoms: C_22  and  N_23
REMARK                            x       y       z     vdW  Elec       q    Type
REMARK                         _______ _______ _______ _____ _____    ______ ____
ROOT
ATOM      1  C   UNL     1       5.067   5.573  17.830  0.00  0.00    +0.000 C 
ATOM      2  C   UNL     1       5.959   4.753  18.441  0.00  0.00    +0.000 C 
ATOM      3  C   UNL     1       7.469   4.832  18.396  0.00  0.00    +0.000 C 
ATOM      4  N   UNL     1       5.498   3.706  19.222  0.00  0.00    +0.000 N 
ATOM      5  C   UNL     1       4.188   3.500  19.588  0.00  0.00    +0.000 C 
ATOM      6  C   UNL     1       3.969   2.437  20.638  0.00  0.00    +0.000 C 
ATOM      7  C   UNL     1       3.207   4.246  19.029  0.00  0.00    +0.000 C 
ATOM      8  C   UNL     1       3.550   5.328  17.981  0.00  0.00    +0.000 C 
ATOM      9  H   UNL     1       6.207   3.158  19.709  0.00  0.00    +0.000 HD
ENDROOT
BRANCH   8  10
ATOM     10  C   UNL     1       2.762   6.614  18.263  0.00  0.00    +0.000 A 
ATOM     11  C   UNL     1       2.667   7.635  17.307  0.00  0.00    +0.000 A 
ATOM     12  C   UNL     1       2.120   8.875  17.647  0.00  0.00    +0.000 A 
ATOM     13  C   UNL     1       1.658   9.110  18.944  0.00  0.00    +0.000 A 
ATOM     14  C   UNL     1       1.714   8.083  19.893  0.00  0.00    +0.000 A 
ATOM     15  C   UNL     1       2.240   6.833  19.553  0.00  0.00    +0.000 A 
BRANCH  14  16
ATOM     16  N   UNL     1       1.291   8.340  21.275  0.00  0.00    +0.000 N 
ATOM     17  O   UNL     1       0.133   8.027  21.592  0.00  0.00    +0.000 OA
ATOM     18  O   UNL     1       2.109   8.869  22.041  0.00  0.00    +0.000 OA
ENDBRANCH  14  16
ENDBRANCH   8  10
BRANCH   1  19
ATOM     19  C   UNL     1       5.540   6.728  17.020  0.00  0.00    +0.000 C 
ATOM     20  O   UNL     1       6.040   7.739  17.492  0.00  0.00    +0.000 OA
BRANCH  19  21
ATOM     21  O   UNL     1       5.330   6.529  15.693  0.00  0.00    +0.000 OA
BRANCH  21  23
ATOM     22  C   UNL     1       5.489   4.422  14.444  0.00  0.00    +0.000 C 
ATOM     23  C   UNL     1       6.232   5.589  15.079  0.00  0.00    +0.000 C 
ENDBRANCH  21  23
ENDBRANCH  19  21
ENDBRANCH   1  19
BRANCH   7  24
ATOM     24  C   UNL     1       1.808   4.085  19.524  0.00  0.00    +0.000 C 
ATOM     25  O   UNL     1       1.447   4.392  20.651  0.00  0.00    +0.000 OA
BRANCH  24  26
ATOM     26  O   UNL     1       0.983   3.597  18.566  0.00  0.00    +0.000 OA
ATOM     27  C   UNL     1       0.807   2.176  18.633  0.00  0.00    +0.000 C 
ENDBRANCH  24  26
ENDBRANCH   7  24
TORSDOF 7
ENDMDL
MODEL 9
REMARK VINA RESULT:      -6.3      2.219      2.775
REMARK  Name = 
REMARK  11 active torsions:
REMARK  status: ('A' for Active; 'I' for Inactive)
REMARK    1  A    between atoms: C_1  and  C_2
REMARK    2  A    between atoms: C_2  and  O_3
REMARK    3  A    between atoms: O_3  and  C_4
REMARK    4  A    between atoms: C_4  and  C_6
REMARK    5  A    between atoms: C_7  and  C_8
REMARK    6  A    between atoms: C_10  and  C_11
REMARK    7  A    between atoms: C_12  and  C_13
REMARK    8  A    between atoms: C_13  and  O_15
REMARK    9  A    between atoms: O_15  and  C_16
REMARK   10  A    between atoms: C_17  and  C_18
REMARK   11  A    between atoms: C_22  and  N_23
REMARK                            x       y       z     vdW  Elec       q    Type
REMARK                         _______ _______ _______ _____ _____    ______ ____
ROOT
ATOM      1  C   UNL     1       2.294   3.735  18.681  0.00  0.00    +0.000 C 
ATOM      2  C   UNL     1       1.585   4.011  19.804  0.00  0.00    +0.000 C 
ATOM      3  C   UNL     1       0.947   3.026  20.760  0.00  0.00    +0.000 C 
ATOM      4  N   UNL     1       1.395   5.329  20.183  0.00  0.00    +0.000 N 
ATOM      5  C   UNL     1       2.007   6.420  19.612  0.00  0.00    +0.000 C 
ATOM      6  C   UNL     1       1.829   7.724  20.354  0.00  0.00    +0.000 C 
ATOM      7  C   UNL     1       2.726   6.271  18.476  0.00  0.00    +0.000 C 
ATOM      8  C   UNL     1       2.864   4.880  17.817  0.00  0.00    +0.000 C 
ATOM      9  H   UNL     1       0.909   5.480  21.068  0.00  0.00    +0.000 HD
ENDROOT
BRANCH   8  10
ATOM     10  C   UNL     1       4.316   4.636  17.382  0.00  0.00    +0.000 A 
ATOM     11  C   UNL     1       5.366   4.647  18.310  0.00  0.00    +0.000 A 
ATOM     12  C   UNL     1       6.694   4.623  17.877  0.00  0.00    +0.000 A 
ATOM     13  C   UNL     1       6.989   4.586  16.512  0.00  0.00    +0.000 A 
ATOM     14  C   UNL     1       5.946   4.536  15.581  0.00  0.00    +0.000 A 
ATOM     15  C   UNL     1       4.615   4.538  16.009  0.00  0.00    +0.000 A 
BRANCH  14  16
ATOM     16  N   UNL     1       6.246   4.561  14.144  0.00  0.00    +0.000 N 
ATOM     17  O   UNL     1       7.235   5.210  13.772  0.00  0.00    +0.000 OA
ATOM     18  O   UNL     1       5.484   3.946  13.384  0.00  0.00    +0.000 OA
ENDBRANCH  14  16
ENDBRANCH   8  10
BRANCH   1  19
ATOM     19  C   UNL     1       2.546   2.325  18.277  0.00  0.00    +0.000 C 
ATOM     20  O   UNL     1       2.351   1.887  17.153  0.00  0.00    +0.000 OA
BRANCH  19  21
ATOM     21  O   UNL     1       3.002   1.580  19.318  0.00  0.00    +0.000 OA
BRANCH  21  23
ATOM     22  C   UNL     1       4.961   1.821  20.777  0.00  0.00    +0.000 C 
ATOM     23  C   UNL     1       4.436   1.470  19.392  0.00  0.00    +0.000 C 
ENDBRANCH  21  23
ENDBRANCH  19  21
ENDBRANCH   1  19
BRANCH   7  24
ATOM     24  C   UNL     1       3.475   7.444  17.938  0.00  0.00    +0.000 C 
ATOM     25  O   UNL     1       4.654   7.666  18.178  0.00  0.00    +0.000 OA
BRANCH  24  26
ATOM     26  O   UNL     1       2.707   8.208  17.124  0.00  0.00    +0.000 OA
ATOM     27  C   UNL     1       2.329   9.462  17.706  0.00  0.00    +0.000 C 
ENDBRANCH  24  26
ENDBRANCH   7  24
TORSDOF 7
ENDMDL
