MODEL 1
REMARK VINA RESULT:      -8.0      0.000      0.000
REMARK  Name = 
REMARK  5 active torsions:
REMARK  status: ('A' for Active; 'I' for Inactive)
REMARK    1  A    between atoms: C_1  and  C_2
REMARK    2  A    between atoms: C_8  and  C_9
REMARK    3  A    between atoms: C_9  and  C_10
REMARK    4  A    between atoms: C_10  and  C_11
REMARK    5  A    between atoms: N_20  and  C_21
REMARK                            x       y       z     vdW  Elec       q    Type
REMARK                         _______ _______ _______ _____ _____    ______ ____
ROOT
ATOM      1  C   UNL     1       2.029   2.708  18.418  0.00  0.00    +0.000 C 
ENDROOT
BRANCH   1   2
ATOM      2  C   UNL     1       1.988   4.050  19.101  0.00  0.00    +0.000 A 
ATOM      3  N   UNL     1       2.127   5.245  18.554  0.00  0.00    +0.000 NA
ATOM      4  C   UNL     1       2.014   6.125  19.606  0.00  0.00    +0.000 A 
ATOM      5  N   UNL     1       2.095   7.454  19.404  0.00  0.00    +0.000 N 
ATOM      6  C   UNL     1       1.623   8.411  20.394  0.00  0.00    +0.000 C 
ATOM      7  C   UNL     1       0.932   9.481  19.555  0.00  0.00    +0.000 C 
ATOM      8  C   UNL     1       1.761   9.502  18.281  0.00  0.00    +0.000 C 
ATOM      9  C   UNL     1       2.147   8.035  18.073  0.00  0.00    +0.000 C 
ATOM     10  N   UNL     1       1.817   5.527  20.780  0.00  0.00    +0.000 NA
ATOM     11  N   UNL     1       1.808   4.229  20.447  0.00  0.00    +0.000 N 
ATOM     12  C   UNL     1       1.622   3.241  21.478  0.00  0.00    +0.000 C 
ENDBRANCH   1   2
BRANCH   1  13
ATOM     13  C   UNL     1       3.460   2.206  18.211  0.00  0.00    +0.000 C 
BRANCH  13  21
ATOM     14  C   UNL     1       7.618   5.635  19.727  0.00  0.00    +0.000 C 
ATOM     15  C   UNL     1       7.124   5.531  18.322  0.00  0.00    +0.000 A 
ATOM     16  C   UNL     1       7.641   6.258  17.308  0.00  0.00    +0.000 A 
ATOM     17  N   UNL     1       7.215   6.197  15.994  0.00  0.00    +0.000 NA
ATOM     18  C   UNL     1       6.238   5.371  15.721  0.00  0.00    +0.000 A 
ATOM     19  C   UNL     1       5.629   4.561  16.729  0.00  0.00    +0.000 A 
ATOM     20  N   UNL     1       4.654   3.694  16.620  0.00  0.00    +0.000 NA
ATOM     21  C   UNL     1       4.509   3.236  17.911  0.00  0.00    +0.000 A 
ATOM     22  N   UNL     1       5.354   3.786  18.801  0.00  0.00    +0.000 NA
ATOM     23  N   UNL     1       6.080   4.649  18.026  0.00  0.00    +0.000 N 
ENDBRANCH  13  21
ENDBRANCH   1  13
TORSDOF 3
ENDMDL
MODEL 2
REMARK VINA RESULT:      -7.7      0.688      1.643
REMARK  Name = 
REMARK  5 active torsions:
REMARK  status: ('A' for Active; 'I' for Inactive)
REMARK    1  A    between atoms: C_1  and  C_2
REMARK    2  A    between atoms: C_8  and  C_9
REMARK    3  A    between atoms: C_9  and  C_10
REMARK    4  A    between atoms: C_10  and  C_11
REMARK    5  A    between atoms: N_20  and  C_21
REMARK                            x       y       z     vdW  Elec       q    Type
REMARK                         _______ _______ _______ _____ _____    ______ ____
ROOT
ATOM      1  C   UNL     1       1.905   2.658  18.511  0.00  0.00    +0.000 C 
ENDROOT
BRANCH   1   2
ATOM      2  C   UNL     1       1.887   4.008  19.180  0.00  0.00    +0.000 A 
ATOM      3  N   UNL     1       2.038   5.195  18.619  0.00  0.00    +0.000 NA
ATOM      4  C   UNL     1       1.946   6.087  19.662  0.00  0.00    +0.000 A 
ATOM      5  N   UNL     1       2.043   7.413  19.445  0.00  0.00    +0.000 N 
ATOM      6  C   UNL     1       1.592   8.387  20.428  0.00  0.00    +0.000 C 
ATOM      7  C   UNL     1       0.909   9.457  19.583  0.00  0.00    +0.000 C 
ATOM      8  C   UNL     1       1.729   9.453  18.303  0.00  0.00    +0.000 C 
ATOM      9  C   UNL     1       2.094   7.979  18.108  0.00  0.00    +0.000 C 
ATOM     10  N   UNL     1       1.749   5.504  20.844  0.00  0.00    +0.000 NA
ATOM     11  N   UNL     1       1.721   4.203  20.525  0.00  0.00    +0.000 N 
ATOM     12  C   UNL     1       1.528   3.229  21.568  0.00  0.00    +0.000 C 
ENDBRANCH   1   2
BRANCH   1  13
ATOM     13  C   UNL     1       3.328   2.146  18.275  0.00  0.00    +0.000 C 
BRANCH  13  21
ATOM     14  C   UNL     1       6.339   5.402  14.858  0.00  0.00    +0.000 C 
ATOM     15  C   UNL     1       6.530   5.385  16.339  0.00  0.00    +0.000 A 
ATOM     16  C   UNL     1       7.445   6.154  16.969  0.00  0.00    +0.000 A 
ATOM     17  N   UNL     1       7.658   6.169  18.335  0.00  0.00    +0.000 NA
ATOM     18  C   UNL     1       6.914   5.379  19.065  0.00  0.00    +0.000 A 
ATOM     19  C   UNL     1       5.919   4.531  18.486  0.00  0.00    +0.000 A 
ATOM     20  N   UNL     1       5.101   3.693  19.072  0.00  0.00    +0.000 NA
ATOM     21  C   UNL     1       4.390   3.174  18.013  0.00  0.00    +0.000 A 
ATOM     22  N   UNL     1       4.738   3.660  16.808  0.00  0.00    +0.000 NA
ATOM     23  N   UNL     1       5.735   4.542  17.123  0.00  0.00    +0.000 N 
ENDBRANCH  13  21
ENDBRANCH   1  13
TORSDOF 3
ENDMDL
MODEL 3
REMARK VINA RESULT:      -7.5      3.062      6.340
REMARK  Name = 
REMARK  5 active torsions:
REMARK  status: ('A' for Active; 'I' for Inactive)
REMARK    1  A    between atoms: C_1  and  C_2
REMARK    2  A    between atoms: C_8  and  C_9
REMARK    3  A    between atoms: C_9  and  C_10
REMARK    4  A    between atoms: C_10  and  C_11
REMARK    5  A    between atoms: N_20  and  C_21
REMARK                            x       y       z     vdW  Elec       q    Type
REMARK                         _______ _______ _______ _____ _____    ______ ____
ROOT
ATOM      1  C   UNL     1       5.715   6.632  16.674  0.00  0.00    +0.000 C 
ENDROOT
BRANCH   1   2
ATOM      2  C   UNL     1       6.819   7.359  17.397  0.00  0.00    +0.000 A 
ATOM      3  N   UNL     1       7.181   8.624  17.268  0.00  0.00    +0.000 NA
ATOM      4  C   UNL     1       8.234   8.776  18.140  0.00  0.00    +0.000 A 
ATOM      5  N   UNL     1       8.847   9.966  18.278  0.00  0.00    +0.000 N 
ATOM      6  C   UNL     1       9.693  10.266  19.424  0.00  0.00    +0.000 C 
ATOM      7  C   UNL     1       9.326  11.705  19.773  0.00  0.00    +0.000 C 
ATOM      8  C   UNL     1       9.019  12.315  18.415  0.00  0.00    +0.000 C 
ATOM      9  C   UNL     1       8.348  11.175  17.645  0.00  0.00    +0.000 C 
ATOM     10  N   UNL     1       8.542   7.660  18.800  0.00  0.00    +0.000 NA
ATOM     11  N   UNL     1       7.651   6.782  18.320  0.00  0.00    +0.000 N 
ATOM     12  C   UNL     1       7.673   5.425  18.800  0.00  0.00    +0.000 C 
ENDBRANCH   1   2
BRANCH   1  13
ATOM     13  C   UNL     1       4.335   6.941  17.259  0.00  0.00    +0.000 C 
BRANCH  13  21
ATOM     14  C   UNL     1       3.402   1.549  18.444  0.00  0.00    +0.000 C 
ATOM     15  C   UNL     1       2.727   2.667  19.167  0.00  0.00    +0.000 A 
ATOM     16  C   UNL     1       1.837   2.464  20.164  0.00  0.00    +0.000 A 
ATOM     17  N   UNL     1       1.187   3.467  20.859  0.00  0.00    +0.000 NA
ATOM     18  C   UNL     1       1.459   4.700  20.522  0.00  0.00    +0.000 A 
ATOM     19  C   UNL     1       2.387   5.012  19.481  0.00  0.00    +0.000 A 
ATOM     20  N   UNL     1       2.766   6.182  19.030  0.00  0.00    +0.000 NA
ATOM     21  C   UNL     1       3.665   5.849  18.041  0.00  0.00    +0.000 A 
ATOM     22  N   UNL     1       3.851   4.528  17.871  0.00  0.00    +0.000 NA
ATOM     23  N   UNL     1       3.016   3.988  18.811  0.00  0.00    +0.000 N 
ENDBRANCH  13  21
ENDBRANCH   1  13
TORSDOF 3
ENDMDL
MODEL 4
REMARK VINA RESULT:      -7.4      2.624      7.594
REMARK  Name = 
REMARK  5 active torsions:
REMARK  status: ('A' for Active; 'I' for Inactive)
REMARK    1  A    between atoms: C_1  and  C_2
REMARK    2  A    between atoms: C_8  and  C_9
REMARK    3  A    between atoms: C_9  and  C_10
REMARK    4  A    between atoms: C_10  and  C_11
REMARK    5  A    between atoms: N_20  and  C_21
REMARK                            x       y       z     vdW  Elec       q    Type
REMARK                         _______ _______ _______ _____ _____    ______ ____
ROOT
ATOM      1  C   UNL     1       2.824   8.714  17.884  0.00  0.00    +0.000 C 
ENDROOT
BRANCH   1   2
ATOM      2  C   UNL     1       3.059   7.255  18.177  0.00  0.00    +0.000 A 
ATOM      3  N   UNL     1       2.496   6.513  19.115  0.00  0.00    +0.000 NA
ATOM      4  C   UNL     1       3.058   5.267  18.959  0.00  0.00    +0.000 A 
ATOM      5  N   UNL     1       2.696   4.243  19.755  0.00  0.00    +0.000 N 
ATOM      6  C   UNL     1       2.975   2.859  19.400  0.00  0.00    +0.000 C 
ATOM      7  C   UNL     1       1.701   2.124  19.804  0.00  0.00    +0.000 C 
ATOM      8  C   UNL     1       1.237   2.896  21.028  0.00  0.00    +0.000 C 
ATOM      9  C   UNL     1       1.601   4.347  20.704  0.00  0.00    +0.000 C 
ATOM     10  N   UNL     1       3.948   5.207  17.968  0.00  0.00    +0.000 NA
ATOM     11  N   UNL     1       3.940   6.459  17.493  0.00  0.00    +0.000 N 
ATOM     12  C   UNL     1       4.802   6.798  16.391  0.00  0.00    +0.000 C 
ENDBRANCH   1   2
BRANCH   1  13
ATOM     13  C   UNL     1       1.335   9.067  17.849  0.00  0.00    +0.000 C 
BRANCH  13  21
ATOM     14  C   UNL     1      -1.874  12.761  20.570  0.00  0.00    +0.000 C 
ATOM     15  C   UNL     1      -1.106  11.685  21.266  0.00  0.00    +0.000 A 
ATOM     16  C   UNL     1      -1.126  11.521  22.606  0.00  0.00    +0.000 A 
ATOM     17  N   UNL     1      -0.430  10.543  23.294  0.00  0.00    +0.000 NA
ATOM     18  C   UNL     1       0.297   9.719  22.586  0.00  0.00    +0.000 A 
ATOM     19  C   UNL     1       0.379   9.815  21.162  0.00  0.00    +0.000 A 
ATOM     20  N   UNL     1       1.054   9.075  20.317  0.00  0.00    +0.000 NA
ATOM     21  C   UNL     1       0.740   9.641  19.101  0.00  0.00    +0.000 A 
ATOM     22  N   UNL     1      -0.096  10.692  19.168  0.00  0.00    +0.000 NA
ATOM     23  N   UNL     1      -0.327  10.801  20.512  0.00  0.00    +0.000 N 
ENDBRANCH  13  21
ENDBRANCH   1  13
TORSDOF 3
ENDMDL
MODEL 5
REMARK VINA RESULT:      -7.4      2.715      7.547
REMARK  Name = 
REMARK  5 active torsions:
REMARK  status: ('A' for Active; 'I' for Inactive)
REMARK    1  A    between atoms: C_1  and  C_2
REMARK    2  A    between atoms: C_8  and  C_9
REMARK    3  A    between atoms: C_9  and  C_10
REMARK    4  A    between atoms: C_10  and  C_11
REMARK    5  A    between atoms: N_20  and  C_21
REMARK                            x       y       z     vdW  Elec       q    Type
REMARK                         _______ _______ _______ _____ _____    ______ ____
ROOT
ATOM      1  C   UNL     1       2.729   8.707  17.931  0.00  0.00    +0.000 C 
ENDROOT
BRANCH   1   2
ATOM      2  C   UNL     1       2.988   7.257  18.243  0.00  0.00    +0.000 A 
ATOM      3  N   UNL     1       2.437   6.517  19.190  0.00  0.00    +0.000 NA
ATOM      4  C   UNL     1       3.020   5.279  19.050  0.00  0.00    +0.000 A 
ATOM      5  N   UNL     1       2.675   4.260  19.859  0.00  0.00    +0.000 N 
ATOM      6  C   UNL     1       2.976   2.876  19.523  0.00  0.00    +0.000 C 
ATOM      7  C   UNL     1       1.715   2.125  19.935  0.00  0.00    +0.000 C 
ATOM      8  C   UNL     1       1.237   2.906  21.150  0.00  0.00    +0.000 C 
ATOM      9  C   UNL     1       1.577   4.358  20.807  0.00  0.00    +0.000 C 
ATOM     10  N   UNL     1       3.911   5.221  18.061  0.00  0.00    +0.000 NA
ATOM     11  N   UNL     1       3.883   6.467  17.570  0.00  0.00    +0.000 N 
ATOM     12  C   UNL     1       4.740   6.806  16.464  0.00  0.00    +0.000 C 
ENDBRANCH   1   2
BRANCH   1  13
ATOM     13  C   UNL     1       1.236   9.015  17.795  0.00  0.00    +0.000 C 
BRANCH  13  21
ATOM     14  C   UNL     1       0.034   9.504  23.242  0.00  0.00    +0.000 C 
ATOM     15  C   UNL     1      -0.475  10.456  22.210  0.00  0.00    +0.000 A 
ATOM     16  C   UNL     1      -1.267  11.509  22.511  0.00  0.00    +0.000 A 
ATOM     17  N   UNL     1      -1.763  12.413  21.590  0.00  0.00    +0.000 NA
ATOM     18  C   UNL     1      -1.437  12.230  20.338  0.00  0.00    +0.000 A 
ATOM     19  C   UNL     1      -0.604  11.144  19.925  0.00  0.00    +0.000 A 
ATOM     20  N   UNL     1      -0.189  10.826  18.723  0.00  0.00    +0.000 NA
ATOM     21  C   UNL     1       0.572   9.702  18.953  0.00  0.00    +0.000 A 
ATOM     22  N   UNL     1       0.640   9.322  20.242  0.00  0.00    +0.000 NA
ATOM     23  N   UNL     1      -0.128  10.264  20.869  0.00  0.00    +0.000 N 
ENDBRANCH  13  21
ENDBRANCH   1  13
TORSDOF 3
ENDMDL
MODEL 6
REMARK VINA RESULT:      -7.3      2.231      7.132
REMARK  Name = 
REMARK  5 active torsions:
REMARK  status: ('A' for Active; 'I' for Inactive)
REMARK    1  A    between atoms: C_1  and  C_2
REMARK    2  A    between atoms: C_8  and  C_9
REMARK    3  A    between atoms: C_9  and  C_10
REMARK    4  A    between atoms: C_10  and  C_11
REMARK    5  A    between atoms: N_20  and  C_21
REMARK                            x       y       z     vdW  Elec       q    Type
REMARK                         _______ _______ _______ _____ _____    ______ ____
ROOT
ATOM      1  C   UNL     1       4.838   5.651  18.359  0.00  0.00    +0.000 C 
ENDROOT
BRANCH   1   2
ATOM      2  C   UNL     1       5.773   5.578  17.180  0.00  0.00    +0.000 A 
ATOM      3  N   UNL     1       5.693   4.784  16.126  0.00  0.00    +0.000 NA
ATOM      4  C   UNL     1       6.787   5.112  15.359  0.00  0.00    +0.000 A 
ATOM      5  N   UNL     1       7.014   4.495  14.184  0.00  0.00    +0.000 N 
ATOM      6  C   UNL     1       7.919   5.049  13.188  0.00  0.00    +0.000 C 
ATOM      7  C   UNL     1       7.192   4.805  11.870  0.00  0.00    +0.000 C 
ATOM      8  C   UNL     1       6.467   3.492  12.119  0.00  0.00    +0.000 C 
ATOM      9  C   UNL     1       6.056   3.578  13.591  0.00  0.00    +0.000 C 
ATOM     10  N   UNL     1       7.543   6.070  15.894  0.00  0.00    +0.000 NA
ATOM     11  N   UNL     1       6.898   6.346  17.035  0.00  0.00    +0.000 N 
ATOM     12  C   UNL     1       7.429   7.354  17.916  0.00  0.00    +0.000 C 
ENDBRANCH   1   2
BRANCH   1  13
ATOM     13  C   UNL     1       3.384   5.870  17.934  0.00  0.00    +0.000 C 
BRANCH  13  21
ATOM     14  C   UNL     1       0.794   8.734  21.988  0.00  0.00    +0.000 C 
ATOM     15  C   UNL     1       1.030   9.293  20.624  0.00  0.00    +0.000 A 
ATOM     16  C   UNL     1       0.635  10.533  20.262  0.00  0.00    +0.000 A 
ATOM     17  N   UNL     1       0.830  11.091  19.011  0.00  0.00    +0.000 NA
ATOM     18  C   UNL     1       1.442  10.357  18.119  0.00  0.00    +0.000 A 
ATOM     19  C   UNL     1       1.897   9.034  18.411  0.00  0.00    +0.000 A 
ATOM     20  N   UNL     1       2.520   8.180  17.638  0.00  0.00    +0.000 NA
ATOM     21  C   UNL     1       2.694   7.093  18.465  0.00  0.00    +0.000 A 
ATOM     22  N   UNL     1       2.204   7.247  19.708  0.00  0.00    +0.000 NA
ATOM     23  N   UNL     1       1.685   8.512  19.667  0.00  0.00    +0.000 N 
ENDBRANCH  13  21
ENDBRANCH   1  13
TORSDOF 3
ENDMDL
MODEL 7
REMARK VINA RESULT:      -7.3      2.182      6.852
REMARK  Name = 
REMARK  5 active torsions:
REMARK  status: ('A' for Active; 'I' for Inactive)
REMARK    1  A    between atoms: C_1  and  C_2
REMARK    2  A    between atoms: C_8  and  C_9
REMARK    3  A    between atoms: C_9  and  C_10
REMARK    4  A    between atoms: C_10  and  C_11
REMARK    5  A    between atoms: N_20  and  C_21
REMARK                            x       y       z     vdW  Elec       q    Type
REMARK                         _______ _______ _______ _____ _____    ______ ____
ROOT
ATOM      1  C   UNL     1       4.495   7.541  17.636  0.00  0.00    +0.000 C 
ENDROOT
BRANCH   1   2
ATOM      2  C   UNL     1       5.413   6.738  16.753  0.00  0.00    +0.000 A 
ATOM      3  N   UNL     1       5.084   5.857  15.824  0.00  0.00    +0.000 NA
ATOM      4  C   UNL     1       6.286   5.411  15.325  0.00  0.00    +0.000 A 
ATOM      5  N   UNL     1       6.324   4.499  14.335  0.00  0.00    +0.000 N 
ATOM      6  C   UNL     1       7.523   4.280  13.539  0.00  0.00    +0.000 C 
ATOM      7  C   UNL     1       6.985   4.112  12.122  0.00  0.00    +0.000 C 
ATOM      8  C   UNL     1       5.646   3.427  12.345  0.00  0.00    +0.000 C 
ATOM      9  C   UNL     1       5.127   4.055  13.641  0.00  0.00    +0.000 C 
ATOM     10  N   UNL     1       7.345   5.973  15.907  0.00  0.00    +0.000 NA
ATOM     11  N   UNL     1       6.782   6.797  16.801  0.00  0.00    +0.000 N 
ATOM     12  C   UNL     1       7.627   7.595  17.651  0.00  0.00    +0.000 C 
ENDBRANCH   1   2
BRANCH   1  13
ATOM     13  C   UNL     1       3.048   7.048  17.571  0.00  0.00    +0.000 C 
BRANCH  13  21
ATOM     14  C   UNL     1       0.671   2.089  18.623  0.00  0.00    +0.000 C 
ATOM     15  C   UNL     1       1.340   2.908  19.677  0.00  0.00    +0.000 A 
ATOM     16  C   UNL     1       1.422   2.515  20.968  0.00  0.00    +0.000 A 
ATOM     17  N   UNL     1       2.029   3.241  21.977  0.00  0.00    +0.000 NA
ATOM     18  C   UNL     1       2.560   4.390  21.650  0.00  0.00    +0.000 A 
ATOM     19  C   UNL     1       2.523   4.886  20.310  0.00  0.00    +0.000 A 
ATOM     20  N   UNL     1       3.004   6.004  19.825  0.00  0.00    +0.000 NA
ATOM     21  C   UNL     1       2.667   5.925  18.492  0.00  0.00    +0.000 A 
ATOM     22  N   UNL     1       2.002   4.809  18.144  0.00  0.00    +0.000 NA
ATOM     23  N   UNL     1       1.911   4.137  19.332  0.00  0.00    +0.000 N 
ENDBRANCH  13  21
ENDBRANCH   1  13
TORSDOF 3
ENDMDL
MODEL 8
REMARK VINA RESULT:      -7.2      3.116      6.178
REMARK  Name = 
REMARK  5 active torsions:
REMARK  status: ('A' for Active; 'I' for Inactive)
REMARK    1  A    between atoms: C_1  and  C_2
REMARK    2  A    between atoms: C_8  and  C_9
REMARK    3  A    between atoms: C_9  and  C_10
REMARK    4  A    between atoms: C_10  and  C_11
REMARK    5  A    between atoms: N_20  and  C_21
REMARK                            x       y       z     vdW  Elec       q    Type
REMARK                         _______ _______ _______ _____ _____    ______ ____
ROOT
ATOM      1  C   UNL     1       6.477   6.445  16.399  0.00  0.00    +0.000 C 
ENDROOT
BRANCH   1   2
ATOM      2  C   UNL     1       7.337   7.267  17.323  0.00  0.00    +0.000 A 
ATOM      3  N   UNL     1       7.684   8.536  17.197  0.00  0.00    +0.000 NA
ATOM      4  C   UNL     1       8.473   8.793  18.295  0.00  0.00    +0.000 A 
ATOM      5  N   UNL     1       8.997  10.018  18.495  0.00  0.00    +0.000 N 
ATOM      6  C   UNL     1       9.510  10.430  19.793  0.00  0.00    +0.000 C 
ATOM      7  C   UNL     1       9.025  11.870  19.928  0.00  0.00    +0.000 C 
ATOM      8  C   UNL     1       9.062  12.376  18.495  0.00  0.00    +0.000 C 
ATOM      9  C   UNL     1       8.643  11.158  17.667  0.00  0.00    +0.000 C 
ATOM     10  N   UNL     1       8.632   7.738  19.093  0.00  0.00    +0.000 NA
ATOM     11  N   UNL     1       7.920   6.791  18.468  0.00  0.00    +0.000 N 
ATOM     12  C   UNL     1       7.855   5.470  19.038  0.00  0.00    +0.000 C 
ENDBRANCH   1   2
BRANCH   1  13
ATOM     13  C   UNL     1       4.983   6.686  16.628  0.00  0.00    +0.000 C 
BRANCH  13  21
ATOM     14  C   UNL     1       1.669   5.070  20.841  0.00  0.00    +0.000 C 
ATOM     15  C   UNL     1       2.222   4.118  19.833  0.00  0.00    +0.000 A 
ATOM     16  C   UNL     1       1.965   2.792  19.860  0.00  0.00    +0.000 A 
ATOM     17  N   UNL     1       2.456   1.873  18.950  0.00  0.00    +0.000 NA
ATOM     18  C   UNL     1       3.224   2.330  17.995  0.00  0.00    +0.000 A 
ATOM     19  C   UNL     1       3.549   3.717  17.886  0.00  0.00    +0.000 A 
ATOM     20  N   UNL     1       4.295   4.327  16.998  0.00  0.00    +0.000 NA
ATOM     21  C   UNL     1       4.235   5.642  17.405  0.00  0.00    +0.000 A 
ATOM     22  N   UNL     1       3.486   5.859  18.500  0.00  0.00    +0.000 NA
ATOM     23  N   UNL     1       3.043   4.602  18.809  0.00  0.00    +0.000 N 
ENDBRANCH  13  21
ENDBRANCH   1  13
TORSDOF 3
ENDMDL
MODEL 9
REMARK VINA RESULT:      -7.1      4.087      6.514
REMARK  Name = 
REMARK  5 active torsions:
REMARK  status: ('A' for Active; 'I' for Inactive)
REMARK    1  A    between atoms: C_1  and  C_2
REMARK    2  A    between atoms: C_8  and  C_9
REMARK    3  A    between atoms: C_9  and  C_10
REMARK    4  A    between atoms: C_10  and  C_11
REMARK    5  A    between atoms: N_20  and  C_21
REMARK                            x       y       z     vdW  Elec       q    Type
REMARK                         _______ _______ _______ _____ _____    ______ ____
ROOT
ATOM      1  C   UNL     1       7.781   6.672  18.340  0.00  0.00    +0.000 C 
ENDROOT
BRANCH   1   2
ATOM      2  C   UNL     1       6.630   5.722  18.140  0.00  0.00    +0.000 A 
ATOM      3  N   UNL     1       5.602   5.508  18.944  0.00  0.00    +0.000 NA
ATOM      4  C   UNL     1       4.852   4.550  18.303  0.00  0.00    +0.000 A 
ATOM      5  N   UNL     1       3.705   4.098  18.844  0.00  0.00    +0.000 N 
ATOM      6  C   UNL     1       2.713   3.382  18.055  0.00  0.00    +0.000 C 
ATOM      7  C   UNL     1       1.386   3.947  18.552  0.00  0.00    +0.000 C 
ATOM      8  C   UNL     1       1.664   4.224  20.021  0.00  0.00    +0.000 C 
ATOM      9  C   UNL     1       3.121   4.692  20.034  0.00  0.00    +0.000 C 
ATOM     10  N   UNL     1       5.372   4.157  17.140  0.00  0.00    +0.000 NA
ATOM     11  N   UNL     1       6.486   4.896  17.056  0.00  0.00    +0.000 N 
ATOM     12  C   UNL     1       7.344   4.746  15.909  0.00  0.00    +0.000 C 
ENDBRANCH   1   2
BRANCH   1  13
ATOM     13  C   UNL     1       7.651   7.932  17.481  0.00  0.00    +0.000 C 
BRANCH  13  21
ATOM     14  C   UNL     1       8.306  13.493  17.486  0.00  0.00    +0.000 C 
ATOM     15  C   UNL     1       8.960  12.598  18.486  0.00  0.00    +0.000 A 
ATOM     16  C   UNL     1       9.762  13.061  19.470  0.00  0.00    +0.000 A 
ATOM     17  N   UNL     1      10.390  12.272  20.416  0.00  0.00    +0.000 NA
ATOM     18  C   UNL     1      10.187  10.982  20.347  0.00  0.00    +0.000 A 
ATOM     19  C   UNL     1       9.353  10.401  19.341  0.00  0.00    +0.000 A 
ATOM     20  N   UNL     1       9.051   9.142  19.139  0.00  0.00    +0.000 NA
ATOM     21  C   UNL     1       8.221   9.203  18.041  0.00  0.00    +0.000 A 
ATOM     22  N   UNL     1       8.004  10.442  17.567  0.00  0.00    +0.000 NA
ATOM     23  N   UNL     1       8.745  11.218  18.417  0.00  0.00    +0.000 N 
ENDBRANCH  13  21
ENDBRANCH   1  13
TORSDOF 3
ENDMDL
