MODEL 1
REMARK VINA RESULT:      -7.7      0.000      0.000
REMARK  Name = 
REMARK  18 active torsions:
REMARK  status: ('A' for Active; 'I' for Inactive)
REMARK    1  A    between atoms: C_1  and  O_2
REMARK    2  A    between atoms: O_2  and  C_3
REMARK    3  A    between atoms: C_5  and  C_6
REMARK    4  A    between atoms: C_6  and  C_7
REMARK    5  A    between atoms: C_6  and  C_8
REMARK    6  A    between atoms: C_9  and  O_10
REMARK    7  A    between atoms: O_10  and  C_11
REMARK    8  A    between atoms: C_13  and  C_14
REMARK    9  A    between atoms: C_14  and  C_15
REMARK   10  A    between atoms: C_18  and  C_19
REMARK   11  A    between atoms: C_19  and  C_20
REMARK   12  A    between atoms: C_22  and  O_23
REMARK   13  A    between atoms: O_23  and  C_24
REMARK   14  A    between atoms: C_25  and  C_26
REMARK   15  A    between atoms: C_26  and  C_27
REMARK   16  A    between atoms: C_26  and  C_28
REMARK   17  A    between atoms: C_30  and  O_31
REMARK   18  A    between atoms: O_31  and  C_32
REMARK                            x       y       z     vdW  Elec       q    Type
REMARK                         _______ _______ _______ _____ _____    ______ ____
ROOT
ATOM      1  C   UNL     1       1.534   9.164  18.763  0.00  0.00    +0.000 A 
ATOM      2  C   UNL     1       2.176   8.679  17.641  0.00  0.00    +0.000 A 
ATOM      3  C   UNL     1       2.794   7.425  17.868  0.00  0.00    +0.000 A 
ATOM      4  C   UNL     1       2.638   6.979  19.164  0.00  0.00    +0.000 A 
ATOM      5  S   UNL     1       1.708   8.087  20.088  0.00  0.00    +0.000 S 
ENDROOT
BRANCH   1   6
ATOM      6  C   UNL     1       0.729  10.439  18.846  0.00  0.00    +0.000 C 
BRANCH   6  12
ATOM      7  C   UNL     1      -1.325  11.564  19.777  0.00  0.00    +0.000 C 
ATOM      8  N   UNL     1      -2.330  12.202  19.306  0.00  0.00    +0.000 NA
ATOM      9  C   UNL     1      -3.044  11.639  18.151  0.00  0.00    +0.000 C 
ATOM     10  C   UNL     1      -2.514  10.272  17.710  0.00  0.00    +0.000 C 
ATOM     11  N   UNL     1      -1.515   9.625  18.190  0.00  0.00    +0.000 NA
ATOM     12  C   UNL     1      -0.739  10.268  19.271  0.00  0.00    +0.000 C 
BRANCH   9  13
ATOM     13  C   UNL     1      -4.562  11.638  18.490  0.00  0.00    +0.000 C 
ATOM     14  C   UNL     1      -5.408  12.175  17.323  0.00  0.00    +0.000 C 
ATOM     15  C   UNL     1      -4.886  12.460  19.743  0.00  0.00    +0.000 C 
ENDBRANCH   9  13
BRANCH   7  17
ATOM     16  C   UNL     1      -0.894  11.258  22.088  0.00  0.00    +0.000 C 
ATOM     17  O   UNL     1      -0.665  12.000  20.884  0.00  0.00    +0.000 OA
ENDBRANCH   7  17
BRANCH  10  18
ATOM     18  O   UNL     1      -3.220   9.787  16.651  0.00  0.00    +0.000 OA
ATOM     19  C   UNL     1      -2.855  10.267  15.348  0.00  0.00    +0.000 C 
ENDBRANCH  10  18
ENDBRANCH   6  12
ENDBRANCH   1   6
BRANCH   4  20
ATOM     20  C   UNL     1       3.215   5.711  19.751  0.00  0.00    +0.000 C 
BRANCH  20  21
ATOM     21  C   UNL     1       4.338   5.064  18.915  0.00  0.00    +0.000 C 
ATOM     22  N   UNL     1       5.354   6.086  18.620  0.00  0.00    +0.000 NA
ATOM     23  C   UNL     1       5.605   6.349  17.382  0.00  0.00    +0.000 C 
ATOM     24  C   UNL     1       5.056   5.638  16.155  0.00  0.00    +0.000 C 
ATOM     25  N   UNL     1       4.115   4.553  16.471  0.00  0.00    +0.000 NA
ATOM     26  C   UNL     1       3.808   4.339  17.698  0.00  0.00    +0.000 C 
BRANCH  24  27
ATOM     27  C   UNL     1       6.166   5.078  15.222  0.00  0.00    +0.000 C 
ATOM     28  C   UNL     1       7.251   4.307  15.979  0.00  0.00    +0.000 C 
ATOM     29  C   UNL     1       5.593   4.170  14.121  0.00  0.00    +0.000 C 
ENDBRANCH  24  27
BRANCH  23  30
ATOM     30  O   UNL     1       6.417   7.393  17.049  0.00  0.00    +0.000 OA
ATOM     31  C   UNL     1       7.627   7.520  17.805  0.00  0.00    +0.000 C 
ENDBRANCH  23  30
BRANCH  26  32
ATOM     32  O   UNL     1       2.953   3.337  18.040  0.00  0.00    +0.000 OA
ATOM     33  C   UNL     1       3.565   2.090  18.398  0.00  0.00    +0.000 C 
ENDBRANCH  26  32
ENDBRANCH  20  21
ENDBRANCH   4  20
TORSDOF 10
ENDMDL
MODEL 2
REMARK VINA RESULT:      -7.4      1.390      9.899
REMARK  Name = 
REMARK  18 active torsions:
REMARK  status: ('A' for Active; 'I' for Inactive)
REMARK    1  A    between atoms: C_1  and  O_2
REMARK    2  A    between atoms: O_2  and  C_3
REMARK    3  A    between atoms: C_5  and  C_6
REMARK    4  A    between atoms: C_6  and  C_7
REMARK    5  A    between atoms: C_6  and  C_8
REMARK    6  A    between atoms: C_9  and  O_10
REMARK    7  A    between atoms: O_10  and  C_11
REMARK    8  A    between atoms: C_13  and  C_14
REMARK    9  A    between atoms: C_14  and  C_15
REMARK   10  A    between atoms: C_18  and  C_19
REMARK   11  A    between atoms: C_19  and  C_20
REMARK   12  A    between atoms: C_22  and  O_23
REMARK   13  A    between atoms: O_23  and  C_24
REMARK   14  A    between atoms: C_25  and  C_26
REMARK   15  A    between atoms: C_26  and  C_27
REMARK   16  A    between atoms: C_26  and  C_28
REMARK   17  A    between atoms: C_30  and  O_31
REMARK   18  A    between atoms: O_31  and  C_32
REMARK                            x       y       z     vdW  Elec       q    Type
REMARK                         _______ _______ _______ _____ _____    ______ ____
ROOT
ATOM      1  C   UNL     1       2.387   6.357  19.496  0.00  0.00    +0.000 A 
ATOM      2  C   UNL     1       2.438   6.778  18.182  0.00  0.00    +0.000 A 
ATOM      3  C   UNL     1       2.023   8.123  18.026  0.00  0.00    +0.000 A 
ATOM      4  C   UNL     1       1.638   8.704  19.216  0.00  0.00    +0.000 A 
ATOM      5  S   UNL     1       1.816   7.607  20.523  0.00  0.00    +0.000 S 
ENDROOT
BRANCH   1   6
ATOM      6  C   UNL     1       2.816   5.005  20.014  0.00  0.00    +0.000 C 
BRANCH   6  12
ATOM      7  C   UNL     1       3.686   3.805  17.975  0.00  0.00    +0.000 C 
ATOM      8  N   UNL     1       4.156   4.137  16.831  0.00  0.00    +0.000 NA
ATOM      9  C   UNL     1       5.181   5.188  16.768  0.00  0.00    +0.000 C 
ATOM     10  C   UNL     1       5.619   5.701  18.142  0.00  0.00    +0.000 C 
ATOM     11  N   UNL     1       5.158   5.360  19.291  0.00  0.00    +0.000 NA
ATOM     12  C   UNL     1       4.044   4.390  19.321  0.00  0.00    +0.000 C 
BRANCH   9  13
ATOM     13  C   UNL     1       6.355   4.652  15.902  0.00  0.00    +0.000 C 
ATOM     14  C   UNL     1       6.825   5.690  14.868  0.00  0.00    +0.000 C 
ATOM     15  C   UNL     1       5.997   3.357  15.161  0.00  0.00    +0.000 C 
ENDBRANCH   9  13
BRANCH   7  17
ATOM     16  C   UNL     1       3.325   1.502  18.403  0.00  0.00    +0.000 C 
ATOM     17  O   UNL     1       2.785   2.794  18.104  0.00  0.00    +0.000 OA
ENDBRANCH   7  17
BRANCH  10  18
ATOM     18  O   UNL     1       6.581   6.659  18.030  0.00  0.00    +0.000 OA
ATOM     19  C   UNL     1       7.842   6.393  18.663  0.00  0.00    +0.000 C 
ENDBRANCH  10  18
ENDBRANCH   6  12
ENDBRANCH   1   6
BRANCH   4  20
ATOM     20  C   UNL     1       1.094  10.104  19.395  0.00  0.00    +0.000 C 
BRANCH  20  21
ATOM     21  C   UNL     1      -0.293  10.179  20.062  0.00  0.00    +0.000 C 
ATOM     22  N   UNL     1      -1.289  10.539  19.041  0.00  0.00    +0.000 NA
ATOM     23  C   UNL     1      -1.972  11.619  19.218  0.00  0.00    +0.000 C 
ATOM     24  C   UNL     1      -1.963  12.531  20.435  0.00  0.00    +0.000 C 
ATOM     25  N   UNL     1      -1.032  12.102  21.489  0.00  0.00    +0.000 NA
ATOM     26  C   UNL     1      -0.300  11.070  21.284  0.00  0.00    +0.000 C 
BRANCH  24  27
ATOM     27  C   UNL     1      -3.371  12.729  21.063  0.00  0.00    +0.000 C 
ATOM     28  C   UNL     1      -3.400  12.445  22.568  0.00  0.00    +0.000 C 
ATOM     29  C   UNL     1      -3.920  14.145  20.819  0.00  0.00    +0.000 C 
ENDBRANCH  24  27
BRANCH  23  30
ATOM     30  O   UNL     1      -2.791  12.086  18.233  0.00  0.00    +0.000 OA
ATOM     31  C   UNL     1      -3.717  11.144  17.679  0.00  0.00    +0.000 C 
ENDBRANCH  23  30
BRANCH  26  32
ATOM     32  O   UNL     1       0.566  10.626  22.237  0.00  0.00    +0.000 OA
ATOM     33  C   UNL     1       0.043   9.650  23.148  0.00  0.00    +0.000 C 
ENDBRANCH  26  32
ENDBRANCH  20  21
ENDBRANCH   4  20
TORSDOF 10
ENDMDL
MODEL 3
REMARK VINA RESULT:      -7.4      0.946      1.248
REMARK  Name = 
REMARK  18 active torsions:
REMARK  status: ('A' for Active; 'I' for Inactive)
REMARK    1  A    between atoms: C_1  and  O_2
REMARK    2  A    between atoms: O_2  and  C_3
REMARK    3  A    between atoms: C_5  and  C_6
REMARK    4  A    between atoms: C_6  and  C_7
REMARK    5  A    between atoms: C_6  and  C_8
REMARK    6  A    between atoms: C_9  and  O_10
REMARK    7  A    between atoms: O_10  and  C_11
REMARK    8  A    between atoms: C_13  and  C_14
REMARK    9  A    between atoms: C_14  and  C_15
REMARK   10  A    between atoms: C_18  and  C_19
REMARK   11  A    between atoms: C_19  and  C_20
REMARK   12  A    between atoms: C_22  and  O_23
REMARK   13  A    between atoms: O_23  and  C_24
REMARK   14  A    between atoms: C_25  and  C_26
REMARK   15  A    between atoms: C_26  and  C_27
REMARK   16  A    between atoms: C_26  and  C_28
REMARK   17  A    between atoms: C_30  and  O_31
REMARK   18  A    between atoms: O_31  and  C_32
REMARK                            x       y       z     vdW  Elec       q    Type
REMARK                         _______ _______ _______ _____ _____    ______ ____
ROOT
ATOM      1  C   UNL     1       1.602   8.953  19.118  0.00  0.00    +0.000 A 
ATOM      2  C   UNL     1       1.944   8.413  17.894  0.00  0.00    +0.000 A 
ATOM      3  C   UNL     1       2.425   7.085  18.000  0.00  0.00    +0.000 A 
ATOM      4  C   UNL     1       2.468   6.636  19.304  0.00  0.00    +0.000 A 
ATOM      5  S   UNL     1       1.889   7.834  20.387  0.00  0.00    +0.000 S 
ENDROOT
BRANCH   1   6
ATOM      6  C   UNL     1       1.002  10.319  19.351  0.00  0.00    +0.000 C 
BRANCH   6  12
ATOM      7  C   UNL     1      -0.717  11.337  20.887  0.00  0.00    +0.000 C 
ATOM      8  N   UNL     1      -1.511  12.342  20.858  0.00  0.00    +0.000 NA
ATOM      9  C   UNL     1      -2.315  12.570  19.650  0.00  0.00    +0.000 C 
ATOM     10  C   UNL     1      -2.144  11.484  18.585  0.00  0.00    +0.000 C 
ATOM     11  N   UNL     1      -1.358  10.468  18.618  0.00  0.00    +0.000 NA
ATOM     12  C   UNL     1      -0.472  10.328  19.792  0.00  0.00    +0.000 C 
BRANCH   9  13
ATOM     13  C   UNL     1      -3.790  12.776  20.096  0.00  0.00    +0.000 C 
ATOM     14  C   UNL     1      -3.929  12.782  21.627  0.00  0.00    +0.000 C 
ATOM     15  C   UNL     1      -4.731  11.707  19.527  0.00  0.00    +0.000 C 
ENDBRANCH   9  13
BRANCH   7  17
ATOM     16  C   UNL     1      -0.677  10.273  23.004  0.00  0.00    +0.000 C 
ATOM     17  O   UNL     1       0.003  11.036  22.001  0.00  0.00    +0.000 OA
ENDBRANCH   7  17
BRANCH  10  18
ATOM     18  O   UNL     1      -2.922  11.731  17.495  0.00  0.00    +0.000 OA
ATOM     19  C   UNL     1      -2.628  10.988  16.302  0.00  0.00    +0.000 C 
ENDBRANCH  10  18
ENDBRANCH   6  12
ENDBRANCH   1   6
BRANCH   4  20
ATOM     20  C   UNL     1       2.978   5.291  19.772  0.00  0.00    +0.000 C 
BRANCH  20  21
ATOM     21  C   UNL     1       4.170   4.737  18.968  0.00  0.00    +0.000 C 
ATOM     22  N   UNL     1       5.153   5.815  18.777  0.00  0.00    +0.000 NA
ATOM     23  C   UNL     1       5.455   6.150  17.569  0.00  0.00    +0.000 C 
ATOM     24  C   UNL     1       5.004   5.478  16.281  0.00  0.00    +0.000 C 
ATOM     25  N   UNL     1       4.098   4.340  16.494  0.00  0.00    +0.000 NA
ATOM     26  C   UNL     1       3.738   4.052  17.691  0.00  0.00    +0.000 C 
BRANCH  24  27
ATOM     27  C   UNL     1       6.185   5.015  15.384  0.00  0.00    +0.000 C 
ATOM     28  C   UNL     1       7.226   4.190  16.145  0.00  0.00    +0.000 C 
ATOM     29  C   UNL     1       5.705   4.202  14.169  0.00  0.00    +0.000 C 
ENDBRANCH  24  27
BRANCH  23  30
ATOM     30  O   UNL     1       6.235   7.243  17.331  0.00  0.00    +0.000 OA
ATOM     31  C   UNL     1       7.543   7.228  17.913  0.00  0.00    +0.000 C 
ENDBRANCH  23  30
BRANCH  26  32
ATOM     32  O   UNL     1       2.913   2.998  17.938  0.00  0.00    +0.000 OA
ATOM     33  C   UNL     1       3.549   1.810  18.429  0.00  0.00    +0.000 C 
ENDBRANCH  26  32
ENDBRANCH  20  21
ENDBRANCH   4  20
TORSDOF 10
ENDMDL
MODEL 4
REMARK VINA RESULT:      -7.3      3.605      5.917
REMARK  Name = 
REMARK  18 active torsions:
REMARK  status: ('A' for Active; 'I' for Inactive)
REMARK    1  A    between atoms: C_1  and  O_2
REMARK    2  A    between atoms: O_2  and  C_3
REMARK    3  A    between atoms: C_5  and  C_6
REMARK    4  A    between atoms: C_6  and  C_7
REMARK    5  A    between atoms: C_6  and  C_8
REMARK    6  A    between atoms: C_9  and  O_10
REMARK    7  A    between atoms: O_10  and  C_11
REMARK    8  A    between atoms: C_13  and  C_14
REMARK    9  A    between atoms: C_14  and  C_15
REMARK   10  A    between atoms: C_18  and  C_19
REMARK   11  A    between atoms: C_19  and  C_20
REMARK   12  A    between atoms: C_22  and  O_23
REMARK   13  A    between atoms: O_23  and  C_24
REMARK   14  A    between atoms: C_25  and  C_26
REMARK   15  A    between atoms: C_26  and  C_27
REMARK   16  A    between atoms: C_26  and  C_28
REMARK   17  A    between atoms: C_30  and  O_31
REMARK   18  A    between atoms: O_31  and  C_32
REMARK                            x       y       z     vdW  Elec       q    Type
REMARK                         _______ _______ _______ _____ _____    ______ ____
ROOT
ATOM      1  C   UNL     1      -0.964  10.706  22.545  0.00  0.00    +0.000 A 
ATOM      2  C   UNL     1      -0.773  10.886  21.190  0.00  0.00    +0.000 A 
ATOM      3  C   UNL     1       0.203  10.009  20.657  0.00  0.00    +0.000 A 
ATOM      4  C   UNL     1       0.763   9.189  21.614  0.00  0.00    +0.000 A 
ATOM      5  S   UNL     1       0.066   9.476  23.155  0.00  0.00    +0.000 S 
ENDROOT
BRANCH   1   6
ATOM      6  C   UNL     1      -1.970  11.432  23.407  0.00  0.00    +0.000 C 
BRANCH   6  12
ATOM      7  C   UNL     1      -3.677  13.285  23.473  0.00  0.00    +0.000 C 
ATOM      8  N   UNL     1      -3.936  14.284  24.231  0.00  0.00    +0.000 NA
ATOM      9  C   UNL     1      -2.831  15.158  24.647  0.00  0.00    +0.000 C 
ATOM     10  C   UNL     1      -1.484  14.782  24.023  0.00  0.00    +0.000 C 
ATOM     11  N   UNL     1      -1.225  13.788  23.252  0.00  0.00    +0.000 NA
ATOM     12  C   UNL     1      -2.329  12.855  22.946  0.00  0.00    +0.000 C 
BRANCH   9  13
ATOM     13  C   UNL     1      -3.258  16.627  24.366  0.00  0.00    +0.000 C 
ATOM     14  C   UNL     1      -4.601  16.969  25.031  0.00  0.00    +0.000 C 
ATOM     15  C   UNL     1      -3.366  16.931  22.867  0.00  0.00    +0.000 C 
ENDBRANCH   9  13
BRANCH   7  17
ATOM     16  C   UNL     1      -5.996  13.008  23.068  0.00  0.00    +0.000 C 
ATOM     17  O   UNL     1      -4.667  12.479  23.001  0.00  0.00    +0.000 OA
ENDBRANCH   7  17
BRANCH  10  18
ATOM     18  O   UNL     1      -0.498  15.632  24.425  0.00  0.00    +0.000 OA
ATOM     19  C   UNL     1       0.320  16.214  23.398  0.00  0.00    +0.000 C 
ENDBRANCH  10  18
ENDBRANCH   6  12
ENDBRANCH   1   6
BRANCH   4  20
ATOM     20  C   UNL     1       1.866   8.178  21.393  0.00  0.00    +0.000 C 
BRANCH  20  21
ATOM     21  C   UNL     1       1.608   7.180  20.248  0.00  0.00    +0.000 C 
ATOM     22  N   UNL     1       1.547   5.822  20.811  0.00  0.00    +0.000 NA
ATOM     23  C   UNL     1       2.394   4.950  20.379  0.00  0.00    +0.000 C 
ATOM     24  C   UNL     1       3.400   5.115  19.250  0.00  0.00    +0.000 C 
ATOM     25  N   UNL     1       3.381   6.449  18.633  0.00  0.00    +0.000 NA
ATOM     26  C   UNL     1       2.591   7.340  19.109  0.00  0.00    +0.000 C 
BRANCH  24  27
ATOM     27  C   UNL     1       3.249   4.046  18.133  0.00  0.00    +0.000 C 
ATOM     28  C   UNL     1       1.831   3.977  17.559  0.00  0.00    +0.000 C 
ATOM     29  C   UNL     1       4.238   4.273  16.977  0.00  0.00    +0.000 C 
ENDBRANCH  24  27
BRANCH  23  30
ATOM     30  O   UNL     1       2.489   3.727  20.975  0.00  0.00    +0.000 OA
ATOM     31  C   UNL     1       1.260   3.016  21.162  0.00  0.00    +0.000 C 
ENDBRANCH  23  30
BRANCH  26  32
ATOM     32  O   UNL     1       2.528   8.584  18.560  0.00  0.00    +0.000 OA
ATOM     33  C   UNL     1       1.469   8.797  17.617  0.00  0.00    +0.000 C 
ENDBRANCH  26  32
ENDBRANCH  20  21
ENDBRANCH   4  20
TORSDOF 10
ENDMDL
MODEL 5
REMARK VINA RESULT:      -7.3      0.542      9.730
REMARK  Name = 
REMARK  18 active torsions:
REMARK  status: ('A' for Active; 'I' for Inactive)
REMARK    1  A    between atoms: C_1  and  O_2
REMARK    2  A    between atoms: O_2  and  C_3
REMARK    3  A    between atoms: C_5  and  C_6
REMARK    4  A    between atoms: C_6  and  C_7
REMARK    5  A    between atoms: C_6  and  C_8
REMARK    6  A    between atoms: C_9  and  O_10
REMARK    7  A    between atoms: O_10  and  C_11
REMARK    8  A    between atoms: C_13  and  C_14
REMARK    9  A    between atoms: C_14  and  C_15
REMARK   10  A    between atoms: C_18  and  C_19
REMARK   11  A    between atoms: C_19  and  C_20
REMARK   12  A    between atoms: C_22  and  O_23
REMARK   13  A    between atoms: O_23  and  C_24
REMARK   14  A    between atoms: C_25  and  C_26
REMARK   15  A    between atoms: C_26  and  C_27
REMARK   16  A    between atoms: C_26  and  C_28
REMARK   17  A    between atoms: C_30  and  O_31
REMARK   18  A    between atoms: O_31  and  C_32
REMARK                            x       y       z     vdW  Elec       q    Type
REMARK                         _______ _______ _______ _____ _____    ______ ____
ROOT
ATOM      1  C   UNL     1       2.492   6.903  19.222  0.00  0.00    +0.000 A 
ATOM      2  C   UNL     1       2.524   7.298  17.899  0.00  0.00    +0.000 A 
ATOM      3  C   UNL     1       1.939   8.572  17.698  0.00  0.00    +0.000 A 
ATOM      4  C   UNL     1       1.446   9.123  18.863  0.00  0.00    +0.000 A 
ATOM      5  S   UNL     1       1.730   8.088  20.202  0.00  0.00    +0.000 S 
ENDROOT
BRANCH   1   6
ATOM      6  C   UNL     1       3.081   5.632  19.785  0.00  0.00    +0.000 C 
BRANCH   6  12
ATOM      7  C   UNL     1       3.888   4.240  17.844  0.00  0.00    +0.000 C 
ATOM      8  N   UNL     1       4.172   4.439  16.611  0.00  0.00    +0.000 NA
ATOM      9  C   UNL     1       5.013   5.591  16.259  0.00  0.00    +0.000 C 
ATOM     10  C   UNL     1       5.520   6.374  17.473  0.00  0.00    +0.000 C 
ATOM     11  N   UNL     1       5.247   6.167  18.711  0.00  0.00    +0.000 NA
ATOM     12  C   UNL     1       4.302   5.078  19.030  0.00  0.00    +0.000 C 
BRANCH   9  13
ATOM     13  C   UNL     1       6.151   5.079  15.331  0.00  0.00    +0.000 C 
ATOM     14  C   UNL     1       5.605   4.223  14.176  0.00  0.00    +0.000 C 
ATOM     15  C   UNL     1       7.203   4.259  16.087  0.00  0.00    +0.000 C 
ENDBRANCH   9  13
BRANCH   7  17
ATOM     16  C   UNL     1       3.866   2.193  19.038  0.00  0.00    +0.000 C 
ATOM     17  O   UNL     1       3.168   3.154  18.238  0.00  0.00    +0.000 OA
ENDBRANCH   7  17
BRANCH  10  18
ATOM     18  O   UNL     1       6.309   7.418  17.095  0.00  0.00    +0.000 OA
ATOM     19  C   UNL     1       7.580   7.546  17.751  0.00  0.00    +0.000 C 
ENDBRANCH  10  18
ENDBRANCH   6  12
ENDBRANCH   1   6
BRANCH   4  20
ATOM     20  C   UNL     1       0.717  10.441  18.992  0.00  0.00    +0.000 C 
BRANCH  20  21
ATOM     21  C   UNL     1      -0.782  10.320  19.330  0.00  0.00    +0.000 C 
ATOM     22  N   UNL     1      -1.477   9.714  18.184  0.00  0.00    +0.000 NA
ATOM     23  C   UNL     1      -2.423  10.389  17.624  0.00  0.00    +0.000 C 
ATOM     24  C   UNL     1      -3.007  11.718  18.079  0.00  0.00    +0.000 C 
ATOM     25  N   UNL     1      -2.365  12.264  19.284  0.00  0.00    +0.000 NA
ATOM     26  C   UNL     1      -1.377  11.630  19.800  0.00  0.00    +0.000 C 
BRANCH  24  27
ATOM     27  C   UNL     1      -4.542  11.666  18.312  0.00  0.00    +0.000 C 
ATOM     28  C   UNL     1      -5.073  10.239  18.481  0.00  0.00    +0.000 C 
ATOM     29  C   UNL     1      -4.972  12.499  19.531  0.00  0.00    +0.000 C 
ENDBRANCH  24  27
BRANCH  23  30
ATOM     30  O   UNL     1      -2.992   9.949  16.466  0.00  0.00    +0.000 OA
ATOM     31  C   UNL     1      -2.793  10.772  15.309  0.00  0.00    +0.000 C 
ENDBRANCH  23  30
BRANCH  26  32
ATOM     32  O   UNL     1      -0.761  12.089  20.924  0.00  0.00    +0.000 OA
ATOM     33  C   UNL     1      -0.444  13.487  20.934  0.00  0.00    +0.000 C 
ENDBRANCH  26  32
ENDBRANCH  20  21
ENDBRANCH   4  20
TORSDOF 10
ENDMDL
MODEL 6
REMARK VINA RESULT:      -7.2      2.601      3.493
REMARK  Name = 
REMARK  18 active torsions:
REMARK  status: ('A' for Active; 'I' for Inactive)
REMARK    1  A    between atoms: C_1  and  O_2
REMARK    2  A    between atoms: O_2  and  C_3
REMARK    3  A    between atoms: C_5  and  C_6
REMARK    4  A    between atoms: C_6  and  C_7
REMARK    5  A    between atoms: C_6  and  C_8
REMARK    6  A    between atoms: C_9  and  O_10
REMARK    7  A    between atoms: O_10  and  C_11
REMARK    8  A    between atoms: C_13  and  C_14
REMARK    9  A    between atoms: C_14  and  C_15
REMARK   10  A    between atoms: C_18  and  C_19
REMARK   11  A    between atoms: C_19  and  C_20
REMARK   12  A    between atoms: C_22  and  O_23
REMARK   13  A    between atoms: O_23  and  C_24
REMARK   14  A    between atoms: C_25  and  C_26
REMARK   15  A    between atoms: C_26  and  C_27
REMARK   16  A    between atoms: C_26  and  C_28
REMARK   17  A    between atoms: C_30  and  O_31
REMARK   18  A    between atoms: O_31  and  C_32
REMARK                            x       y       z     vdW  Elec       q    Type
REMARK                         _______ _______ _______ _____ _____    ______ ____
ROOT
ATOM      1  C   UNL     1       1.417   8.919  18.993  0.00  0.00    +0.000 A 
ATOM      2  C   UNL     1       2.006   8.438  17.840  0.00  0.00    +0.000 A 
ATOM      3  C   UNL     1       2.655   7.194  18.039  0.00  0.00    +0.000 A 
ATOM      4  C   UNL     1       2.575   6.753  19.344  0.00  0.00    +0.000 A 
ATOM      5  S   UNL     1       1.679   7.852  20.311  0.00  0.00    +0.000 S 
ENDROOT
BRANCH   1   6
ATOM      6  C   UNL     1       0.599  10.182  19.113  0.00  0.00    +0.000 C 
BRANCH   6  12
ATOM      7  C   UNL     1       1.019  12.641  19.472  0.00  0.00    +0.000 C 
ATOM      8  N   UNL     1       0.380  13.630  19.976  0.00  0.00    +0.000 NA
ATOM      9  C   UNL     1      -0.279  13.455  21.277  0.00  0.00    +0.000 C 
ATOM     10  C   UNL     1      -0.028  12.084  21.912  0.00  0.00    +0.000 C 
ATOM     11  N   UNL     1       0.624  11.096  21.414  0.00  0.00    +0.000 NA
ATOM     12  C   UNL     1       1.174  11.256  20.052  0.00  0.00    +0.000 C 
BRANCH   9  13
ATOM     13  C   UNL     1       0.142  14.646  22.184  0.00  0.00    +0.000 C 
ATOM     14  C   UNL     1      -1.072  15.466  22.651  0.00  0.00    +0.000 C 
ATOM     15  C   UNL     1       1.130  15.592  21.491  0.00  0.00    +0.000 C 
ENDBRANCH   9  13
BRANCH   7  17
ATOM     16  C   UNL     1       2.944  13.476  18.370  0.00  0.00    +0.000 C 
ATOM     17  O   UNL     1       1.704  12.762  18.303  0.00  0.00    +0.000 OA
ENDBRANCH   7  17
BRANCH  10  18
ATOM     18  O   UNL     1      -0.643  11.979  23.122  0.00  0.00    +0.000 OA
ATOM     19  C   UNL     1      -2.060  11.750  23.116  0.00  0.00    +0.000 C 
ENDBRANCH  10  18
ENDBRANCH   6  12
ENDBRANCH   1   6
BRANCH   4  20
ATOM     20  C   UNL     1       3.202   5.497  19.904  0.00  0.00    +0.000 C 
BRANCH  20  21
ATOM     21  C   UNL     1       4.336   4.902  19.047  0.00  0.00    +0.000 C 
ATOM     22  N   UNL     1       5.329   5.955  18.783  0.00  0.00    +0.000 NA
ATOM     23  C   UNL     1       5.572   6.262  17.553  0.00  0.00    +0.000 C 
ATOM     24  C   UNL     1       5.035   5.579  16.305  0.00  0.00    +0.000 C 
ATOM     25  N   UNL     1       4.118   4.465  16.588  0.00  0.00    +0.000 NA
ATOM     26  C   UNL     1       3.819   4.205  17.808  0.00  0.00    +0.000 C 
BRANCH  24  27
ATOM     27  C   UNL     1       6.155   5.074  15.353  0.00  0.00    +0.000 C 
ATOM     28  C   UNL     1       7.205   4.219  16.066  0.00  0.00    +0.000 C 
ATOM     29  C   UNL     1       5.589   4.273  14.168  0.00  0.00    +0.000 C 
ENDBRANCH  24  27
BRANCH  23  30
ATOM     30  O   UNL     1       6.360   7.334  17.253  0.00  0.00    +0.000 OA
ATOM     31  C   UNL     1       7.666   7.345  17.841  0.00  0.00    +0.000 C 
ENDBRANCH  23  30
BRANCH  26  32
ATOM     32  O   UNL     1       2.987   3.174  18.119  0.00  0.00    +0.000 OA
ATOM     33  C   UNL     1       3.620   1.997  18.640  0.00  0.00    +0.000 C 
ENDBRANCH  26  32
ENDBRANCH  20  21
ENDBRANCH   4  20
TORSDOF 10
ENDMDL
MODEL 7
REMARK VINA RESULT:      -7.2      0.761      9.785
REMARK  Name = 
REMARK  18 active torsions:
REMARK  status: ('A' for Active; 'I' for Inactive)
REMARK    1  A    between atoms: C_1  and  O_2
REMARK    2  A    between atoms: O_2  and  C_3
REMARK    3  A    between atoms: C_5  and  C_6
REMARK    4  A    between atoms: C_6  and  C_7
REMARK    5  A    between atoms: C_6  and  C_8
REMARK    6  A    between atoms: C_9  and  O_10
REMARK    7  A    between atoms: O_10  and  C_11
REMARK    8  A    between atoms: C_13  and  C_14
REMARK    9  A    between atoms: C_14  and  C_15
REMARK   10  A    between atoms: C_18  and  C_19
REMARK   11  A    between atoms: C_19  and  C_20
REMARK   12  A    between atoms: C_22  and  O_23
REMARK   13  A    between atoms: O_23  and  C_24
REMARK   14  A    between atoms: C_25  and  C_26
REMARK   15  A    between atoms: C_26  and  C_27
REMARK   16  A    between atoms: C_26  and  C_28
REMARK   17  A    between atoms: C_30  and  O_31
REMARK   18  A    between atoms: O_31  and  C_32
REMARK                            x       y       z     vdW  Elec       q    Type
REMARK                         _______ _______ _______ _____ _____    ______ ____
ROOT
ATOM      1  C   UNL     1       2.606   6.719  19.286  0.00  0.00    +0.000 A 
ATOM      2  C   UNL     1       2.884   7.067  17.979  0.00  0.00    +0.000 A 
ATOM      3  C   UNL     1       2.363   8.337  17.632  0.00  0.00    +0.000 A 
ATOM      4  C   UNL     1       1.673   8.932  18.668  0.00  0.00    +0.000 A 
ATOM      5  S   UNL     1       1.696   7.943  20.070  0.00  0.00    +0.000 S 
ENDROOT
BRANCH   1   6
ATOM      6  C   UNL     1       3.066   5.464  19.989  0.00  0.00    +0.000 C 
BRANCH   6  12
ATOM      7  C   UNL     1       3.598   4.173  17.891  0.00  0.00    +0.000 C 
ATOM      8  N   UNL     1       4.089   4.434  16.737  0.00  0.00    +0.000 NA
ATOM      9  C   UNL     1       5.307   5.251  16.657  0.00  0.00    +0.000 C 
ATOM     10  C   UNL     1       5.888   5.621  18.025  0.00  0.00    +0.000 C 
ATOM     11  N   UNL     1       5.404   5.348  19.183  0.00  0.00    +0.000 NA
ATOM     12  C   UNL     1       4.115   4.629  19.234  0.00  0.00    +0.000 C 
BRANCH   9  13
ATOM     13  C   UNL     1       6.314   4.509  15.734  0.00  0.00    +0.000 C 
ATOM     14  C   UNL     1       6.927   5.450  14.684  0.00  0.00    +0.000 C 
ATOM     15  C   UNL     1       5.679   3.318  15.007  0.00  0.00    +0.000 C 
ENDBRANCH   9  13
BRANCH   7  17
ATOM     16  C   UNL     1       2.775   2.015  18.426  0.00  0.00    +0.000 C 
ATOM     17  O   UNL     1       2.511   3.367  18.032  0.00  0.00    +0.000 OA
ENDBRANCH   7  17
BRANCH  10  18
ATOM     18  O   UNL     1       7.024   6.361  17.897  0.00  0.00    +0.000 OA
ATOM     19  C   UNL     1       7.958   6.315  18.987  0.00  0.00    +0.000 C 
ENDBRANCH  10  18
ENDBRANCH   6  12
ENDBRANCH   1   6
BRANCH   4  20
ATOM     20  C   UNL     1       0.951  10.260  18.617  0.00  0.00    +0.000 C 
BRANCH  20  21
ATOM     21  C   UNL     1      -0.511  10.219  19.103  0.00  0.00    +0.000 C 
ATOM     22  N   UNL     1      -1.327   9.535  18.087  0.00  0.00    +0.000 NA
ATOM     23  C   UNL     1      -2.305  10.188  17.557  0.00  0.00    +0.000 C 
ATOM     24  C   UNL     1      -2.811  11.571  17.941  0.00  0.00    +0.000 C 
ATOM     25  N   UNL     1      -2.044  12.201  19.026  0.00  0.00    +0.000 NA
ATOM     26  C   UNL     1      -1.026  11.583  19.503  0.00  0.00    +0.000 C 
BRANCH  24  27
ATOM     27  C   UNL     1      -4.318  11.590  18.319  0.00  0.00    +0.000 C 
ATOM     28  C   UNL     1      -4.616  12.458  19.544  0.00  0.00    +0.000 C 
ATOM     29  C   UNL     1      -5.201  12.064  17.152  0.00  0.00    +0.000 C 
ENDBRANCH  24  27
BRANCH  23  30
ATOM     30  O   UNL     1      -2.992   9.666  16.502  0.00  0.00    +0.000 OA
ATOM     31  C   UNL     1      -2.738  10.259  15.223  0.00  0.00    +0.000 C 
ENDBRANCH  23  30
BRANCH  26  32
ATOM     32  O   UNL     1      -0.295  12.120  20.518  0.00  0.00    +0.000 OA
ATOM     33  C   UNL     1      -0.843  13.298  21.126  0.00  0.00    +0.000 C 
ENDBRANCH  26  32
ENDBRANCH  20  21
ENDBRANCH   4  20
TORSDOF 10
ENDMDL
MODEL 8
REMARK VINA RESULT:      -7.1      1.774      9.865
REMARK  Name = 
REMARK  18 active torsions:
REMARK  status: ('A' for Active; 'I' for Inactive)
REMARK    1  A    between atoms: C_1  and  O_2
REMARK    2  A    between atoms: O_2  and  C_3
REMARK    3  A    between atoms: C_5  and  C_6
REMARK    4  A    between atoms: C_6  and  C_7
REMARK    5  A    between atoms: C_6  and  C_8
REMARK    6  A    between atoms: C_9  and  O_10
REMARK    7  A    between atoms: O_10  and  C_11
REMARK    8  A    between atoms: C_13  and  C_14
REMARK    9  A    between atoms: C_14  and  C_15
REMARK   10  A    between atoms: C_18  and  C_19
REMARK   11  A    between atoms: C_19  and  C_20
REMARK   12  A    between atoms: C_22  and  O_23
REMARK   13  A    between atoms: O_23  and  C_24
REMARK   14  A    between atoms: C_25  and  C_26
REMARK   15  A    between atoms: C_26  and  C_27
REMARK   16  A    between atoms: C_26  and  C_28
REMARK   17  A    between atoms: C_30  and  O_31
REMARK   18  A    between atoms: O_31  and  C_32
REMARK                            x       y       z     vdW  Elec       q    Type
REMARK                         _______ _______ _______ _____ _____    ______ ____
ROOT
ATOM      1  C   UNL     1       2.390   8.203  18.702  0.00  0.00    +0.000 A 
ATOM      2  C   UNL     1       1.860   8.118  19.974  0.00  0.00    +0.000 A 
ATOM      3  C   UNL     1       0.866   9.097  20.216  0.00  0.00    +0.000 A 
ATOM      4  C   UNL     1       0.666   9.933  19.137  0.00  0.00    +0.000 A 
ATOM      5  S   UNL     1       1.677   9.492  17.822  0.00  0.00    +0.000 S 
ENDROOT
BRANCH   1   6
ATOM      6  C   UNL     1       3.421   7.276  18.104  0.00  0.00    +0.000 C 
BRANCH   6  12
ATOM      7  C   UNL     1       4.064   4.912  17.510  0.00  0.00    +0.000 C 
ATOM      8  N   UNL     1       4.330   3.833  18.146  0.00  0.00    +0.000 NA
ATOM      9  C   UNL     1       3.435   3.417  19.235  0.00  0.00    +0.000 C 
ATOM     10  C   UNL     1       2.216   4.328  19.408  0.00  0.00    +0.000 C 
ATOM     11  N   UNL     1       1.941   5.403  18.762  0.00  0.00    +0.000 NA
ATOM     12  C   UNL     1       2.918   5.865  17.754  0.00  0.00    +0.000 C 
BRANCH   9  13
ATOM     13  C   UNL     1       3.068   1.925  19.002  0.00  0.00    +0.000 C 
ATOM     14  C   UNL     1       4.319   1.055  18.785  0.00  0.00    +0.000 C 
ATOM     15  C   UNL     1       2.128   1.730  17.806  0.00  0.00    +0.000 C 
ENDBRANCH   9  13
BRANCH   7  17
ATOM     16  C   UNL     1       5.281   4.276  15.578  0.00  0.00    +0.000 C 
ATOM     17  O   UNL     1       4.817   5.313  16.450  0.00  0.00    +0.000 OA
ENDBRANCH   7  17
BRANCH  10  18
ATOM     18  O   UNL     1       1.411   3.890  20.415  0.00  0.00    +0.000 OA
ATOM     19  C   UNL     1       2.044   3.562  21.661  0.00  0.00    +0.000 C 
ENDBRANCH  10  18
ENDBRANCH   6  12
ENDBRANCH   1   6
BRANCH   4  20
ATOM     20  C   UNL     1      -0.279  11.111  19.080  0.00  0.00    +0.000 C 
BRANCH  20  21
ATOM     21  C   UNL     1      -1.772  10.748  19.195  0.00  0.00    +0.000 C 
ATOM     22  N   UNL     1      -2.148   9.921  18.038  0.00  0.00    +0.000 NA
ATOM     23  C   UNL     1      -3.081  10.356  17.261  0.00  0.00    +0.000 C 
ATOM     24  C   UNL     1      -3.948  11.591  17.457  0.00  0.00    +0.000 C 
ATOM     25  N   UNL     1      -3.624  12.354  18.671  0.00  0.00    +0.000 NA
ATOM     26  C   UNL     1      -2.648  11.963  19.405  0.00  0.00    +0.000 C 
BRANCH  24  27
ATOM     27  C   UNL     1      -5.470  11.278  17.455  0.00  0.00    +0.000 C 
ATOM     28  C   UNL     1      -5.930  10.536  18.713  0.00  0.00    +0.000 C 
ATOM     29  C   UNL     1      -6.322  12.549  17.294  0.00  0.00    +0.000 C 
ENDBRANCH  24  27
BRANCH  23  30
ATOM     30  O   UNL     1      -3.360   9.714  16.091  0.00  0.00    +0.000 OA
ATOM     31  C   UNL     1      -2.924  10.364  14.892  0.00  0.00    +0.000 C 
ENDBRANCH  23  30
BRANCH  26  32
ATOM     32  O   UNL     1      -2.321  12.629  20.546  0.00  0.00    +0.000 OA
ATOM     33  C   UNL     1      -3.162  13.741  20.882  0.00  0.00    +0.000 C 
ENDBRANCH  26  32
ENDBRANCH  20  21
ENDBRANCH   4  20
TORSDOF 10
ENDMDL
MODEL 9
REMARK VINA RESULT:      -7.0      2.316      4.537
REMARK  Name = 
REMARK  18 active torsions:
REMARK  status: ('A' for Active; 'I' for Inactive)
REMARK    1  A    between atoms: C_1  and  O_2
REMARK    2  A    between atoms: O_2  and  C_3
REMARK    3  A    between atoms: C_5  and  C_6
REMARK    4  A    between atoms: C_6  and  C_7
REMARK    5  A    between atoms: C_6  and  C_8
REMARK    6  A    between atoms: C_9  and  O_10
REMARK    7  A    between atoms: O_10  and  C_11
REMARK    8  A    between atoms: C_13  and  C_14
REMARK    9  A    between atoms: C_14  and  C_15
REMARK   10  A    between atoms: C_18  and  C_19
REMARK   11  A    between atoms: C_19  and  C_20
REMARK   12  A    between atoms: C_22  and  O_23
REMARK   13  A    between atoms: O_23  and  C_24
REMARK   14  A    between atoms: C_25  and  C_26
REMARK   15  A    between atoms: C_26  and  C_27
REMARK   16  A    between atoms: C_26  and  C_28
REMARK   17  A    between atoms: C_30  and  O_31
REMARK   18  A    between atoms: O_31  and  C_32
REMARK                            x       y       z     vdW  Elec       q    Type
REMARK                         _______ _______ _______ _____ _____    ______ ____
ROOT
ATOM      1  C   UNL     1       1.103   8.862  19.767  0.00  0.00    +0.000 A 
ATOM      2  C   UNL     1       1.677   7.834  20.488  0.00  0.00    +0.000 A 
ATOM      3  C   UNL     1       2.678   7.149  19.756  0.00  0.00    +0.000 A 
ATOM      4  C   UNL     1       2.839   7.646  18.480  0.00  0.00    +0.000 A 
ATOM      5  S   UNL     1       1.784   8.969  18.196  0.00  0.00    +0.000 S 
ENDROOT
BRANCH   1   6
ATOM      6  C   UNL     1       0.052   9.823  20.270  0.00  0.00    +0.000 C 
BRANCH   6  12
ATOM      7  C   UNL     1      -1.260  11.874  19.620  0.00  0.00    +0.000 C 
ATOM      8  N   UNL     1      -1.638  12.956  20.192  0.00  0.00    +0.000 NA
ATOM      9  C   UNL     1      -0.660  13.715  20.981  0.00  0.00    +0.000 C 
ATOM     10  C   UNL     1       0.752  13.124  20.940  0.00  0.00    +0.000 C 
ATOM     11  N   UNL     1       1.136  12.047  20.356  0.00  0.00    +0.000 NA
ATOM     12  C   UNL     1       0.108  11.238  19.670  0.00  0.00    +0.000 C 
BRANCH   9  13
ATOM     13  C   UNL     1      -0.727  15.198  20.519  0.00  0.00    +0.000 C 
ATOM     14  C   UNL     1      -2.147  15.774  20.648  0.00  0.00    +0.000 C 
ATOM     15  C   UNL     1      -0.257  15.384  19.071  0.00  0.00    +0.000 C 
ENDBRANCH   9  13
BRANCH   7  17
ATOM     16  C   UNL     1      -3.378  11.760  18.563  0.00  0.00    +0.000 C 
ATOM     17  O   UNL     1      -2.102  11.163  18.822  0.00  0.00    +0.000 OA
ENDBRANCH   7  17
BRANCH  10  18
ATOM     18  O   UNL     1       1.624  13.873  21.671  0.00  0.00    +0.000 OA
ATOM     19  C   UNL     1       2.934  14.076  21.117  0.00  0.00    +0.000 C 
ENDBRANCH  10  18
ENDBRANCH   6  12
ENDBRANCH   1   6
BRANCH   4  20
ATOM     20  C   UNL     1       3.782   7.113  17.424  0.00  0.00    +0.000 C 
BRANCH  20  21
ATOM     21  C   UNL     1       3.920   5.579  17.396  0.00  0.00    +0.000 C 
ATOM     22  N   UNL     1       2.595   4.982  17.627  0.00  0.00    +0.000 NA
ATOM     23  C   UNL     1       2.452   4.203  18.646  0.00  0.00    +0.000 C 
ATOM     24  C   UNL     1       3.534   3.717  19.598  0.00  0.00    +0.000 C 
ATOM     25  N   UNL     1       4.871   4.247  19.295  0.00  0.00    +0.000 NA
ATOM     26  C   UNL     1       5.002   5.078  18.327  0.00  0.00    +0.000 C 
BRANCH  24  27
ATOM     27  C   UNL     1       3.620   2.168  19.690  0.00  0.00    +0.000 C 
ATOM     28  C   UNL     1       3.647   1.489  18.318  0.00  0.00    +0.000 C 
ATOM     29  C   UNL     1       4.846   1.703  20.494  0.00  0.00    +0.000 C 
ENDBRANCH  24  27
BRANCH  23  30
ATOM     30  O   UNL     1       1.216   3.750  19.000  0.00  0.00    +0.000 OA
ATOM     31  C   UNL     1       0.816   3.993  20.354  0.00  0.00    +0.000 C 
ENDBRANCH  23  30
BRANCH  26  32
ATOM     32  O   UNL     1       6.223   5.584  17.999  0.00  0.00    +0.000 OA
ATOM     33  C   UNL     1       7.128   4.667  17.369  0.00  0.00    +0.000 C 
ENDBRANCH  26  32
ENDBRANCH  20  21
ENDBRANCH   4  20
TORSDOF 10
ENDMDL
