MODEL 1
REMARK VINA RESULT:      -6.8      0.000      0.000
REMARK  Name = 
REMARK  14 active torsions:
REMARK  status: ('A' for Active; 'I' for Inactive)
REMARK    1  A    between atoms: C_1  and  C_2
REMARK    2  A    between atoms: C_2  and  N_3
REMARK    3  A    between atoms: C_4  and  C_6
REMARK    4  A    between atoms: C_9  and  C_10
REMARK    5  A    between atoms: C_12  and  C_13
REMARK    6  A    between atoms: C_13  and  C_14
REMARK    7  A    between atoms: C_13  and  C_15
REMARK    8  A    between atoms: C_16  and  O_17
REMARK    9  A    between atoms: C_19  and  O_20
REMARK   10  A    between atoms: C_21  and  C_22
REMARK   11  A    between atoms: C_23  and  C_24
REMARK   12  A    between atoms: C_24  and  N_25
REMARK   13  A    between atoms: C_27  and  C_28
REMARK   14  A    between atoms: C_30  and  C_31
REMARK                            x       y       z     vdW  Elec       q    Type
REMARK                         _______ _______ _______ _____ _____    ______ ____
ROOT
ATOM      1  C   UNL     1       6.975   6.704  18.014  0.00  0.00    +0.000 A 
ATOM      2  N   UNL     1       7.697   5.583  18.219  0.00  0.00    +0.000 NA
ATOM      3  O   UNL     1       6.766   4.558  18.372  0.00  0.00    +0.000 OA
ATOM      4  C   UNL     1       5.494   5.049  18.248  0.00  0.00    +0.000 A 
ATOM      5  C   UNL     1       5.596   6.408  18.049  0.00  0.00    +0.000 A 
ENDROOT
BRANCH   4   6
ATOM      6  C   UNL     1       4.404   4.083  18.307  0.00  0.00    +0.000 A 
ATOM      7  C   UNL     1       3.397   4.185  19.292  0.00  0.00    +0.000 A 
ATOM      8  C   UNL     1       2.344   3.243  19.401  0.00  0.00    +0.000 A 
ATOM      9  C   UNL     1       2.328   2.187  18.478  0.00  0.00    +0.000 A 
ATOM     10  C   UNL     1       3.303   2.072  17.494  0.00  0.00    +0.000 A 
ATOM     11  C   UNL     1       4.324   3.010  17.406  0.00  0.00    +0.000 A 
BRANCH   8  12
ATOM     12  C   UNL     1       1.327   3.332  20.535  0.00  0.00    +0.000 C 
ATOM     13  C   UNL     1       1.979   2.911  21.858  0.00  0.00    +0.000 C 
ATOM     14  C   UNL     1       0.648   4.694  20.709  0.00  0.00    +0.000 C 
ENDBRANCH   8  12
BRANCH   9  15
ATOM     15  O   UNL     1       1.400   1.185  18.472  0.00  0.00    +0.000 OA
ATOM     16  H   UNL     1       0.545   1.521  18.176  0.00  0.00    +0.000 HD
ENDBRANCH   9  15
BRANCH  11  17
ATOM     17  O   UNL     1       5.291   2.818  16.458  0.00  0.00    +0.000 OA
ATOM     18  H   UNL     1       4.884   2.624  15.597  0.00  0.00    +0.000 HD
ENDBRANCH  11  17
ENDBRANCH   4   6
BRANCH   1  20
ATOM     19  N   UNL     1       8.493   8.408  18.765  0.00  0.00    +0.000 N 
ATOM     20  C   UNL     1       7.603   8.015  17.785  0.00  0.00    +0.000 C 
ATOM     21  O   UNL     1       7.365   8.708  16.803  0.00  0.00    +0.000 OA
ATOM     22  H   UNL     1       8.608   7.796  19.565  0.00  0.00    +0.000 HD
BRANCH  19  24
ATOM     23  C   UNL     1       9.271  10.363  20.040  0.00  0.00    +0.000 C 
ATOM     24  C   UNL     1       9.215   9.664  18.694  0.00  0.00    +0.000 C 
ENDBRANCH  19  24
ENDBRANCH   1  20
BRANCH   5  25
ATOM     25  C   UNL     1       4.501   7.298  17.894  0.00  0.00    +0.000 C 
ATOM     26  C   UNL     1       3.492   8.111  17.756  0.00  0.00    +0.000 C 
BRANCH  26  27
ATOM     27  C   UNL     1       2.316   9.060  17.594  0.00  0.00    +0.000 C 
BRANCH  27  28
ATOM     28  N   UNL     1       1.665   9.397  18.868  0.00  0.00    +0.000 NA
ATOM     29  C   UNL     1       0.304   9.931  18.663  0.00  0.00    +0.000 C 
ATOM     30  C   UNL     1      -0.352  10.300  20.010  0.00  0.00    +0.000 C 
ATOM     31  C   UNL     1       0.253  11.555  20.620  0.00  0.00    +0.000 C 
ATOM     32  O   UNL     1      -0.380   9.207  20.937  0.00  0.00    +0.000 OA
ATOM     33  C   UNL     1       0.840   8.457  21.058  0.00  0.00    +0.000 C 
ATOM     34  C   UNL     1       1.786   9.073  22.085  0.00  0.00    +0.000 C 
ATOM     35  C   UNL     1       1.515   8.176  19.696  0.00  0.00    +0.000 C 
ENDBRANCH  27  28
ENDBRANCH  26  27
ENDBRANCH   5  25
TORSDOF 9
ENDMDL
MODEL 2
REMARK VINA RESULT:      -6.7      0.648      1.353
REMARK  Name = 
REMARK  14 active torsions:
REMARK  status: ('A' for Active; 'I' for Inactive)
REMARK    1  A    between atoms: C_1  and  C_2
REMARK    2  A    between atoms: C_2  and  N_3
REMARK    3  A    between atoms: C_4  and  C_6
REMARK    4  A    between atoms: C_9  and  C_10
REMARK    5  A    between atoms: C_12  and  C_13
REMARK    6  A    between atoms: C_13  and  C_14
REMARK    7  A    between atoms: C_13  and  C_15
REMARK    8  A    between atoms: C_16  and  O_17
REMARK    9  A    between atoms: C_19  and  O_20
REMARK   10  A    between atoms: C_21  and  C_22
REMARK   11  A    between atoms: C_23  and  C_24
REMARK   12  A    between atoms: C_24  and  N_25
REMARK   13  A    between atoms: C_27  and  C_28
REMARK   14  A    between atoms: C_30  and  C_31
REMARK                            x       y       z     vdW  Elec       q    Type
REMARK                         _______ _______ _______ _____ _____    ______ ____
ROOT
ATOM      1  C   UNL     1       6.663   6.854  17.871  0.00  0.00    +0.000 A 
ATOM      2  N   UNL     1       7.431   5.758  18.047  0.00  0.00    +0.000 NA
ATOM      3  O   UNL     1       6.541   4.702  18.232  0.00  0.00    +0.000 OA
ATOM      4  C   UNL     1       5.250   5.148  18.156  0.00  0.00    +0.000 A 
ATOM      5  C   UNL     1       5.297   6.510  17.955  0.00  0.00    +0.000 A 
ENDROOT
BRANCH   4   6
ATOM      6  C   UNL     1       4.197   4.145  18.252  0.00  0.00    +0.000 A 
ATOM      7  C   UNL     1       3.155   4.275  19.198  0.00  0.00    +0.000 A 
ATOM      8  C   UNL     1       2.137   3.301  19.344  0.00  0.00    +0.000 A 
ATOM      9  C   UNL     1       2.192   2.182  18.499  0.00  0.00    +0.000 A 
ATOM     10  C   UNL     1       3.201   2.037  17.555  0.00  0.00    +0.000 A 
ATOM     11  C   UNL     1       4.188   3.008  17.430  0.00  0.00    +0.000 A 
BRANCH   8  12
ATOM     12  C   UNL     1       1.082   3.428  20.438  0.00  0.00    +0.000 C 
ATOM     13  C   UNL     1       1.526   2.658  21.687  0.00  0.00    +0.000 C 
ATOM     14  C   UNL     1       0.702   4.861  20.827  0.00  0.00    +0.000 C 
ENDBRANCH   8  12
BRANCH   9  15
ATOM     15  O   UNL     1       1.304   1.144  18.539  0.00  0.00    +0.000 OA
ATOM     16  H   UNL     1       1.385   0.665  19.372  0.00  0.00    +0.000 HD
ENDBRANCH   9  15
BRANCH  11  17
ATOM     17  O   UNL     1       5.191   2.789  16.527  0.00  0.00    +0.000 OA
ATOM     18  H   UNL     1       5.704   2.002  16.778  0.00  0.00    +0.000 HD
ENDBRANCH  11  17
ENDBRANCH   4   6
BRANCH   1  20
ATOM     19  N   UNL     1       8.290   8.526  18.448  0.00  0.00    +0.000 N 
ATOM     20  C   UNL     1       7.236   8.186  17.621  0.00  0.00    +0.000 C 
ATOM     21  O   UNL     1       6.822   8.939  16.749  0.00  0.00    +0.000 OA
ATOM     22  H   UNL     1       8.549   7.863  19.170  0.00  0.00    +0.000 HD
BRANCH  19  24
ATOM     23  C   UNL     1       9.332  10.375  19.692  0.00  0.00    +0.000 C 
ATOM     24  C   UNL     1       8.984   9.793  18.333  0.00  0.00    +0.000 C 
ENDBRANCH  19  24
ENDBRANCH   1  20
BRANCH   5  25
ATOM     25  C   UNL     1       4.167   7.361  17.843  0.00  0.00    +0.000 C 
ATOM     26  C   UNL     1       3.126   8.138  17.738  0.00  0.00    +0.000 C 
BRANCH  26  27
ATOM     27  C   UNL     1       1.912   9.045  17.615  0.00  0.00    +0.000 C 
BRANCH  27  28
ATOM     28  N   UNL     1       1.283   9.346  18.909  0.00  0.00    +0.000 NA
ATOM     29  C   UNL     1       1.835   8.512  19.994  0.00  0.00    +0.000 C 
ATOM     30  C   UNL     1       1.145   8.827  21.337  0.00  0.00    +0.000 C 
ATOM     31  C   UNL     1      -0.278   8.291  21.393  0.00  0.00    +0.000 C 
ATOM     32  O   UNL     1       1.214  10.214  21.690  0.00  0.00    +0.000 OA
ATOM     33  C   UNL     1       0.914  11.144  20.639  0.00  0.00    +0.000 C 
ATOM     34  C   UNL     1      -0.582  11.427  20.540  0.00  0.00    +0.000 C 
ATOM     35  C   UNL     1       1.553  10.755  19.286  0.00  0.00    +0.000 C 
ENDBRANCH  27  28
ENDBRANCH  26  27
ENDBRANCH   5  25
TORSDOF 9
ENDMDL
MODEL 3
REMARK VINA RESULT:      -6.7      4.012      7.548
REMARK  Name = 
REMARK  14 active torsions:
REMARK  status: ('A' for Active; 'I' for Inactive)
REMARK    1  A    between atoms: C_1  and  C_2
REMARK    2  A    between atoms: C_2  and  N_3
REMARK    3  A    between atoms: C_4  and  C_6
REMARK    4  A    between atoms: C_9  and  C_10
REMARK    5  A    between atoms: C_12  and  C_13
REMARK    6  A    between atoms: C_13  and  C_14
REMARK    7  A    between atoms: C_13  and  C_15
REMARK    8  A    between atoms: C_16  and  O_17
REMARK    9  A    between atoms: C_19  and  O_20
REMARK   10  A    between atoms: C_21  and  C_22
REMARK   11  A    between atoms: C_23  and  C_24
REMARK   12  A    between atoms: C_24  and  N_25
REMARK   13  A    between atoms: C_27  and  C_28
REMARK   14  A    between atoms: C_30  and  C_31
REMARK                            x       y       z     vdW  Elec       q    Type
REMARK                         _______ _______ _______ _____ _____    ______ ____
ROOT
ATOM      1  C   UNL     1      -0.151  10.649  22.408  0.00  0.00    +0.000 A 
ATOM      2  N   UNL     1       0.682   9.986  23.237  0.00  0.00    +0.000 NA
ATOM      3  O   UNL     1       1.266   8.986  22.463  0.00  0.00    +0.000 OA
ATOM      4  C   UNL     1       0.804   9.049  21.176  0.00  0.00    +0.000 A 
ATOM      5  C   UNL     1      -0.115  10.074  21.120  0.00  0.00    +0.000 A 
ENDROOT
BRANCH   4   6
ATOM      6  C   UNL     1       1.381   8.113  20.220  0.00  0.00    +0.000 A 
ATOM      7  C   UNL     1       1.445   6.731  20.504  0.00  0.00    +0.000 A 
ATOM      8  C   UNL     1       2.033   5.799  19.614  0.00  0.00    +0.000 A 
ATOM      9  C   UNL     1       2.556   6.300  18.412  0.00  0.00    +0.000 A 
ATOM     10  C   UNL     1       2.496   7.654  18.107  0.00  0.00    +0.000 A 
ATOM     11  C   UNL     1       1.913   8.549  18.996  0.00  0.00    +0.000 A 
BRANCH   8  12
ATOM     12  C   UNL     1       2.168   4.328  19.995  0.00  0.00    +0.000 C 
ATOM     13  C   UNL     1       2.248   4.187  21.520  0.00  0.00    +0.000 C 
ATOM     14  C   UNL     1       1.075   3.401  19.452  0.00  0.00    +0.000 C 
ENDBRANCH   8  12
BRANCH   9  15
ATOM     15  O   UNL     1       3.181   5.535  17.468  0.00  0.00    +0.000 OA
ATOM     16  H   UNL     1       3.973   5.126  17.837  0.00  0.00    +0.000 HD
ENDBRANCH   9  15
BRANCH  11  17
ATOM     17  O   UNL     1       1.933   9.878  18.674  0.00  0.00    +0.000 OA
ATOM     18  H   UNL     1       2.630  10.054  18.019  0.00  0.00    +0.000 HD
ENDBRANCH  11  17
ENDBRANCH   4   6
BRANCH   1  20
ATOM     19  N   UNL     1      -2.315  11.604  22.831  0.00  0.00    +0.000 N 
ATOM     20  C   UNL     1      -0.948  11.804  22.849  0.00  0.00    +0.000 C 
ATOM     21  O   UNL     1      -0.448  12.863  23.210  0.00  0.00    +0.000 OA
ATOM     22  H   UNL     1      -2.652  10.712  22.485  0.00  0.00    +0.000 HD
BRANCH  19  24
ATOM     23  C   UNL     1      -4.099  12.179  24.425  0.00  0.00    +0.000 C 
ATOM     24  C   UNL     1      -3.251  12.629  23.248  0.00  0.00    +0.000 C 
ENDBRANCH  19  24
ENDBRANCH   1  20
BRANCH   5  25
ATOM     25  C   UNL     1      -0.846  10.456  19.965  0.00  0.00    +0.000 C 
ATOM     26  C   UNL     1      -1.513  10.805  18.901  0.00  0.00    +0.000 C 
BRANCH  26  27
ATOM     27  C   UNL     1      -2.291  11.212  17.660  0.00  0.00    +0.000 C 
BRANCH  27  28
ATOM     28  N   UNL     1      -3.605  11.795  17.967  0.00  0.00    +0.000 NA
ATOM     29  C   UNL     1      -4.700  11.054  17.309  0.00  0.00    +0.000 C 
ATOM     30  C   UNL     1      -6.067  11.696  17.625  0.00  0.00    +0.000 C 
ATOM     31  C   UNL     1      -6.266  13.015  16.894  0.00  0.00    +0.000 C 
ATOM     32  O   UNL     1      -6.318  11.813  19.031  0.00  0.00    +0.000 OA
ATOM     33  C   UNL     1      -5.231  12.317  19.823  0.00  0.00    +0.000 C 
ATOM     34  C   UNL     1      -5.226  13.842  19.876  0.00  0.00    +0.000 C 
ATOM     35  C   UNL     1      -3.863  11.715  19.425  0.00  0.00    +0.000 C 
ENDBRANCH  27  28
ENDBRANCH  26  27
ENDBRANCH   5  25
TORSDOF 9
ENDMDL
MODEL 4
REMARK VINA RESULT:      -6.6      3.046      5.910
REMARK  Name = 
REMARK  14 active torsions:
REMARK  status: ('A' for Active; 'I' for Inactive)
REMARK    1  A    between atoms: C_1  and  C_2
REMARK    2  A    between atoms: C_2  and  N_3
REMARK    3  A    between atoms: C_4  and  C_6
REMARK    4  A    between atoms: C_9  and  C_10
REMARK    5  A    between atoms: C_12  and  C_13
REMARK    6  A    between atoms: C_13  and  C_14
REMARK    7  A    between atoms: C_13  and  C_15
REMARK    8  A    between atoms: C_16  and  O_17
REMARK    9  A    between atoms: C_19  and  O_20
REMARK   10  A    between atoms: C_21  and  C_22
REMARK   11  A    between atoms: C_23  and  C_24
REMARK   12  A    between atoms: C_24  and  N_25
REMARK   13  A    between atoms: C_27  and  C_28
REMARK   14  A    between atoms: C_30  and  C_31
REMARK                            x       y       z     vdW  Elec       q    Type
REMARK                         _______ _______ _______ _____ _____    ______ ____
ROOT
ATOM      1  C   UNL     1       3.179   3.486  18.592  0.00  0.00    +0.000 A 
ATOM      2  N   UNL     1       3.671   2.277  18.248  0.00  0.00    +0.000 NA
ATOM      3  O   UNL     1       4.503   2.508  17.155  0.00  0.00    +0.000 OA
ATOM      4  C   UNL     1       4.527   3.842  16.848  0.00  0.00    +0.000 A 
ATOM      5  C   UNL     1       3.677   4.480  17.724  0.00  0.00    +0.000 A 
ENDROOT
BRANCH   4   6
ATOM      6  C   UNL     1       5.417   4.256  15.771  0.00  0.00    +0.000 A 
ATOM      7  C   UNL     1       5.192   3.837  14.441  0.00  0.00    +0.000 A 
ATOM      8  C   UNL     1       6.058   4.190  13.377  0.00  0.00    +0.000 A 
ATOM      9  C   UNL     1       7.166   4.992  13.689  0.00  0.00    +0.000 A 
ATOM     10  C   UNL     1       7.402   5.425  14.988  0.00  0.00    +0.000 A 
ATOM     11  C   UNL     1       6.537   5.066  16.015  0.00  0.00    +0.000 A 
BRANCH   8  12
ATOM     12  C   UNL     1       5.836   3.641  11.971  0.00  0.00    +0.000 C 
ATOM     13  C   UNL     1       6.697   2.391  11.754  0.00  0.00    +0.000 C 
ATOM     14  C   UNL     1       4.381   3.332  11.603  0.00  0.00    +0.000 C 
ENDBRANCH   8  12
BRANCH   9  15
ATOM     15  O   UNL     1       8.107   5.390  12.782  0.00  0.00    +0.000 OA
ATOM     16  H   UNL     1       7.898   6.270  12.446  0.00  0.00    +0.000 HD
ENDBRANCH   9  15
BRANCH  11  17
ATOM     17  O   UNL     1       6.848   5.469  17.284  0.00  0.00    +0.000 OA
ATOM     18  H   UNL     1       7.349   6.302  17.260  0.00  0.00    +0.000 HD
ENDBRANCH  11  17
ENDBRANCH   4   6
BRANCH   1  20
ATOM     19  N   UNL     1       2.734   3.181  20.934  0.00  0.00    +0.000 N 
ATOM     20  C   UNL     1       2.264   3.669  19.730  0.00  0.00    +0.000 C 
ATOM     21  O   UNL     1       1.172   4.214  19.629  0.00  0.00    +0.000 OA
ATOM     22  H   UNL     1       3.632   2.710  20.928  0.00  0.00    +0.000 HD
BRANCH  19  24
ATOM     23  C   UNL     1       1.053   2.098  22.367  0.00  0.00    +0.000 C 
ATOM     24  C   UNL     1       1.971   3.289  22.162  0.00  0.00    +0.000 C 
ENDBRANCH  19  24
ENDBRANCH   1  20
BRANCH   5  25
ATOM     25  C   UNL     1       3.399   5.872  17.728  0.00  0.00    +0.000 C 
ATOM     26  C   UNL     1       3.139   7.149  17.730  0.00  0.00    +0.000 C 
BRANCH  26  27
ATOM     27  C   UNL     1       2.836   8.639  17.732  0.00  0.00    +0.000 C 
BRANCH  27  28
ATOM     28  N   UNL     1       2.020   9.061  18.879  0.00  0.00    +0.000 NA
ATOM     29  C   UNL     1       0.701   9.570  18.455  0.00  0.00    +0.000 C 
ATOM     30  C   UNL     1      -0.130  10.030  19.670  0.00  0.00    +0.000 C 
ATOM     31  C   UNL     1       0.391  11.329  20.266  0.00  0.00    +0.000 C 
ATOM     32  O   UNL     1      -0.286   9.005  20.660  0.00  0.00    +0.000 OA
ATOM     33  C   UNL     1       0.903   8.274  20.999  0.00  0.00    +0.000 C 
ATOM     34  C   UNL     1       1.703   8.967  22.097  0.00  0.00    +0.000 C 
ATOM     35  C   UNL     1       1.755   7.901  19.764  0.00  0.00    +0.000 C 
ENDBRANCH  27  28
ENDBRANCH  26  27
ENDBRANCH   5  25
TORSDOF 9
ENDMDL
MODEL 5
REMARK VINA RESULT:      -6.6      4.026      7.690
REMARK  Name = 
REMARK  14 active torsions:
REMARK  status: ('A' for Active; 'I' for Inactive)
REMARK    1  A    between atoms: C_1  and  C_2
REMARK    2  A    between atoms: C_2  and  N_3
REMARK    3  A    between atoms: C_4  and  C_6
REMARK    4  A    between atoms: C_9  and  C_10
REMARK    5  A    between atoms: C_12  and  C_13
REMARK    6  A    between atoms: C_13  and  C_14
REMARK    7  A    between atoms: C_13  and  C_15
REMARK    8  A    between atoms: C_16  and  O_17
REMARK    9  A    between atoms: C_19  and  O_20
REMARK   10  A    between atoms: C_21  and  C_22
REMARK   11  A    between atoms: C_23  and  C_24
REMARK   12  A    between atoms: C_24  and  N_25
REMARK   13  A    between atoms: C_27  and  C_28
REMARK   14  A    between atoms: C_30  and  C_31
REMARK                            x       y       z     vdW  Elec       q    Type
REMARK                         _______ _______ _______ _____ _____    ______ ____
ROOT
ATOM      1  C   UNL     1      -0.490  10.751  22.372  0.00  0.00    +0.000 A 
ATOM      2  N   UNL     1       0.429  10.180  23.178  0.00  0.00    +0.000 NA
ATOM      3  O   UNL     1       1.136   9.291  22.371  0.00  0.00    +0.000 OA
ATOM      4  C   UNL     1       0.662   9.332  21.088  0.00  0.00    +0.000 A 
ATOM      5  C   UNL     1      -0.386  10.228  21.066  0.00  0.00    +0.000 A 
ENDROOT
BRANCH   4   6
ATOM      6  C   UNL     1       1.353   8.513  20.101  0.00  0.00    +0.000 A 
ATOM      7  C   UNL     1       1.547   7.130  20.314  0.00  0.00    +0.000 A 
ATOM      8  C   UNL     1       2.247   6.311  19.393  0.00  0.00    +0.000 A 
ATOM      9  C   UNL     1       2.746   6.927  18.236  0.00  0.00    +0.000 A 
ATOM     10  C   UNL     1       2.558   8.284  18.000  0.00  0.00    +0.000 A 
ATOM     11  C   UNL     1       1.867   9.066  18.918  0.00  0.00    +0.000 A 
BRANCH   8  12
ATOM     12  C   UNL     1       2.518   4.842  19.700  0.00  0.00    +0.000 C 
ATOM     13  C   UNL     1       2.234   4.554  21.179  0.00  0.00    +0.000 C 
ATOM     14  C   UNL     1       1.764   3.833  18.828  0.00  0.00    +0.000 C 
ENDBRANCH   8  12
BRANCH   9  15
ATOM     15  O   UNL     1       3.466   6.281  17.271  0.00  0.00    +0.000 OA
ATOM     16  H   UNL     1       3.136   6.512  16.394  0.00  0.00    +0.000 HD
ENDBRANCH   9  15
BRANCH  11  17
ATOM     17  O   UNL     1       1.762  10.406  18.667  0.00  0.00    +0.000 OA
ATOM     18  H   UNL     1       1.333  10.855  19.415  0.00  0.00    +0.000 HD
ENDBRANCH  11  17
ENDBRANCH   4   6
BRANCH   1  20
ATOM     19  N   UNL     1      -1.029  13.079  22.630  0.00  0.00    +0.000 N 
ATOM     20  C   UNL     1      -1.431  11.776  22.852  0.00  0.00    +0.000 C 
ATOM     21  O   UNL     1      -2.492  11.505  23.402  0.00  0.00    +0.000 OA
ATOM     22  H   UNL     1      -0.120  13.220  22.203  0.00  0.00    +0.000 HD
BRANCH  19  24
ATOM     23  C   UNL     1      -1.345  14.845  24.314  0.00  0.00    +0.000 C 
ATOM     24  C   UNL     1      -1.839  14.215  23.024  0.00  0.00    +0.000 C 
ENDBRANCH  19  24
ENDBRANCH   1  20
BRANCH   5  25
ATOM     25  C   UNL     1      -1.168  10.545  19.925  0.00  0.00    +0.000 C 
ATOM     26  C   UNL     1      -1.885  10.841  18.878  0.00  0.00    +0.000 C 
BRANCH  26  27
ATOM     27  C   UNL     1      -2.721  11.187  17.657  0.00  0.00    +0.000 C 
BRANCH  27  28
ATOM     28  N   UNL     1      -4.101  11.568  17.990  0.00  0.00    +0.000 NA
ATOM     29  C   UNL     1      -4.872  11.942  16.787  0.00  0.00    +0.000 C 
ATOM     30  C   UNL     1      -6.308  12.361  17.161  0.00  0.00    +0.000 C 
ATOM     31  C   UNL     1      -6.353  13.720  17.842  0.00  0.00    +0.000 C 
ATOM     32  O   UNL     1      -7.007  11.358  17.909  0.00  0.00    +0.000 OA
ATOM     33  C   UNL     1      -6.271  10.749  18.981  0.00  0.00    +0.000 C 
ATOM     34  C   UNL     1      -6.389  11.546  20.277  0.00  0.00    +0.000 C 
ATOM     35  C   UNL     1      -4.810  10.417  18.599  0.00  0.00    +0.000 C 
ENDBRANCH  27  28
ENDBRANCH  26  27
ENDBRANCH   5  25
TORSDOF 9
ENDMDL
MODEL 6
REMARK VINA RESULT:      -6.6      3.070      6.108
REMARK  Name = 
REMARK  14 active torsions:
REMARK  status: ('A' for Active; 'I' for Inactive)
REMARK    1  A    between atoms: C_1  and  C_2
REMARK    2  A    between atoms: C_2  and  N_3
REMARK    3  A    between atoms: C_4  and  C_6
REMARK    4  A    between atoms: C_9  and  C_10
REMARK    5  A    between atoms: C_12  and  C_13
REMARK    6  A    between atoms: C_13  and  C_14
REMARK    7  A    between atoms: C_13  and  C_15
REMARK    8  A    between atoms: C_16  and  O_17
REMARK    9  A    between atoms: C_19  and  O_20
REMARK   10  A    between atoms: C_21  and  C_22
REMARK   11  A    between atoms: C_23  and  C_24
REMARK   12  A    between atoms: C_24  and  N_25
REMARK   13  A    between atoms: C_27  and  C_28
REMARK   14  A    between atoms: C_30  and  C_31
REMARK                            x       y       z     vdW  Elec       q    Type
REMARK                         _______ _______ _______ _____ _____    ______ ____
ROOT
ATOM      1  C   UNL     1       3.066   3.244  18.476  0.00  0.00    +0.000 A 
ATOM      2  N   UNL     1       3.604   2.060  18.117  0.00  0.00    +0.000 NA
ATOM      3  O   UNL     1       4.465   2.345  17.059  0.00  0.00    +0.000 OA
ATOM      4  C   UNL     1       4.460   3.686  16.788  0.00  0.00    +0.000 A 
ATOM      5  C   UNL     1       3.562   4.276  17.652  0.00  0.00    +0.000 A 
ENDROOT
BRANCH   4   6
ATOM      6  C   UNL     1       5.372   4.156  15.753  0.00  0.00    +0.000 A 
ATOM      7  C   UNL     1       5.198   3.774  14.404  0.00  0.00    +0.000 A 
ATOM      8  C   UNL     1       6.087   4.181  13.379  0.00  0.00    +0.000 A 
ATOM      9  C   UNL     1       7.166   4.997  13.751  0.00  0.00    +0.000 A 
ATOM     10  C   UNL     1       7.351   5.394  15.070  0.00  0.00    +0.000 A 
ATOM     11  C   UNL     1       6.464   4.983  16.057  0.00  0.00    +0.000 A 
BRANCH   8  12
ATOM     12  C   UNL     1       5.922   3.673  11.950  0.00  0.00    +0.000 C 
ATOM     13  C   UNL     1       6.848   2.475  11.709  0.00  0.00    +0.000 C 
ATOM     14  C   UNL     1       4.492   3.305  11.541  0.00  0.00    +0.000 C 
ENDBRANCH   8  12
BRANCH   9  15
ATOM     15  O   UNL     1       8.124   5.446  12.886  0.00  0.00    +0.000 OA
ATOM     16  H   UNL     1       8.354   4.756  12.252  0.00  0.00    +0.000 HD
ENDBRANCH   9  15
BRANCH  11  17
ATOM     17  O   UNL     1       6.726   5.352  17.348  0.00  0.00    +0.000 OA
ATOM     18  H   UNL     1       7.245   4.663  17.796  0.00  0.00    +0.000 HD
ENDBRANCH  11  17
ENDBRANCH   4   6
BRANCH   1  20
ATOM     19  N   UNL     1       2.677   3.333  20.846  0.00  0.00    +0.000 N 
ATOM     20  C   UNL     1       2.109   3.370  19.587  0.00  0.00    +0.000 C 
ATOM     21  O   UNL     1       0.903   3.502  19.419  0.00  0.00    +0.000 OA
ATOM     22  H   UNL     1       3.678   3.184  20.902  0.00  0.00    +0.000 HD
BRANCH  19  24
ATOM     23  C   UNL     1       1.172   2.164  22.402  0.00  0.00    +0.000 C 
ATOM     24  C   UNL     1       1.885   3.458  22.054  0.00  0.00    +0.000 C 
ENDBRANCH  19  24
ENDBRANCH   1  20
BRANCH   5  25
ATOM     25  C   UNL     1       3.244   5.658  17.683  0.00  0.00    +0.000 C 
ATOM     26  C   UNL     1       2.955   6.929  17.716  0.00  0.00    +0.000 C 
BRANCH  26  27
ATOM     27  C   UNL     1       2.617   8.410  17.754  0.00  0.00    +0.000 C 
BRANCH  27  28
ATOM     28  N   UNL     1       1.635   8.754  18.792  0.00  0.00    +0.000 NA
ATOM     29  C   UNL     1       2.075   8.309  20.130  0.00  0.00    +0.000 C 
ATOM     30  C   UNL     1       1.020   8.658  21.200  0.00  0.00    +0.000 C 
ATOM     31  C   UNL     1      -0.213   7.772  21.104  0.00  0.00    +0.000 C 
ATOM     32  O   UNL     1       0.685  10.051  21.223  0.00  0.00    +0.000 OA
ATOM     33  C   UNL     1       0.453  10.661  19.943  0.00  0.00    +0.000 C 
ATOM     34  C   UNL     1      -0.996  10.501  19.492  0.00  0.00    +0.000 C 
ATOM     35  C   UNL     1       1.479  10.226  18.871  0.00  0.00    +0.000 C 
ENDBRANCH  27  28
ENDBRANCH  26  27
ENDBRANCH   5  25
TORSDOF 9
ENDMDL
MODEL 7
REMARK VINA RESULT:      -6.5      3.976      7.465
REMARK  Name = 
REMARK  14 active torsions:
REMARK  status: ('A' for Active; 'I' for Inactive)
REMARK    1  A    between atoms: C_1  and  C_2
REMARK    2  A    between atoms: C_2  and  N_3
REMARK    3  A    between atoms: C_4  and  C_6
REMARK    4  A    between atoms: C_9  and  C_10
REMARK    5  A    between atoms: C_12  and  C_13
REMARK    6  A    between atoms: C_13  and  C_14
REMARK    7  A    between atoms: C_13  and  C_15
REMARK    8  A    between atoms: C_16  and  O_17
REMARK    9  A    between atoms: C_19  and  O_20
REMARK   10  A    between atoms: C_21  and  C_22
REMARK   11  A    between atoms: C_23  and  C_24
REMARK   12  A    between atoms: C_24  and  N_25
REMARK   13  A    between atoms: C_27  and  C_28
REMARK   14  A    between atoms: C_30  and  C_31
REMARK                            x       y       z     vdW  Elec       q    Type
REMARK                         _______ _______ _______ _____ _____    ______ ____
ROOT
ATOM      1  C   UNL     1      -0.320  10.533  22.472  0.00  0.00    +0.000 A 
ATOM      2  N   UNL     1       0.536   9.883  23.287  0.00  0.00    +0.000 NA
ATOM      3  O   UNL     1       1.191   8.955  22.481  0.00  0.00    +0.000 OA
ATOM      4  C   UNL     1       0.749   9.049  21.190  0.00  0.00    +0.000 A 
ATOM      5  C   UNL     1      -0.228  10.021  21.161  0.00  0.00    +0.000 A 
ENDROOT
BRANCH   4   6
ATOM      6  C   UNL     1       1.396   8.193  20.204  0.00  0.00    +0.000 A 
ATOM      7  C   UNL     1       1.522   6.802  20.421  0.00  0.00    +0.000 A 
ATOM      8  C   UNL     1       2.178   5.947  19.502  0.00  0.00    +0.000 A 
ATOM      9  C   UNL     1       2.706   6.534  18.342  0.00  0.00    +0.000 A 
ATOM     10  C   UNL     1       2.586   7.897  18.103  0.00  0.00    +0.000 A 
ATOM     11  C   UNL     1       1.935   8.715  19.019  0.00  0.00    +0.000 A 
BRANCH   8  12
ATOM     12  C   UNL     1       2.377   4.467  19.814  0.00  0.00    +0.000 C 
ATOM     13  C   UNL     1       2.323   4.238  21.329  0.00  0.00    +0.000 C 
ATOM     14  C   UNL     1       1.406   3.508  19.116  0.00  0.00    +0.000 C 
ENDBRANCH   8  12
BRANCH   9  15
ATOM     15  O   UNL     1       3.391   5.850  17.379  0.00  0.00    +0.000 OA
ATOM     16  H   UNL     1       2.869   5.103  17.061  0.00  0.00    +0.000 HD
ENDBRANCH   9  15
BRANCH  11  17
ATOM     17  O   UNL     1       1.897  10.058  18.764  0.00  0.00    +0.000 OA
ATOM     18  H   UNL     1       2.484  10.276  18.020  0.00  0.00    +0.000 HD
ENDBRANCH  11  17
ENDBRANCH   4   6
BRANCH   1  20
ATOM     19  N   UNL     1      -0.695  12.892  22.739  0.00  0.00    +0.000 N 
ATOM     20  C   UNL     1      -1.191  11.619  22.949  0.00  0.00    +0.000 C 
ATOM     21  O   UNL     1      -2.273  11.422  23.486  0.00  0.00    +0.000 OA
ATOM     22  H   UNL     1       0.226  12.971  22.321  0.00  0.00    +0.000 HD
BRANCH  19  24
ATOM     23  C   UNL     1      -2.107  14.744  21.947  0.00  0.00    +0.000 C 
ATOM     24  C   UNL     1      -1.426  14.080  23.131  0.00  0.00    +0.000 C 
ENDBRANCH  19  24
ENDBRANCH   1  20
BRANCH   5  25
ATOM     25  C   UNL     1      -0.960  10.411  20.009  0.00  0.00    +0.000 C 
ATOM     26  C   UNL     1      -1.630  10.775  18.953  0.00  0.00    +0.000 C 
BRANCH  26  27
ATOM     27  C   UNL     1      -2.412  11.199  17.720  0.00  0.00    +0.000 C 
BRANCH  27  28
ATOM     28  N   UNL     1      -3.714  11.802  18.040  0.00  0.00    +0.000 NA
ATOM     29  C   UNL     1      -4.835  10.986  17.534  0.00  0.00    +0.000 C 
ATOM     30  C   UNL     1      -6.190  11.647  17.859  0.00  0.00    +0.000 C 
ATOM     31  C   UNL     1      -6.451  12.877  17.003  0.00  0.00    +0.000 C 
ATOM     32  O   UNL     1      -6.360  11.916  19.257  0.00  0.00    +0.000 OA
ATOM     33  C   UNL     1      -5.236  12.512  19.922  0.00  0.00    +0.000 C 
ATOM     34  C   UNL     1      -5.250  14.033  19.809  0.00  0.00    +0.000 C 
ATOM     35  C   UNL     1      -3.885  11.881  19.511  0.00  0.00    +0.000 C 
ENDBRANCH  27  28
ENDBRANCH  26  27
ENDBRANCH   5  25
TORSDOF 9
ENDMDL
MODEL 8
REMARK VINA RESULT:      -6.4      3.855      6.975
REMARK  Name = 
REMARK  14 active torsions:
REMARK  status: ('A' for Active; 'I' for Inactive)
REMARK    1  A    between atoms: C_1  and  C_2
REMARK    2  A    between atoms: C_2  and  N_3
REMARK    3  A    between atoms: C_4  and  C_6
REMARK    4  A    between atoms: C_9  and  C_10
REMARK    5  A    between atoms: C_12  and  C_13
REMARK    6  A    between atoms: C_13  and  C_14
REMARK    7  A    between atoms: C_13  and  C_15
REMARK    8  A    between atoms: C_16  and  O_17
REMARK    9  A    between atoms: C_19  and  O_20
REMARK   10  A    between atoms: C_21  and  C_22
REMARK   11  A    between atoms: C_23  and  C_24
REMARK   12  A    between atoms: C_24  and  N_25
REMARK   13  A    between atoms: C_27  and  C_28
REMARK   14  A    between atoms: C_30  and  C_31
REMARK                            x       y       z     vdW  Elec       q    Type
REMARK                         _______ _______ _______ _____ _____    ______ ____
ROOT
ATOM      1  C   UNL     1       0.260  10.329  22.211  0.00  0.00    +0.000 A 
ATOM      2  N   UNL     1       1.235   9.792  22.975  0.00  0.00    +0.000 NA
ATOM      3  O   UNL     1       1.755   8.735  22.231  0.00  0.00    +0.000 OA
ATOM      4  C   UNL     1       1.114   8.639  21.026  0.00  0.00    +0.000 A 
ATOM      5  C   UNL     1       0.145   9.618  20.998  0.00  0.00    +0.000 A 
ENDROOT
BRANCH   4   6
ATOM      6  C   UNL     1       1.599   7.626  20.098  0.00  0.00    +0.000 A 
ATOM      7  C   UNL     1       1.541   6.253  20.426  0.00  0.00    +0.000 A 
ATOM      8  C   UNL     1       2.037   5.244  19.564  0.00  0.00    +0.000 A 
ATOM      9  C   UNL     1       2.594   5.658  18.345  0.00  0.00    +0.000 A 
ATOM     10  C   UNL     1       2.654   7.002  17.996  0.00  0.00    +0.000 A 
ATOM     11  C   UNL     1       2.158   7.973  18.858  0.00  0.00    +0.000 A 
BRANCH   8  12
ATOM     12  C   UNL     1       2.042   3.780  19.992  0.00  0.00    +0.000 C 
ATOM     13  C   UNL     1       2.144   3.681  21.518  0.00  0.00    +0.000 C 
ATOM     14  C   UNL     1       0.856   2.943  19.502  0.00  0.00    +0.000 C 
ENDBRANCH   8  12
BRANCH   9  15
ATOM     15  O   UNL     1       3.141   4.811  17.423  0.00  0.00    +0.000 OA
ATOM     16  H   UNL     1       2.732   4.945  16.559  0.00  0.00    +0.000 HD
ENDBRANCH   9  15
BRANCH  11  17
ATOM     17  O   UNL     1       2.295   9.284  18.494  0.00  0.00    +0.000 OA
ATOM     18  H   UNL     1       3.178   9.610  18.737  0.00  0.00    +0.000 HD
ENDBRANCH  11  17
ENDBRANCH   4   6
BRANCH   1  20
ATOM     19  N   UNL     1      -0.281  12.653  21.927  0.00  0.00    +0.000 N 
ATOM     20  C   UNL     1      -0.525  11.496  22.642  0.00  0.00    +0.000 C 
ATOM     21  O   UNL     1      -1.337  11.455  23.558  0.00  0.00    +0.000 OA
ATOM     22  H   UNL     1       0.433  12.615  21.207  0.00  0.00    +0.000 HD
BRANCH  19  24
ATOM     23  C   UNL     1      -0.024  14.992  22.642  0.00  0.00    +0.000 C 
ATOM     24  C   UNL     1      -0.976  13.894  22.204  0.00  0.00    +0.000 C 
ENDBRANCH  19  24
ENDBRANCH   1  20
BRANCH   5  25
ATOM     25  C   UNL     1      -0.760   9.844  19.928  0.00  0.00    +0.000 C 
ATOM     26  C   UNL     1      -1.593  10.055  18.949  0.00  0.00    +0.000 C 
BRANCH  26  27
ATOM     27  C   UNL     1      -2.565  10.301  17.806  0.00  0.00    +0.000 C 
BRANCH  27  28
ATOM     28  N   UNL     1      -3.792  10.992  18.228  0.00  0.00    +0.000 NA
ATOM     29  C   UNL     1      -3.495  12.179  19.055  0.00  0.00    +0.000 C 
ATOM     30  C   UNL     1      -4.794  12.875  19.507  0.00  0.00    +0.000 C 
ATOM     31  C   UNL     1      -5.531  12.082  20.575  0.00  0.00    +0.000 C 
ATOM     32  O   UNL     1      -5.648  13.231  18.412  0.00  0.00    +0.000 OA
ATOM     33  C   UNL     1      -5.837  12.220  17.410  0.00  0.00    +0.000 C 
ATOM     34  C   UNL     1      -6.981  11.274  17.764  0.00  0.00    +0.000 C 
ATOM     35  C   UNL     1      -4.528  11.484  17.039  0.00  0.00    +0.000 C 
ENDBRANCH  27  28
ENDBRANCH  26  27
ENDBRANCH   5  25
TORSDOF 9
ENDMDL
MODEL 9
REMARK VINA RESULT:      -6.2      4.452      8.497
REMARK  Name = 
REMARK  14 active torsions:
REMARK  status: ('A' for Active; 'I' for Inactive)
REMARK    1  A    between atoms: C_1  and  C_2
REMARK    2  A    between atoms: C_2  and  N_3
REMARK    3  A    between atoms: C_4  and  C_6
REMARK    4  A    between atoms: C_9  and  C_10
REMARK    5  A    between atoms: C_12  and  C_13
REMARK    6  A    between atoms: C_13  and  C_14
REMARK    7  A    between atoms: C_13  and  C_15
REMARK    8  A    between atoms: C_16  and  O_17
REMARK    9  A    between atoms: C_19  and  O_20
REMARK   10  A    between atoms: C_21  and  C_22
REMARK   11  A    between atoms: C_23  and  C_24
REMARK   12  A    between atoms: C_24  and  N_25
REMARK   13  A    between atoms: C_27  and  C_28
REMARK   14  A    between atoms: C_30  and  C_31
REMARK                            x       y       z     vdW  Elec       q    Type
REMARK                         _______ _______ _______ _____ _____    ______ ____
ROOT
ATOM      1  C   UNL     1      -0.943  11.423  22.208  0.00  0.00    +0.000 A 
ATOM      2  N   UNL     1       0.037  10.974  23.020  0.00  0.00    +0.000 NA
ATOM      3  O   UNL     1       0.818  10.128  22.236  0.00  0.00    +0.000 OA
ATOM      4  C   UNL     1       0.328  10.074  20.959  0.00  0.00    +0.000 A 
ATOM      5  C   UNL     1      -0.802  10.862  20.920  0.00  0.00    +0.000 A 
ENDROOT
BRANCH   4   6
ATOM      6  C   UNL     1       1.083   9.288  19.993  0.00  0.00    +0.000 A 
ATOM      7  C   UNL     1       1.479   7.964  20.285  0.00  0.00    +0.000 A 
ATOM      8  C   UNL     1       2.246   7.185  19.384  0.00  0.00    +0.000 A 
ATOM      9  C   UNL     1       2.604   7.779  18.164  0.00  0.00    +0.000 A 
ATOM     10  C   UNL     1       2.218   9.076  17.851  0.00  0.00    +0.000 A 
ATOM     11  C   UNL     1       1.464   9.820  18.751  0.00  0.00    +0.000 A 
BRANCH   8  12
ATOM     12  C   UNL     1       2.734   5.792  19.771  0.00  0.00    +0.000 C 
ATOM     13  C   UNL     1       1.876   4.725  19.083  0.00  0.00    +0.000 C 
ATOM     14  C   UNL     1       4.216   5.512  19.500  0.00  0.00    +0.000 C 
ENDBRANCH   8  12
BRANCH   9  15
ATOM     15  O   UNL     1       3.366   7.170  17.207  0.00  0.00    +0.000 OA
ATOM     16  H   UNL     1       3.485   7.756  16.450  0.00  0.00    +0.000 HD
ENDBRANCH   9  15
BRANCH  11  17
ATOM     17  O   UNL     1       1.161  11.112  18.419  0.00  0.00    +0.000 OA
ATOM     18  H   UNL     1       0.891  11.608  19.211  0.00  0.00    +0.000 HD
ENDBRANCH  11  17
ENDBRANCH   4   6
BRANCH   1  20
ATOM     19  N   UNL     1      -2.900  11.835  23.538  0.00  0.00    +0.000 N 
ATOM     20  C   UNL     1      -1.973  12.369  22.663  0.00  0.00    +0.000 C 
ATOM     21  O   UNL     1      -2.012  13.539  22.305  0.00  0.00    +0.000 OA
ATOM     22  H   UNL     1      -2.822  10.848  23.757  0.00  0.00    +0.000 HD
BRANCH  19  24
ATOM     23  C   UNL     1      -5.172  12.703  23.167  0.00  0.00    +0.000 C 
ATOM     24  C   UNL     1      -3.977  12.628  24.100  0.00  0.00    +0.000 C 
ENDBRANCH  19  24
ENDBRANCH   1  20
BRANCH   5  25
ATOM     25  C   UNL     1      -1.625  11.058  19.781  0.00  0.00    +0.000 C 
ATOM     26  C   UNL     1      -2.385  11.238  18.737  0.00  0.00    +0.000 C 
BRANCH  26  27
ATOM     27  C   UNL     1      -3.271  11.448  17.520  0.00  0.00    +0.000 C 
BRANCH  27  28
ATOM     28  N   UNL     1      -4.489  12.216  17.817  0.00  0.00    +0.000 NA
ATOM     29  C   UNL     1      -5.631  11.770  16.993  0.00  0.00    +0.000 C 
ATOM     30  C   UNL     1      -6.892  12.603  17.303  0.00  0.00    +0.000 C 
ATOM     31  C   UNL     1      -6.799  14.016  16.747  0.00  0.00    +0.000 C 
ATOM     32  O   UNL     1      -7.243  12.590  18.693  0.00  0.00    +0.000 OA
ATOM     33  C   UNL     1      -6.161  12.790  19.615  0.00  0.00    +0.000 C 
ATOM     34  C   UNL     1      -5.902  14.271  19.876  0.00  0.00    +0.000 C 
ATOM     35  C   UNL     1      -4.885  12.006  19.230  0.00  0.00    +0.000 C 
ENDBRANCH  27  28
ENDBRANCH  26  27
ENDBRANCH   5  25
TORSDOF 9
ENDMDL
