MODEL 1
REMARK VINA RESULT:      -8.2      0.000      0.000
REMARK  Name = 
REMARK  4 active torsions:
REMARK  status: ('A' for Active; 'I' for Inactive)
REMARK    1  A    between atoms: C_1  and  C_2
REMARK    2  A    between atoms: C_17  and  O_18
REMARK    3  A    between atoms: N_24  and  C_25
REMARK    4  A    between atoms: C_25  and  C_26
REMARK                            x       y       z     vdW  Elec       q    Type
REMARK                         _______ _______ _______ _____ _____    ______ ____
ROOT
ATOM      1  C   UNL     1      -5.277  12.442  19.163  0.00  0.00    +0.000 C 
ATOM      2  C   UNL     1      -6.051  12.255  20.435  0.00  0.00    +0.000 A 
ATOM      3  C   UNL     1      -7.060  11.258  20.410  0.00  0.00    +0.000 A 
ATOM      4  C   UNL     1      -7.916  11.039  21.491  0.00  0.00    +0.000 A 
ATOM      5  C   UNL     1      -7.797  11.826  22.619  0.00  0.00    +0.000 A 
ATOM      6  C   UNL     1      -6.782  12.781  22.665  0.00  0.00    +0.000 A 
ATOM      7  C   UNL     1      -5.864  12.995  21.615  0.00  0.00    +0.000 A 
ATOM      8  C   UNL     1      -4.820  14.024  22.051  0.00  0.00    +0.000 C 
ATOM      9  C   UNL     1      -5.374  14.530  23.423  0.00  0.00    +0.000 C 
ATOM     10  C   UNL     1      -6.568  13.676  23.831  0.00  0.00    +0.000 C 
ATOM     11  N   UNL     1      -4.677  15.173  21.173  0.00  0.00    +0.000 N 
ATOM     12  C   UNL     1      -3.382  15.672  21.206  0.00  0.00    +0.000 C 
ATOM     13  O   UNL     1      -2.992  16.758  20.814  0.00  0.00    +0.000 OA
ATOM     14  C   UNL     1      -2.561  14.562  21.764  0.00  0.00    +0.000 A 
ATOM     15  C   UNL     1      -1.230  14.462  21.940  0.00  0.00    +0.000 A 
ATOM     16  C   UNL     1      -0.730  13.129  22.274  0.00  0.00    +0.000 A 
ATOM     17  C   UNL     1      -1.518  12.215  22.879  0.00  0.00    +0.000 A 
ATOM     18  C   UNL     1      -2.995  12.534  23.002  0.00  0.00    +0.000 A 
ATOM     19  O   UNL     1      -3.730  11.888  23.740  0.00  0.00    +0.000 OA
ATOM     20  N   UNL     1      -3.429  13.554  22.182  0.00  0.00    +0.000 N 
ATOM     21  C   UNL     1       0.600  12.692  21.704  0.00  0.00    +0.000 C 
ATOM     22  O   UNL     1       0.979  11.528  21.772  0.00  0.00    +0.000 OA
ATOM     23  N   UNL     1       1.289  13.700  21.018  0.00  0.00    +0.000 N 
ATOM     24  C   UNL     1       1.256  14.970  21.726  0.00  0.00    +0.000 C 
ATOM     25  C   UNL     1      -0.175  15.544  21.785  0.00  0.00    +0.000 C 
ATOM     26  H   UNL     1      -5.449  15.780  20.937  0.00  0.00    +0.000 HD
ENDROOT
BRANCH  17  27
ATOM     27  O   UNL     1      -1.094  10.965  23.296  0.00  0.00    +0.000 OA
ATOM     28  H   UNL     1      -1.428  10.809  24.205  0.00  0.00    +0.000 HD
ENDBRANCH  17  27
BRANCH  23  29
ATOM     29  C   UNL     1       1.025  13.792  19.576  0.00  0.00    +0.000 C 
BRANCH  29  30
ATOM     30  C   UNL     1       0.275  12.648  18.941  0.00  0.00    +0.000 A 
ATOM     31  C   UNL     1      -1.092  12.679  18.643  0.00  0.00    +0.000 A 
ATOM     32  C   UNL     1      -1.727  11.545  18.124  0.00  0.00    +0.000 A 
ATOM     33  C   UNL     1      -1.002  10.376  17.908  0.00  0.00    +0.000 A 
ATOM     34  F   UNL     1      -1.649   9.283  17.475  0.00  0.00    +0.000 F 
ATOM     35  C   UNL     1       0.364  10.340  18.153  0.00  0.00    +0.000 A 
ATOM     36 CL   UNL     1       1.270   8.892  17.939  0.00  0.00    +0.000 Cl
ATOM     37  C   UNL     1       1.007  11.482  18.630  0.00  0.00    +0.000 A 
ENDBRANCH  29  30
ENDBRANCH  23  29
TORSDOF 3
ENDMDL
MODEL 2
REMARK VINA RESULT:      -7.9      0.961      1.259
REMARK  Name = 
REMARK  4 active torsions:
REMARK  status: ('A' for Active; 'I' for Inactive)
REMARK    1  A    between atoms: C_1  and  C_2
REMARK    2  A    between atoms: C_17  and  O_18
REMARK    3  A    between atoms: N_24  and  C_25
REMARK    4  A    between atoms: C_25  and  C_26
REMARK                            x       y       z     vdW  Elec       q    Type
REMARK                         _______ _______ _______ _____ _____    ______ ____
ROOT
ATOM      1  C   UNL     1      -5.311  12.396  19.349  0.00  0.00    +0.000 C 
ATOM      2  C   UNL     1      -6.033  12.304  20.661  0.00  0.00    +0.000 A 
ATOM      3  C   UNL     1      -7.098  11.368  20.721  0.00  0.00    +0.000 A 
ATOM      4  C   UNL     1      -7.915  11.240  21.847  0.00  0.00    +0.000 A 
ATOM      5  C   UNL     1      -7.699  12.062  22.936  0.00  0.00    +0.000 A 
ATOM      6  C   UNL     1      -6.630  12.956  22.898  0.00  0.00    +0.000 A 
ATOM      7  C   UNL     1      -5.751  13.076  21.800  0.00  0.00    +0.000 A 
ATOM      8  C   UNL     1      -4.630  14.058  22.148  0.00  0.00    +0.000 C 
ATOM      9  C   UNL     1      -5.090  14.648  23.520  0.00  0.00    +0.000 C 
ATOM     10  C   UNL     1      -6.311  13.881  24.015  0.00  0.00    +0.000 C 
ATOM     11  N   UNL     1      -4.463  15.162  21.218  0.00  0.00    +0.000 N 
ATOM     12  C   UNL     1      -3.141  15.585  21.173  0.00  0.00    +0.000 C 
ATOM     13  O   UNL     1      -2.709  16.631  20.721  0.00  0.00    +0.000 OA
ATOM     14  C   UNL     1      -2.360  14.450  21.739  0.00  0.00    +0.000 A 
ATOM     15  C   UNL     1      -1.030  14.280  21.861  0.00  0.00    +0.000 A 
ATOM     16  C   UNL     1      -0.592  12.933  22.227  0.00  0.00    +0.000 A 
ATOM     17  C   UNL     1      -1.402  12.090  22.902  0.00  0.00    +0.000 A 
ATOM     18  C   UNL     1      -2.851  12.500  23.077  0.00  0.00    +0.000 A 
ATOM     19  O   UNL     1      -3.587  11.928  23.873  0.00  0.00    +0.000 OA
ATOM     20  N   UNL     1      -3.263  13.512  22.236  0.00  0.00    +0.000 N 
ATOM     21  C   UNL     1       0.683  12.397  21.616  0.00  0.00    +0.000 C 
ATOM     22  O   UNL     1       0.998  11.216  21.715  0.00  0.00    +0.000 OA
ATOM     23  N   UNL     1       1.396  13.336  20.860  0.00  0.00    +0.000 N 
ATOM     24  C   UNL     1       1.468  14.632  21.516  0.00  0.00    +0.000 C 
ATOM     25  C   UNL     1       0.077  15.291  21.615  0.00  0.00    +0.000 C 
ATOM     26  H   UNL     1      -5.209  15.804  20.992  0.00  0.00    +0.000 HD
ENDROOT
BRANCH  17  27
ATOM     27  O   UNL     1      -1.031  10.834  23.351  0.00  0.00    +0.000 OA
ATOM     28  H   UNL     1      -1.447  10.680  24.226  0.00  0.00    +0.000 HD
ENDBRANCH  17  27
BRANCH  23  29
ATOM     29  C   UNL     1       1.071  13.388  19.429  0.00  0.00    +0.000 C 
BRANCH  29  30
ATOM     30  C   UNL     1       0.373  12.188  18.839  0.00  0.00    +0.000 A 
ATOM     31  C   UNL     1       0.985  10.944  18.649  0.00  0.00    +0.000 A 
ATOM     32  C   UNL     1       0.289   9.903  18.025  0.00  0.00    +0.000 A 
ATOM     33  C   UNL     1      -1.017  10.102  17.582  0.00  0.00    +0.000 A 
ATOM     34  F   UNL     1      -1.637   9.111  16.924  0.00  0.00    +0.000 F 
ATOM     35  C   UNL     1      -1.656  11.315  17.804  0.00  0.00    +0.000 A 
ATOM     36 CL   UNL     1      -3.251  11.600  17.221  0.00  0.00    +0.000 Cl
ATOM     37  C   UNL     1      -0.979  12.339  18.463  0.00  0.00    +0.000 A 
ENDBRANCH  29  30
ENDBRANCH  23  29
TORSDOF 3
ENDMDL
MODEL 3
REMARK VINA RESULT:      -7.7      6.015      8.250
REMARK  Name = 
REMARK  4 active torsions:
REMARK  status: ('A' for Active; 'I' for Inactive)
REMARK    1  A    between atoms: C_1  and  C_2
REMARK    2  A    between atoms: C_17  and  O_18
REMARK    3  A    between atoms: N_24  and  C_25
REMARK    4  A    between atoms: C_25  and  C_26
REMARK                            x       y       z     vdW  Elec       q    Type
REMARK                         _______ _______ _______ _____ _____    ______ ____
ROOT
ATOM      1  C   UNL     1       2.503  12.087  17.950  0.00  0.00    +0.000 C 
ATOM      2  C   UNL     1       1.479  12.290  19.028  0.00  0.00    +0.000 A 
ATOM      3  C   UNL     1       0.727  11.144  19.397  0.00  0.00    +0.000 A 
ATOM      4  C   UNL     1      -0.319  11.207  20.320  0.00  0.00    +0.000 A 
ATOM      5  C   UNL     1      -0.654  12.423  20.883  0.00  0.00    +0.000 A 
ATOM      6  C   UNL     1       0.106  13.544  20.554  0.00  0.00    +0.000 A 
ATOM      7  C   UNL     1       1.204  13.511  19.667  0.00  0.00    +0.000 A 
ATOM      8  C   UNL     1       1.876  14.884  19.634  0.00  0.00    +0.000 C 
ATOM      9  C   UNL     1       0.897  15.777  20.464  0.00  0.00    +0.000 C 
ATOM     10  C   UNL     1      -0.169  14.896  21.104  0.00  0.00    +0.000 C 
ATOM     11  N   UNL     1       2.012  15.476  18.314  0.00  0.00    +0.000 N 
ATOM     12  C   UNL     1       3.130  16.297  18.243  0.00  0.00    +0.000 C 
ATOM     13  O   UNL     1       3.386  17.136  17.398  0.00  0.00    +0.000 OA
ATOM     14  C   UNL     1       3.980  15.878  19.392  0.00  0.00    +0.000 A 
ATOM     15  C   UNL     1       5.213  16.277  19.758  0.00  0.00    +0.000 A 
ATOM     16  C   UNL     1       5.862  15.473  20.793  0.00  0.00    +0.000 A 
ATOM     17  C   UNL     1       5.141  14.755  21.680  0.00  0.00    +0.000 A 
ATOM     18  C   UNL     1       3.649  14.634  21.436  0.00  0.00    +0.000 A 
ATOM     19  O   UNL     1       2.890  14.219  22.304  0.00  0.00    +0.000 OA
ATOM     20  N   UNL     1       3.250  14.972  20.160  0.00  0.00    +0.000 N 
ATOM     21  C   UNL     1       7.353  15.243  20.701  0.00  0.00    +0.000 C 
ATOM     22  O   UNL     1       7.924  14.420  21.407  0.00  0.00    +0.000 OA
ATOM     23  N   UNL     1       7.984  15.971  19.684  0.00  0.00    +0.000 N 
ATOM     24  C   UNL     1       7.520  17.348  19.622  0.00  0.00    +0.000 C 
ATOM     25  C   UNL     1       6.038  17.423  19.198  0.00  0.00    +0.000 C 
ATOM     26  H   UNL     1       1.224  15.640  17.704  0.00  0.00    +0.000 HD
ENDROOT
BRANCH  17  27
ATOM     27  O   UNL     1       5.680  14.036  22.733  0.00  0.00    +0.000 OA
ATOM     28  H   UNL     1       5.035  13.347  23.002  0.00  0.00    +0.000 HD
ENDBRANCH  17  27
BRANCH  23  29
ATOM     29  C   UNL     1       8.089  15.298  18.383  0.00  0.00    +0.000 C 
BRANCH  29  30
ATOM     30  C   UNL     1       9.162  14.247  18.238  0.00  0.00    +0.000 A 
ATOM     31  C   UNL     1      10.501  14.533  17.947  0.00  0.00    +0.000 A 
ATOM     32  C   UNL     1      11.418  13.493  17.755  0.00  0.00    +0.000 A 
ATOM     33  C   UNL     1      11.001  12.167  17.845  0.00  0.00    +0.000 A 
ATOM     34  F   UNL     1      11.884  11.191  17.588  0.00  0.00    +0.000 F 
ATOM     35  C   UNL     1       9.688  11.865  18.180  0.00  0.00    +0.000 A 
ATOM     36 CL   UNL     1       9.138  10.235  18.248  0.00  0.00    +0.000 Cl
ATOM     37  C   UNL     1       8.782  12.899  18.414  0.00  0.00    +0.000 A 
ENDBRANCH  29  30
ENDBRANCH  23  29
TORSDOF 3
ENDMDL
MODEL 4
REMARK VINA RESULT:      -7.6      5.889      8.060
REMARK  Name = 
REMARK  4 active torsions:
REMARK  status: ('A' for Active; 'I' for Inactive)
REMARK    1  A    between atoms: C_1  and  C_2
REMARK    2  A    between atoms: C_17  and  O_18
REMARK    3  A    between atoms: N_24  and  C_25
REMARK    4  A    between atoms: C_25  and  C_26
REMARK                            x       y       z     vdW  Elec       q    Type
REMARK                         _______ _______ _______ _____ _____    ______ ____
ROOT
ATOM      1  C   UNL     1       2.394  12.270  18.138  0.00  0.00    +0.000 C 
ATOM      2  C   UNL     1       1.160  12.581  18.933  0.00  0.00    +0.000 A 
ATOM      3  C   UNL     1       0.274  11.495  19.159  0.00  0.00    +0.000 A 
ATOM      4  C   UNL     1      -0.954  11.659  19.804  0.00  0.00    +0.000 A 
ATOM      5  C   UNL     1      -1.336  12.918  20.222  0.00  0.00    +0.000 A 
ATOM      6  C   UNL     1      -0.453  13.981  20.038  0.00  0.00    +0.000 A 
ATOM      7  C   UNL     1       0.818  13.846  19.439  0.00  0.00    +0.000 A 
ATOM      8  C   UNL     1       1.561  15.181  19.512  0.00  0.00    +0.000 C 
ATOM      9  C   UNL     1       0.471  16.164  20.050  0.00  0.00    +0.000 C 
ATOM     10  C   UNL     1      -0.767  15.372  20.453  0.00  0.00    +0.000 C 
ATOM     11  N   UNL     1       2.039  15.694  18.239  0.00  0.00    +0.000 N 
ATOM     12  C   UNL     1       3.190  16.453  18.403  0.00  0.00    +0.000 C 
ATOM     13  O   UNL     1       3.688  17.232  17.610  0.00  0.00    +0.000 OA
ATOM     14  C   UNL     1       3.720  16.054  19.737  0.00  0.00    +0.000 A 
ATOM     15  C   UNL     1       4.855  16.410  20.368  0.00  0.00    +0.000 A 
ATOM     16  C   UNL     1       5.192  15.631  21.558  0.00  0.00    +0.000 A 
ATOM     17  C   UNL     1       4.241  14.998  22.277  0.00  0.00    +0.000 A 
ATOM     18  C   UNL     1       2.844  14.939  21.692  0.00  0.00    +0.000 A 
ATOM     19  O   UNL     1       1.878  14.609  22.371  0.00  0.00    +0.000 OA
ATOM     20  N   UNL     1       2.777  15.228  20.345  0.00  0.00    +0.000 N 
ATOM     21  C   UNL     1       6.647  15.323  21.832  0.00  0.00    +0.000 C 
ATOM     22  O   UNL     1       6.985  14.510  22.686  0.00  0.00    +0.000 OA
ATOM     23  N   UNL     1       7.542  15.963  20.965  0.00  0.00    +0.000 N 
ATOM     24  C   UNL     1       7.190  17.356  20.740  0.00  0.00    +0.000 C 
ATOM     25  C   UNL     1       5.857  17.482  19.974  0.00  0.00    +0.000 C 
ATOM     26  H   UNL     1       1.427  15.864  17.454  0.00  0.00    +0.000 HD
ENDROOT
BRANCH  17  27
ATOM     27  O   UNL     1       4.473  14.310  23.455  0.00  0.00    +0.000 OA
ATOM     28  H   UNL     1       4.271  14.904  24.209  0.00  0.00    +0.000 HD
ENDBRANCH  17  27
BRANCH  23  29
ATOM     29  C   UNL     1       7.908  15.217  19.754  0.00  0.00    +0.000 C 
BRANCH  29  30
ATOM     30  C   UNL     1       9.079  14.272  19.858  0.00  0.00    +0.000 A 
ATOM     31  C   UNL     1      10.403  14.686  20.047  0.00  0.00    +0.000 A 
ATOM     32  C   UNL     1      11.441  13.748  20.056  0.00  0.00    +0.000 A 
ATOM     33  C   UNL     1      11.163  12.396  19.871  0.00  0.00    +0.000 A 
ATOM     34  F   UNL     1      12.182  11.525  19.814  0.00  0.00    +0.000 F 
ATOM     35  C   UNL     1       9.852  11.961  19.729  0.00  0.00    +0.000 A 
ATOM     36 CL   UNL     1       9.488  10.302  19.449  0.00  0.00    +0.000 Cl
ATOM     37  C   UNL     1       8.812  12.890  19.762  0.00  0.00    +0.000 A 
ENDBRANCH  29  30
ENDBRANCH  23  29
TORSDOF 3
ENDMDL
MODEL 5
REMARK VINA RESULT:      -7.5      6.747     11.431
REMARK  Name = 
REMARK  4 active torsions:
REMARK  status: ('A' for Active; 'I' for Inactive)
REMARK    1  A    between atoms: C_1  and  C_2
REMARK    2  A    between atoms: C_17  and  O_18
REMARK    3  A    between atoms: N_24  and  C_25
REMARK    4  A    between atoms: C_25  and  C_26
REMARK                            x       y       z     vdW  Elec       q    Type
REMARK                         _______ _______ _______ _____ _____    ______ ____
ROOT
ATOM      1  C   UNL     1       8.880  12.143  17.860  0.00  0.00    +0.000 C 
ATOM      2  C   UNL     1      10.003  13.123  18.027  0.00  0.00    +0.000 A 
ATOM      3  C   UNL     1      10.924  13.205  16.950  0.00  0.00    +0.000 A 
ATOM      4  C   UNL     1      12.067  14.006  17.007  0.00  0.00    +0.000 A 
ATOM      5  C   UNL     1      12.327  14.732  18.153  0.00  0.00    +0.000 A 
ATOM      6  C   UNL     1      11.406  14.686  19.198  0.00  0.00    +0.000 A 
ATOM      7  C   UNL     1      10.215  13.931  19.157  0.00  0.00    +0.000 A 
ATOM      8  C   UNL     1       9.389  14.210  20.414  0.00  0.00    +0.000 C 
ATOM      9  C   UNL     1      10.357  15.072  21.288  0.00  0.00    +0.000 C 
ATOM     10  C   UNL     1      11.592  15.430  20.470  0.00  0.00    +0.000 C 
ATOM     11  N   UNL     1       9.016  13.035  21.183  0.00  0.00    +0.000 N 
ATOM     12  C   UNL     1       7.811  13.229  21.845  0.00  0.00    +0.000 C 
ATOM     13  O   UNL     1       7.352  12.575  22.765  0.00  0.00    +0.000 OA
ATOM     14  C   UNL     1       7.170  14.373  21.137  0.00  0.00    +0.000 A 
ATOM     15  C   UNL     1       5.957  14.933  21.302  0.00  0.00    +0.000 A 
ATOM     16  C   UNL     1       5.545  15.876  20.263  0.00  0.00    +0.000 A 
ATOM     17  C   UNL     1       6.453  16.543  19.519  0.00  0.00    +0.000 A 
ATOM     18  C   UNL     1       7.904  16.122  19.642  0.00  0.00    +0.000 A 
ATOM     19  O   UNL     1       8.812  16.817  19.202  0.00  0.00    +0.000 OA
ATOM     20  N   UNL     1       8.093  14.888  20.229  0.00  0.00    +0.000 N 
ATOM     21  C   UNL     1       4.091  15.907  19.851  0.00  0.00    +0.000 C 
ATOM     22  O   UNL     1       3.716  16.517  18.855  0.00  0.00    +0.000 OA
ATOM     23  N   UNL     1       3.254  15.106  20.638  0.00  0.00    +0.000 N 
ATOM     24  C   UNL     1       3.544  15.235  22.057  0.00  0.00    +0.000 C 
ATOM     25  C   UNL     1       4.939  14.673  22.399  0.00  0.00    +0.000 C 
ATOM     26  H   UNL     1       9.695  12.382  21.547  0.00  0.00    +0.000 HD
ENDROOT
BRANCH  17  27
ATOM     27  O   UNL     1       6.142  17.506  18.575  0.00  0.00    +0.000 OA
ATOM     28  H   UNL     1       6.058  17.069  17.700  0.00  0.00    +0.000 HD
ENDBRANCH  17  27
BRANCH  23  29
ATOM     29  C   UNL     1       3.061  13.727  20.172  0.00  0.00    +0.000 C 
BRANCH  29  30
ATOM     30  C   UNL     1       1.755  13.411  19.485  0.00  0.00    +0.000 A 
ATOM     31  C   UNL     1       0.797  14.375  19.147  0.00  0.00    +0.000 A 
ATOM     32  C   UNL     1      -0.423  13.988  18.580  0.00  0.00    +0.000 A 
ATOM     33  C   UNL     1      -0.693  12.640  18.355  0.00  0.00    +0.000 A 
ATOM     34  F   UNL     1      -1.896  12.292  17.876  0.00  0.00    +0.000 F 
ATOM     35  C   UNL     1       0.263  11.675  18.640  0.00  0.00    +0.000 A 
ATOM     36 CL   UNL     1      -0.068  10.000  18.417  0.00  0.00    +0.000 Cl
ATOM     37  C   UNL     1       1.495  12.061  19.166  0.00  0.00    +0.000 A 
ENDBRANCH  29  30
ENDBRANCH  23  29
TORSDOF 3
ENDMDL
MODEL 6
REMARK VINA RESULT:      -7.5      3.769      7.551
REMARK  Name = 
REMARK  4 active torsions:
REMARK  status: ('A' for Active; 'I' for Inactive)
REMARK    1  A    between atoms: C_1  and  C_2
REMARK    2  A    between atoms: C_17  and  O_18
REMARK    3  A    between atoms: N_24  and  C_25
REMARK    4  A    between atoms: C_25  and  C_26
REMARK                            x       y       z     vdW  Elec       q    Type
REMARK                         _______ _______ _______ _____ _____    ______ ____
ROOT
ATOM      1  C   UNL     1       0.109   8.941  22.344  0.00  0.00    +0.000 C 
ATOM      2  C   UNL     1       0.782   8.636  21.038  0.00  0.00    +0.000 A 
ATOM      3  C   UNL     1       1.155   7.282  20.830  0.00  0.00    +0.000 A 
ATOM      4  C   UNL     1       1.868   6.872  19.702  0.00  0.00    +0.000 A 
ATOM      5  C   UNL     1       2.245   7.810  18.761  0.00  0.00    +0.000 A 
ATOM      6  C   UNL     1       1.848   9.134  18.940  0.00  0.00    +0.000 A 
ATOM      7  C   UNL     1       1.081   9.578  20.039  0.00  0.00    +0.000 A 
ATOM      8  C   UNL     1       0.726  11.053  19.852  0.00  0.00    +0.000 C 
ATOM      9  C   UNL     1       1.562  11.462  18.596  0.00  0.00    +0.000 C 
ATOM     10  C   UNL     1       2.199  10.218  17.987  0.00  0.00    +0.000 C 
ATOM     11  N   UNL     1       1.107  11.927  20.949  0.00  0.00    +0.000 N 
ATOM     12  C   UNL     1       0.241  13.006  21.057  0.00  0.00    +0.000 C 
ATOM     13  O   UNL     1       0.415  14.043  21.672  0.00  0.00    +0.000 OA
ATOM     14  C   UNL     1      -0.979  12.589  20.310  0.00  0.00    +0.000 A 
ATOM     15  C   UNL     1      -2.164  13.209  20.157  0.00  0.00    +0.000 A 
ATOM     16  C   UNL     1      -3.234  12.401  19.574  0.00  0.00    +0.000 A 
ATOM     17  C   UNL     1      -2.964  11.349  18.773  0.00  0.00    +0.000 A 
ATOM     18  C   UNL     1      -1.520  10.897  18.673  0.00  0.00    +0.000 A 
ATOM     19  O   UNL     1      -1.150  10.124  17.798  0.00  0.00    +0.000 OA
ATOM     20  N   UNL     1      -0.700  11.383  19.670  0.00  0.00    +0.000 N 
ATOM     21  C   UNL     1      -4.645  12.594  20.083  0.00  0.00    +0.000 C 
ATOM     22  O   UNL     1      -5.547  11.817  19.792  0.00  0.00    +0.000 OA
ATOM     23  N   UNL     1      -4.790  13.660  20.979  0.00  0.00    +0.000 N 
ATOM     24  C   UNL     1      -4.074  14.848  20.543  0.00  0.00    +0.000 C 
ATOM     25  C   UNL     1      -2.548  14.623  20.559  0.00  0.00    +0.000 C 
ATOM     26  H   UNL     1       2.058  12.005  21.279  0.00  0.00    +0.000 HD
ENDROOT
BRANCH  17  27
ATOM     27  O   UNL     1      -3.921  10.588  18.124  0.00  0.00    +0.000 OA
ATOM     28  H   UNL     1      -4.803  10.827  18.479  0.00  0.00    +0.000 HD
ENDBRANCH  17  27
BRANCH  23  29
ATOM     29  C   UNL     1      -4.627  13.331  22.402  0.00  0.00    +0.000 C 
BRANCH  29  30
ATOM     30  C   UNL     1      -4.567  14.485  23.371  0.00  0.00    +0.000 A 
ATOM     31  C   UNL     1      -5.586  15.432  23.522  0.00  0.00    +0.000 A 
ATOM     32  C   UNL     1      -5.418  16.517  24.390  0.00  0.00    +0.000 A 
ATOM     33  C   UNL     1      -4.231  16.663  25.104  0.00  0.00    +0.000 A 
ATOM     34  F   UNL     1      -4.068  17.748  25.876  0.00  0.00    +0.000 F 
ATOM     35  C   UNL     1      -3.228  15.708  25.003  0.00  0.00    +0.000 A 
ATOM     36 CL   UNL     1      -1.734  15.894  25.837  0.00  0.00    +0.000 Cl
ATOM     37  C   UNL     1      -3.410  14.605  24.171  0.00  0.00    +0.000 A 
ENDBRANCH  29  30
ENDBRANCH  23  29
TORSDOF 3
ENDMDL
MODEL 7
REMARK VINA RESULT:      -7.4      4.723      7.167
REMARK  Name = 
REMARK  4 active torsions:
REMARK  status: ('A' for Active; 'I' for Inactive)
REMARK    1  A    between atoms: C_1  and  C_2
REMARK    2  A    between atoms: C_17  and  O_18
REMARK    3  A    between atoms: N_24  and  C_25
REMARK    4  A    between atoms: C_25  and  C_26
REMARK                            x       y       z     vdW  Elec       q    Type
REMARK                         _______ _______ _______ _____ _____    ______ ____
ROOT
ATOM      1  C   UNL     1       3.396  15.429  17.114  0.00  0.00    +0.000 C 
ATOM      2  C   UNL     1       2.407  16.452  17.591  0.00  0.00    +0.000 A 
ATOM      3  C   UNL     1       2.192  17.560  16.729  0.00  0.00    +0.000 A 
ATOM      4  C   UNL     1       1.370  18.631  17.085  0.00  0.00    +0.000 A 
ATOM      5  C   UNL     1       0.757  18.631  18.323  0.00  0.00    +0.000 A 
ATOM      6  C   UNL     1       0.933  17.528  19.157  0.00  0.00    +0.000 A 
ATOM      7  C   UNL     1       1.712  16.404  18.811  0.00  0.00    +0.000 A 
ATOM      8  C   UNL     1       1.585  15.338  19.901  0.00  0.00    +0.000 C 
ATOM      9  C   UNL     1       0.790  16.077  21.026  0.00  0.00    +0.000 C 
ATOM     10  C   UNL     1       0.317  17.429  20.505  0.00  0.00    +0.000 C 
ATOM     11  N   UNL     1       2.842  14.878  20.468  0.00  0.00    +0.000 N 
ATOM     12  C   UNL     1       2.748  13.560  20.894  0.00  0.00    +0.000 C 
ATOM     13  O   UNL     1       3.504  12.963  21.640  0.00  0.00    +0.000 OA
ATOM     14  C   UNL     1       1.556  13.016  20.185  0.00  0.00    +0.000 A 
ATOM     15  C   UNL     1       1.049  11.769  20.159  0.00  0.00    +0.000 A 
ATOM     16  C   UNL     1       0.017  11.523  19.153  0.00  0.00    +0.000 A 
ATOM     17  C   UNL     1      -0.746  12.526  18.668  0.00  0.00    +0.000 A 
ATOM     18  C   UNL     1      -0.355  13.944  19.035  0.00  0.00    +0.000 A 
ATOM     19  O   UNL     1      -1.115  14.886  18.850  0.00  0.00    +0.000 OA
ATOM     20  N   UNL     1       0.927  14.072  19.529  0.00  0.00    +0.000 N 
ATOM     21  C   UNL     1      -0.016  10.176  18.466  0.00  0.00    +0.000 C 
ATOM     22  O   UNL     1      -0.714   9.973  17.479  0.00  0.00    +0.000 OA
ATOM     23  N   UNL     1       0.883   9.241  18.994  0.00  0.00    +0.000 N 
ATOM     24  C   UNL     1       0.891   9.244  20.448  0.00  0.00    +0.000 C 
ATOM     25  C   UNL     1       1.446  10.571  21.005  0.00  0.00    +0.000 C 
ATOM     26  H   UNL     1       3.509  15.503  20.895  0.00  0.00    +0.000 HD
ENDROOT
BRANCH  17  27
ATOM     27  O   UNL     1      -1.791  12.358  17.776  0.00  0.00    +0.000 OA
ATOM     28  H   UNL     1      -2.310  13.190  17.745  0.00  0.00    +0.000 HD
ENDBRANCH  17  27
BRANCH  23  29
ATOM     29  C   UNL     1       2.212   9.205  18.371  0.00  0.00    +0.000 C 
BRANCH  29  30
ATOM     30  C   UNL     1       2.801   7.846  18.087  0.00  0.00    +0.000 A 
ATOM     31  C   UNL     1       4.113   7.640  17.644  0.00  0.00    +0.000 A 
ATOM     32  C   UNL     1       4.557   6.350  17.331  0.00  0.00    +0.000 A 
ATOM     33  C   UNL     1       3.692   5.264  17.452  0.00  0.00    +0.000 A 
ATOM     34  F   UNL     1       4.121   4.049  17.079  0.00  0.00    +0.000 F 
ATOM     35  C   UNL     1       2.403   5.443  17.934  0.00  0.00    +0.000 A 
ATOM     36 CL   UNL     1       1.302   4.125  18.044  0.00  0.00    +0.000 Cl
ATOM     37  C   UNL     1       1.972   6.721  18.287  0.00  0.00    +0.000 A 
ENDBRANCH  29  30
ENDBRANCH  23  29
TORSDOF 3
ENDMDL
MODEL 8
REMARK VINA RESULT:      -7.4      6.027      8.014
REMARK  Name = 
REMARK  4 active torsions:
REMARK  status: ('A' for Active; 'I' for Inactive)
REMARK    1  A    between atoms: C_1  and  C_2
REMARK    2  A    between atoms: C_17  and  O_18
REMARK    3  A    between atoms: N_24  and  C_25
REMARK    4  A    between atoms: C_25  and  C_26
REMARK                            x       y       z     vdW  Elec       q    Type
REMARK                         _______ _______ _______ _____ _____    ______ ____
ROOT
ATOM      1  C   UNL     1       1.772  12.176  18.165  0.00  0.00    +0.000 C 
ATOM      2  C   UNL     1       0.670  12.632  19.076  0.00  0.00    +0.000 A 
ATOM      3  C   UNL     1      -0.310  11.659  19.403  0.00  0.00    +0.000 A 
ATOM      4  C   UNL     1      -1.439  11.967  20.166  0.00  0.00    +0.000 A 
ATOM      5  C   UNL     1      -1.626  13.263  20.605  0.00  0.00    +0.000 A 
ATOM      6  C   UNL     1      -0.647  14.214  20.320  0.00  0.00    +0.000 A 
ATOM      7  C   UNL     1       0.532  13.929  19.599  0.00  0.00    +0.000 A 
ATOM      8  C   UNL     1       1.431  15.166  19.579  0.00  0.00    +0.000 C 
ATOM      9  C   UNL     1       0.525  16.271  20.212  0.00  0.00    +0.000 C 
ATOM     10  C   UNL     1      -0.751  15.632  20.747  0.00  0.00    +0.000 C 
ATOM     11  N   UNL     1       1.835  15.618  18.258  0.00  0.00    +0.000 N 
ATOM     12  C   UNL     1       3.078  16.235  18.297  0.00  0.00    +0.000 C 
ATOM     13  O   UNL     1       3.582  16.949  17.448  0.00  0.00    +0.000 OA
ATOM     14  C   UNL     1       3.690  15.777  19.576  0.00  0.00    +0.000 A 
ATOM     15  C   UNL     1       4.917  15.996  20.086  0.00  0.00    +0.000 A 
ATOM     16  C   UNL     1       5.278  15.183  21.246  0.00  0.00    +0.000 A 
ATOM     17  C   UNL     1       4.336  14.669  22.064  0.00  0.00    +0.000 A 
ATOM     18  C   UNL     1       2.890  14.775  21.623  0.00  0.00    +0.000 A 
ATOM     19  O   UNL     1       1.966  14.562  22.399  0.00  0.00    +0.000 OA
ATOM     20  N   UNL     1       2.722  15.068  20.286  0.00  0.00    +0.000 N 
ATOM     21  C   UNL     1       6.707  14.705  21.376  0.00  0.00    +0.000 C 
ATOM     22  O   UNL     1       7.030  13.859  22.202  0.00  0.00    +0.000 OA
ATOM     23  N   UNL     1       7.578  15.235  20.416  0.00  0.00    +0.000 N 
ATOM     24  C   UNL     1       7.372  16.659  20.210  0.00  0.00    +0.000 C 
ATOM     25  C   UNL     1       5.992  16.942  19.580  0.00  0.00    +0.000 C 
ATOM     26  H   UNL     1       1.171  15.859  17.537  0.00  0.00    +0.000 HD
ENDROOT
BRANCH  17  27
ATOM     27  O   UNL     1       4.604  13.958  23.222  0.00  0.00    +0.000 OA
ATOM     28  H   UNL     1       5.575  13.930  23.353  0.00  0.00    +0.000 HD
ENDBRANCH  17  27
BRANCH  23  29
ATOM     29  C   UNL     1       7.730  14.450  19.184  0.00  0.00    +0.000 C 
BRANCH  29  30
ATOM     30  C   UNL     1       8.897  13.495  19.117  0.00  0.00    +0.000 A 
ATOM     31  C   UNL     1       9.050  12.390  19.962  0.00  0.00    +0.000 A 
ATOM     32  C   UNL     1      10.202  11.598  19.884  0.00  0.00    +0.000 A 
ATOM     33  C   UNL     1      11.205  11.910  18.969  0.00  0.00    +0.000 A 
ATOM     34  F   UNL     1      12.328  11.177  18.963  0.00  0.00    +0.000 F 
ATOM     35  C   UNL     1      11.048  12.975  18.091  0.00  0.00    +0.000 A 
ATOM     36 CL   UNL     1      12.295  13.409  16.987  0.00  0.00    +0.000 Cl
ATOM     37  C   UNL     1       9.884  13.739  18.138  0.00  0.00    +0.000 A 
ENDBRANCH  29  30
ENDBRANCH  23  29
TORSDOF 3
ENDMDL
MODEL 9
REMARK VINA RESULT:      -7.4      4.710      7.146
REMARK  Name = 
REMARK  4 active torsions:
REMARK  status: ('A' for Active; 'I' for Inactive)
REMARK    1  A    between atoms: C_1  and  C_2
REMARK    2  A    between atoms: C_17  and  O_18
REMARK    3  A    between atoms: N_24  and  C_25
REMARK    4  A    between atoms: C_25  and  C_26
REMARK                            x       y       z     vdW  Elec       q    Type
REMARK                         _______ _______ _______ _____ _____    ______ ____
ROOT
ATOM      1  C   UNL     1       3.369  15.352  17.078  0.00  0.00    +0.000 C 
ATOM      2  C   UNL     1       2.397  16.405  17.525  0.00  0.00    +0.000 A 
ATOM      3  C   UNL     1       2.213  17.498  16.639  0.00  0.00    +0.000 A 
ATOM      4  C   UNL     1       1.409  18.593  16.965  0.00  0.00    +0.000 A 
ATOM      5  C   UNL     1       0.785  18.631  18.197  0.00  0.00    +0.000 A 
ATOM      6  C   UNL     1       0.931  17.542  19.055  0.00  0.00    +0.000 A 
ATOM      7  C   UNL     1       1.690  16.395  18.739  0.00  0.00    +0.000 A 
ATOM      8  C   UNL     1       1.532  15.355  19.850  0.00  0.00    +0.000 C 
ATOM      9  C   UNL     1       0.741  16.133  20.952  0.00  0.00    +0.000 C 
ATOM     10  C   UNL     1       0.301  17.483  20.399  0.00  0.00    +0.000 C 
ATOM     11  N   UNL     1       2.773  14.882  20.438  0.00  0.00    +0.000 N 
ATOM     12  C   UNL     1       2.649  13.575  20.890  0.00  0.00    +0.000 C 
ATOM     13  O   UNL     1       3.386  12.978  21.655  0.00  0.00    +0.000 OA
ATOM     14  C   UNL     1       1.453  13.040  20.180  0.00  0.00    +0.000 A 
ATOM     15  C   UNL     1       0.920  11.804  20.175  0.00  0.00    +0.000 A 
ATOM     16  C   UNL     1      -0.107  11.558  19.164  0.00  0.00    +0.000 A 
ATOM     17  C   UNL     1      -0.845  12.565  18.652  0.00  0.00    +0.000 A 
ATOM     18  C   UNL     1      -0.428  13.983  18.994  0.00  0.00    +0.000 A 
ATOM     19  O   UNL     1      -1.168  14.937  18.782  0.00  0.00    +0.000 OA
ATOM     20  N   UNL     1       0.851  14.096  19.497  0.00  0.00    +0.000 N 
ATOM     21  C   UNL     1      -0.162  10.198  18.505  0.00  0.00    +0.000 C 
ATOM     22  O   UNL     1      -0.854   9.989  17.515  0.00  0.00    +0.000 OA
ATOM     23  N   UNL     1       0.714   9.256  19.061  0.00  0.00    +0.000 N 
ATOM     24  C   UNL     1       0.708   9.289  20.514  0.00  0.00    +0.000 C 
ATOM     25  C   UNL     1       1.286  10.616  21.049  0.00  0.00    +0.000 C 
ATOM     26  H   UNL     1       3.450  15.502  20.859  0.00  0.00    +0.000 HD
ENDROOT
BRANCH  17  27
ATOM     27  O   UNL     1      -1.885  12.401  17.754  0.00  0.00    +0.000 OA
ATOM     28  H   UNL     1      -2.710  12.733  18.168  0.00  0.00    +0.000 HD
ENDBRANCH  17  27
BRANCH  23  29
ATOM     29  C   UNL     1       2.048   9.181  18.451  0.00  0.00    +0.000 C 
BRANCH  29  30
ATOM     30  C   UNL     1       2.574   7.807  18.119  0.00  0.00    +0.000 A 
ATOM     31  C   UNL     1       1.919   6.617  18.456  0.00  0.00    +0.000 A 
ATOM     32  C   UNL     1       2.514   5.381  18.178  0.00  0.00    +0.000 A 
ATOM     33  C   UNL     1       3.766   5.329  17.570  0.00  0.00    +0.000 A 
ATOM     34  F   UNL     1       4.344   4.134  17.377  0.00  0.00    +0.000 F 
ATOM     35  C   UNL     1       4.409   6.498  17.185  0.00  0.00    +0.000 A 
ATOM     36 CL   UNL     1       5.978   6.459  16.478  0.00  0.00    +0.000 Cl
ATOM     37  C   UNL     1       3.800   7.729  17.423  0.00  0.00    +0.000 A 
ENDBRANCH  29  30
ENDBRANCH  23  29
TORSDOF 3
ENDMDL
