MODEL 1
REMARK VINA RESULT:      -7.8      0.000      0.000
REMARK  Name = 
REMARK  7 active torsions:
REMARK  status: ('A' for Active; 'I' for Inactive)
REMARK    1  A    between atoms: C_1  and  O_2
REMARK    2  A    between atoms: O_2  and  C_3
REMARK    3  A    between atoms: C_6  and  O_7
REMARK    4  A    between atoms: O_7  and  S_8
REMARK    5  A    between atoms: S_8  and  C_11
REMARK    6  A    between atoms: C_14  and  N_15
REMARK    7  A    between atoms: N_18  and  C_19
REMARK                            x       y       z     vdW  Elec       q    Type
REMARK                         _______ _______ _______ _____ _____    ______ ____
ROOT
ATOM      1  C   UNL     1       2.401   4.872  19.024  0.00  0.00    +0.000 A 
ATOM      2  C   UNL     1       1.987   5.039  20.341  0.00  0.00    +0.000 A 
ATOM      3  C   UNL     1       1.637   6.316  20.797  0.00  0.00    +0.000 A 
ATOM      4  C   UNL     1       1.682   7.439  19.951  0.00  0.00    +0.000 A 
ATOM      5  C   UNL     1       2.108   7.236  18.628  0.00  0.00    +0.000 A 
ATOM      6  C   UNL     1       2.475   5.968  18.165  0.00  0.00    +0.000 A 
ENDROOT
BRANCH   4   7
ATOM      7  N   UNL     1       1.327   8.734  20.412  0.00  0.00    +0.000 N 
ATOM      8  C   UNL     1       1.329   9.119  21.809  0.00  0.00    +0.000 C 
ATOM      9  C   UNL     1       0.446  10.352  21.832  0.00  0.00    +0.000 C 
ATOM     10  N   UNL     1       0.645  10.902  20.519  0.00  0.00    +0.000 N 
ATOM     11  C   UNL     1      -0.038  12.094  20.077  0.00  0.00    +0.000 C 
ATOM     12  C   UNL     1       0.997   9.870  19.624  0.00  0.00    +0.000 C 
ATOM     13  O   UNL     1       0.969   9.981  18.409  0.00  0.00    +0.000 OA
ENDBRANCH   4   7
BRANCH   1  14
ATOM     14  S   UNL     1       2.765   3.247  18.395  0.00  0.00    +0.000 S 
ATOM     15  O   UNL     1       2.353   3.251  17.006  0.00  0.00    +0.000 OA
ATOM     16  O   UNL     1       2.190   2.314  19.350  0.00  0.00    +0.000 OA
BRANCH  14  17
ATOM     17  O   UNL     1       4.395   3.136  18.477  0.00  0.00    +0.000 OA
BRANCH  17  21
ATOM     18  C   UNL     1       6.918   6.143  17.026  0.00  0.00    +0.000 A 
ATOM     19  C   UNL     1       6.689   5.970  18.393  0.00  0.00    +0.000 A 
ATOM     20  C   UNL     1       5.852   4.950  18.852  0.00  0.00    +0.000 A 
ATOM     21  C   UNL     1       5.201   4.113  17.944  0.00  0.00    +0.000 A 
ATOM     22  C   UNL     1       5.430   4.283  16.578  0.00  0.00    +0.000 A 
ATOM     23  C   UNL     1       6.277   5.299  16.119  0.00  0.00    +0.000 A 
BRANCH  18  25
ATOM     24  C   UNL     1       7.909   8.187  17.680  0.00  0.00    +0.000 C 
ATOM     25  O   UNL     1       7.748   7.175  16.692  0.00  0.00    +0.000 OA
ENDBRANCH  18  25
ENDBRANCH  17  21
ENDBRANCH  14  17
ENDBRANCH   1  14
TORSDOF 5
ENDMDL
MODEL 2
REMARK VINA RESULT:      -7.6      3.655      8.567
REMARK  Name = 
REMARK  7 active torsions:
REMARK  status: ('A' for Active; 'I' for Inactive)
REMARK    1  A    between atoms: C_1  and  O_2
REMARK    2  A    between atoms: O_2  and  C_3
REMARK    3  A    between atoms: C_6  and  O_7
REMARK    4  A    between atoms: O_7  and  S_8
REMARK    5  A    between atoms: S_8  and  C_11
REMARK    6  A    between atoms: C_14  and  N_15
REMARK    7  A    between atoms: N_18  and  C_19
REMARK                            x       y       z     vdW  Elec       q    Type
REMARK                         _______ _______ _______ _____ _____    ______ ____
ROOT
ATOM      1  C   UNL     1       1.292   9.101  19.694  0.00  0.00    +0.000 A 
ATOM      2  C   UNL     1       1.590   7.950  20.415  0.00  0.00    +0.000 A 
ATOM      3  C   UNL     1       2.335   6.931  19.808  0.00  0.00    +0.000 A 
ATOM      4  C   UNL     1       2.801   7.045  18.485  0.00  0.00    +0.000 A 
ATOM      5  C   UNL     1       2.478   8.218  17.784  0.00  0.00    +0.000 A 
ATOM      6  C   UNL     1       1.722   9.237  18.374  0.00  0.00    +0.000 A 
ENDROOT
BRANCH   4   7
ATOM      7  N   UNL     1       3.556   6.012  17.870  0.00  0.00    +0.000 N 
ATOM      8  C   UNL     1       3.055   4.669  17.653  0.00  0.00    +0.000 C 
ATOM      9  C   UNL     1       4.318   3.855  17.448  0.00  0.00    +0.000 C 
ATOM     10  N   UNL     1       5.221   4.818  16.880  0.00  0.00    +0.000 N 
ATOM     11  C   UNL     1       6.583   4.484  16.542  0.00  0.00    +0.000 C 
ATOM     12  C   UNL     1       4.854   6.113  17.302  0.00  0.00    +0.000 C 
ATOM     13  O   UNL     1       5.576   7.093  17.203  0.00  0.00    +0.000 OA
ENDBRANCH   4   7
BRANCH   1  14
ATOM     14  S   UNL     1       0.425  10.448  20.469  0.00  0.00    +0.000 S 
ATOM     15  O   UNL     1       1.429  11.226  21.166  0.00  0.00    +0.000 OA
ATOM     16  O   UNL     1      -0.690   9.845  21.182  0.00  0.00    +0.000 OA
BRANCH  14  17
ATOM     17  O   UNL     1      -0.168  11.322  19.220  0.00  0.00    +0.000 OA
BRANCH  17  21
ATOM     18  C   UNL     1      -4.106  10.879  17.878  0.00  0.00    +0.000 A 
ATOM     19  C   UNL     1      -3.750  11.862  18.805  0.00  0.00    +0.000 A 
ATOM     20  C   UNL     1      -2.425  11.996  19.227  0.00  0.00    +0.000 A 
ATOM     21  C   UNL     1      -1.445  11.122  18.756  0.00  0.00    +0.000 A 
ATOM     22  C   UNL     1      -1.798  10.140  17.829  0.00  0.00    +0.000 A 
ATOM     23  C   UNL     1      -3.124  10.012  17.398  0.00  0.00    +0.000 A 
BRANCH  18  25
ATOM     24  C   UNL     1      -6.346  11.149  18.587  0.00  0.00    +0.000 C 
ATOM     25  O   UNL     1      -5.429  10.833  17.543  0.00  0.00    +0.000 OA
ENDBRANCH  18  25
ENDBRANCH  17  21
ENDBRANCH  14  17
ENDBRANCH   1  14
TORSDOF 5
ENDMDL
MODEL 3
REMARK VINA RESULT:      -7.6      1.919      2.721
REMARK  Name = 
REMARK  7 active torsions:
REMARK  status: ('A' for Active; 'I' for Inactive)
REMARK    1  A    between atoms: C_1  and  O_2
REMARK    2  A    between atoms: O_2  and  C_3
REMARK    3  A    between atoms: C_6  and  O_7
REMARK    4  A    between atoms: O_7  and  S_8
REMARK    5  A    between atoms: S_8  and  C_11
REMARK    6  A    between atoms: C_14  and  N_15
REMARK    7  A    between atoms: N_18  and  C_19
REMARK                            x       y       z     vdW  Elec       q    Type
REMARK                         _______ _______ _______ _____ _____    ______ ____
ROOT
ATOM      1  C   UNL     1       2.218   7.165  19.505  0.00  0.00    +0.000 A 
ATOM      2  C   UNL     1       1.627   7.669  20.658  0.00  0.00    +0.000 A 
ATOM      3  C   UNL     1       1.002   8.922  20.620  0.00  0.00    +0.000 A 
ATOM      4  C   UNL     1       0.947   9.684  19.438  0.00  0.00    +0.000 A 
ATOM      5  C   UNL     1       1.558   9.148  18.294  0.00  0.00    +0.000 A 
ATOM      6  C   UNL     1       2.199   7.904  18.322  0.00  0.00    +0.000 A 
ENDROOT
BRANCH   4   7
ATOM      7  N   UNL     1       0.314  10.954  19.400  0.00  0.00    +0.000 N 
ATOM      8  C   UNL     1      -1.112  11.148  19.575  0.00  0.00    +0.000 C 
ATOM      9  C   UNL     1      -1.353  12.522  18.979  0.00  0.00    +0.000 C 
ATOM     10  N   UNL     1      -0.097  13.184  19.205  0.00  0.00    +0.000 N 
ATOM     11  C   UNL     1       0.145  14.536  18.765  0.00  0.00    +0.000 C 
ATOM     12  C   UNL     1       0.936  12.225  19.269  0.00  0.00    +0.000 C 
ATOM     13  O   UNL     1       2.124  12.495  19.186  0.00  0.00    +0.000 OA
ENDBRANCH   4   7
BRANCH   1  14
ATOM     14  S   UNL     1       2.940   5.538  19.502  0.00  0.00    +0.000 S 
ATOM     15  O   UNL     1       2.587   4.942  18.229  0.00  0.00    +0.000 OA
ATOM     16  O   UNL     1       2.541   4.925  20.758  0.00  0.00    +0.000 OA
BRANCH  14  17
ATOM     17  O   UNL     1       4.553   5.809  19.545  0.00  0.00    +0.000 OA
BRANCH  17  21
ATOM     18  C   UNL     1       6.881   5.370  16.097  0.00  0.00    +0.000 A 
ATOM     19  C   UNL     1       5.891   6.350  16.196  0.00  0.00    +0.000 A 
ATOM     20  C   UNL     1       5.136   6.483  17.364  0.00  0.00    +0.000 A 
ATOM     21  C   UNL     1       5.336   5.611  18.435  0.00  0.00    +0.000 A 
ATOM     22  C   UNL     1       6.327   4.632  18.338  0.00  0.00    +0.000 A 
ATOM     23  C   UNL     1       7.090   4.505  17.171  0.00  0.00    +0.000 A 
BRANCH  18  25
ATOM     24  C   UNL     1       6.893   4.638  13.849  0.00  0.00    +0.000 C 
ATOM     25  O   UNL     1       7.552   5.326  14.908  0.00  0.00    +0.000 OA
ENDBRANCH  18  25
ENDBRANCH  17  21
ENDBRANCH  14  17
ENDBRANCH   1  14
TORSDOF 5
ENDMDL
MODEL 4
REMARK VINA RESULT:      -7.5      0.670      1.173
REMARK  Name = 
REMARK  7 active torsions:
REMARK  status: ('A' for Active; 'I' for Inactive)
REMARK    1  A    between atoms: C_1  and  O_2
REMARK    2  A    between atoms: O_2  and  C_3
REMARK    3  A    between atoms: C_6  and  O_7
REMARK    4  A    between atoms: O_7  and  S_8
REMARK    5  A    between atoms: S_8  and  C_11
REMARK    6  A    between atoms: C_14  and  N_15
REMARK    7  A    between atoms: N_18  and  C_19
REMARK                            x       y       z     vdW  Elec       q    Type
REMARK                         _______ _______ _______ _____ _____    ______ ____
ROOT
ATOM      1  C   UNL     1       2.409   4.851  18.892  0.00  0.00    +0.000 A 
ATOM      2  C   UNL     1       2.103   5.241  20.191  0.00  0.00    +0.000 A 
ATOM      3  C   UNL     1       1.806   6.584  20.455  0.00  0.00    +0.000 A 
ATOM      4  C   UNL     1       1.798   7.552  19.434  0.00  0.00    +0.000 A 
ATOM      5  C   UNL     1       2.115   7.125  18.135  0.00  0.00    +0.000 A 
ATOM      6  C   UNL     1       2.429   5.789  17.861  0.00  0.00    +0.000 A 
ENDROOT
BRANCH   4   7
ATOM      7  N   UNL     1       1.498   8.914  19.701  0.00  0.00    +0.000 N 
ATOM      8  C   UNL     1       1.114   9.413  21.007  0.00  0.00    +0.000 C 
ATOM      9  C   UNL     1       0.446  10.737  20.692  0.00  0.00    +0.000 C 
ATOM     10  N   UNL     1       1.119  11.148  19.490  0.00  0.00    +0.000 N 
ATOM     11  C   UNL     1       0.778  12.369  18.801  0.00  0.00    +0.000 C 
ATOM     12  C   UNL     1       1.589  10.010  18.801  0.00  0.00    +0.000 C 
ATOM     13  O   UNL     1       1.958  10.021  17.637  0.00  0.00    +0.000 OA
ENDBRANCH   4   7
BRANCH   1  14
ATOM     14  S   UNL     1       2.702   3.136  18.514  0.00  0.00    +0.000 S 
ATOM     15  O   UNL     1       2.301   2.954  17.134  0.00  0.00    +0.000 OA
ATOM     16  O   UNL     1       2.075   2.381  19.587  0.00  0.00    +0.000 OA
BRANCH  14  17
ATOM     17  O   UNL     1       4.324   2.965  18.636  0.00  0.00    +0.000 OA
BRANCH  17  21
ATOM     18  C   UNL     1       6.854   6.042  17.355  0.00  0.00    +0.000 A 
ATOM     19  C   UNL     1       6.219   5.187  16.452  0.00  0.00    +0.000 A 
ATOM     20  C   UNL     1       5.369   4.175  16.906  0.00  0.00    +0.000 A 
ATOM     21  C   UNL     1       5.174   3.981  18.274  0.00  0.00    +0.000 A 
ATOM     22  C   UNL     1       5.807   4.836  19.178  0.00  0.00    +0.000 A 
ATOM     23  C   UNL     1       6.650   5.856  18.723  0.00  0.00    +0.000 A 
BRANCH  18  25
ATOM     24  C   UNL     1       7.801   8.200  17.539  0.00  0.00    +0.000 C 
ATOM     25  O   UNL     1       7.667   6.989  16.801  0.00  0.00    +0.000 OA
ENDBRANCH  18  25
ENDBRANCH  17  21
ENDBRANCH  14  17
ENDBRANCH   1  14
TORSDOF 5
ENDMDL
MODEL 5
REMARK VINA RESULT:      -7.5      3.706      8.675
REMARK  Name = 
REMARK  7 active torsions:
REMARK  status: ('A' for Active; 'I' for Inactive)
REMARK    1  A    between atoms: C_1  and  O_2
REMARK    2  A    between atoms: O_2  and  C_3
REMARK    3  A    between atoms: C_6  and  O_7
REMARK    4  A    between atoms: O_7  and  S_8
REMARK    5  A    between atoms: S_8  and  C_11
REMARK    6  A    between atoms: C_14  and  N_15
REMARK    7  A    between atoms: N_18  and  C_19
REMARK                            x       y       z     vdW  Elec       q    Type
REMARK                         _______ _______ _______ _____ _____    ______ ____
ROOT
ATOM      1  C   UNL     1       1.215   9.253  19.815  0.00  0.00    +0.000 A 
ATOM      2  C   UNL     1       1.713   9.003  18.541  0.00  0.00    +0.000 A 
ATOM      3  C   UNL     1       2.322   7.772  18.270  0.00  0.00    +0.000 A 
ATOM      4  C   UNL     1       2.435   6.772  19.253  0.00  0.00    +0.000 A 
ATOM      5  C   UNL     1       1.926   7.058  20.529  0.00  0.00    +0.000 A 
ATOM      6  C   UNL     1       1.328   8.291  20.818  0.00  0.00    +0.000 A 
ENDROOT
BRANCH   4   7
ATOM      7  N   UNL     1       3.053   5.523  18.978  0.00  0.00    +0.000 N 
ATOM      8  C   UNL     1       4.489   5.330  18.925  0.00  0.00    +0.000 C 
ATOM      9  C   UNL     1       4.638   4.037  18.147  0.00  0.00    +0.000 C 
ATOM     10  N   UNL     1       3.426   3.336  18.472  0.00  0.00    +0.000 N 
ATOM     11  C   UNL     1       3.119   2.040  17.919  0.00  0.00    +0.000 C 
ATOM     12  C   UNL     1       2.415   4.267  18.793  0.00  0.00    +0.000 C 
ATOM     13  O   UNL     1       1.227   3.992  18.849  0.00  0.00    +0.000 OA
ENDBRANCH   4   7
BRANCH   1  14
ATOM     14  S   UNL     1       0.356  10.774  20.162  0.00  0.00    +0.000 S 
ATOM     15  O   UNL     1       1.370  11.724  20.575  0.00  0.00    +0.000 OA
ATOM     16  O   UNL     1      -0.744  10.417  21.042  0.00  0.00    +0.000 OA
BRANCH  14  17
ATOM     17  O   UNL     1      -0.259  11.231  18.717  0.00  0.00    +0.000 OA
BRANCH  17  21
ATOM     18  C   UNL     1      -4.331  10.798  17.855  0.00  0.00    +0.000 A 
ATOM     19  C   UNL     1      -3.851  11.856  18.631  0.00  0.00    +0.000 A 
ATOM     20  C   UNL     1      -2.485  11.984  18.893  0.00  0.00    +0.000 A 
ATOM     21  C   UNL     1      -1.584  11.032  18.415  0.00  0.00    +0.000 A 
ATOM     22  C   UNL     1      -2.061   9.975  17.638  0.00  0.00    +0.000 A 
ATOM     23  C   UNL     1      -3.429   9.852  17.366  0.00  0.00    +0.000 A 
BRANCH  18  25
ATOM     24  C   UNL     1      -6.475  10.897  18.845  0.00  0.00    +0.000 C 
ATOM     25  O   UNL     1      -5.683  10.768  17.669  0.00  0.00    +0.000 OA
ENDBRANCH  18  25
ENDBRANCH  17  21
ENDBRANCH  14  17
ENDBRANCH   1  14
TORSDOF 5
ENDMDL
MODEL 6
REMARK VINA RESULT:      -7.5      1.034      1.663
REMARK  Name = 
REMARK  7 active torsions:
REMARK  status: ('A' for Active; 'I' for Inactive)
REMARK    1  A    between atoms: C_1  and  O_2
REMARK    2  A    between atoms: O_2  and  C_3
REMARK    3  A    between atoms: C_6  and  O_7
REMARK    4  A    between atoms: O_7  and  S_8
REMARK    5  A    between atoms: S_8  and  C_11
REMARK    6  A    between atoms: C_14  and  N_15
REMARK    7  A    between atoms: N_18  and  C_19
REMARK                            x       y       z     vdW  Elec       q    Type
REMARK                         _______ _______ _______ _____ _____    ______ ____
ROOT
ATOM      1  C   UNL     1       2.574   4.838  19.076  0.00  0.00    +0.000 A 
ATOM      2  C   UNL     1       2.423   5.494  17.859  0.00  0.00    +0.000 A 
ATOM      3  C   UNL     1       2.098   6.856  17.847  0.00  0.00    +0.000 A 
ATOM      4  C   UNL     1       1.930   7.586  19.038  0.00  0.00    +0.000 A 
ATOM      5  C   UNL     1       2.085   6.892  20.249  0.00  0.00    +0.000 A 
ATOM      6  C   UNL     1       2.395   5.528  20.275  0.00  0.00    +0.000 A 
ENDROOT
BRANCH   4   7
ATOM      7  N   UNL     1       1.600   8.967  19.026  0.00  0.00    +0.000 N 
ATOM      8  C   UNL     1       1.994   9.879  17.971  0.00  0.00    +0.000 C 
ATOM      9  C   UNL     1       1.858  11.243  18.620  0.00  0.00    +0.000 C 
ATOM     10  N   UNL     1       0.811  11.028  19.580  0.00  0.00    +0.000 N 
ATOM     11  C   UNL     1       0.358  12.073  20.466  0.00  0.00    +0.000 C 
ATOM     12  C   UNL     1       0.791   9.669  19.960  0.00  0.00    +0.000 C 
ATOM     13  O   UNL     1       0.201   9.243  20.940  0.00  0.00    +0.000 OA
ENDBRANCH   4   7
BRANCH   1  14
ATOM     14  S   UNL     1       3.074   3.130  19.121  0.00  0.00    +0.000 S 
ATOM     15  O   UNL     1       2.678   2.561  17.848  0.00  0.00    +0.000 OA
ATOM     16  O   UNL     1       2.564   2.600  20.375  0.00  0.00    +0.000 OA
BRANCH  14  17
ATOM     17  O   UNL     1       4.706   3.187  19.206  0.00  0.00    +0.000 OA
BRANCH  17  21
ATOM     18  C   UNL     1       6.953   6.110  17.226  0.00  0.00    +0.000 A 
ATOM     19  C   UNL     1       6.754   6.145  18.608  0.00  0.00    +0.000 A 
ATOM     20  C   UNL     1       6.009   5.150  19.246  0.00  0.00    +0.000 A 
ATOM     21  C   UNL     1       5.422   4.126  18.502  0.00  0.00    +0.000 A 
ATOM     22  C   UNL     1       5.621   4.087  17.121  0.00  0.00    +0.000 A 
ATOM     23  C   UNL     1       6.376   5.079  16.483  0.00  0.00    +0.000 A 
BRANCH  18  25
ATOM     24  C   UNL     1       7.880   8.258  17.565  0.00  0.00    +0.000 C 
ATOM     25  O   UNL     1       7.690   7.136  16.708  0.00  0.00    +0.000 OA
ENDBRANCH  18  25
ENDBRANCH  17  21
ENDBRANCH  14  17
ENDBRANCH   1  14
TORSDOF 5
ENDMDL
MODEL 7
REMARK VINA RESULT:      -7.5      2.174      3.144
REMARK  Name = 
REMARK  7 active torsions:
REMARK  status: ('A' for Active; 'I' for Inactive)
REMARK    1  A    between atoms: C_1  and  O_2
REMARK    2  A    between atoms: O_2  and  C_3
REMARK    3  A    between atoms: C_6  and  O_7
REMARK    4  A    between atoms: O_7  and  S_8
REMARK    5  A    between atoms: S_8  and  C_11
REMARK    6  A    between atoms: C_14  and  N_15
REMARK    7  A    between atoms: N_18  and  C_19
REMARK                            x       y       z     vdW  Elec       q    Type
REMARK                         _______ _______ _______ _____ _____    ______ ____
ROOT
ATOM      1  C   UNL     1       2.314   7.323  19.055  0.00  0.00    +0.000 A 
ATOM      2  C   UNL     1       1.763   7.766  20.253  0.00  0.00    +0.000 A 
ATOM      3  C   UNL     1       1.132   9.015  20.300  0.00  0.00    +0.000 A 
ATOM      4  C   UNL     1       1.030   9.834  19.161  0.00  0.00    +0.000 A 
ATOM      5  C   UNL     1       1.600   9.360  17.969  0.00  0.00    +0.000 A 
ATOM      6  C   UNL     1       2.247   8.120  17.912  0.00  0.00    +0.000 A 
ENDROOT
BRANCH   4   7
ATOM      7  N   UNL     1       0.390  11.101  19.209  0.00  0.00    +0.000 N 
ATOM      8  C   UNL     1      -1.041  11.274  19.360  0.00  0.00    +0.000 C 
ATOM      9  C   UNL     1      -1.274  12.691  18.873  0.00  0.00    +0.000 C 
ATOM     10  N   UNL     1      -0.029  13.337  19.187  0.00  0.00    +0.000 N 
ATOM     11  C   UNL     1       0.217  14.722  18.867  0.00  0.00    +0.000 C 
ATOM     12  C   UNL     1       1.008  12.381  19.202  0.00  0.00    +0.000 C 
ATOM     13  O   UNL     1       2.196  12.661  19.174  0.00  0.00    +0.000 OA
ENDBRANCH   4   7
BRANCH   1  14
ATOM     14  S   UNL     1       3.043   5.703  18.945  0.00  0.00    +0.000 S 
ATOM     15  O   UNL     1       2.322   5.008  17.897  0.00  0.00    +0.000 OA
ATOM     16  O   UNL     1       3.076   5.190  20.304  0.00  0.00    +0.000 OA
BRANCH  14  17
ATOM     17  O   UNL     1       4.578   5.981  18.455  0.00  0.00    +0.000 OA
BRANCH  17  21
ATOM     18  C   UNL     1       5.960   4.367  14.850  0.00  0.00    +0.000 A 
ATOM     19  C   UNL     1       5.901   3.609  16.021  0.00  0.00    +0.000 A 
ATOM     20  C   UNL     1       5.424   4.168  17.209  0.00  0.00    +0.000 A 
ATOM     21  C   UNL     1       5.035   5.508  17.249  0.00  0.00    +0.000 A 
ATOM     22  C   UNL     1       5.092   6.267  16.079  0.00  0.00    +0.000 A 
ATOM     23  C   UNL     1       5.561   5.704  14.886  0.00  0.00    +0.000 A 
BRANCH  18  25
ATOM     24  C   UNL     1       5.565   3.629  12.639  0.00  0.00    +0.000 C 
ATOM     25  O   UNL     1       6.450   3.721  13.751  0.00  0.00    +0.000 OA
ENDBRANCH  18  25
ENDBRANCH  17  21
ENDBRANCH  14  17
ENDBRANCH   1  14
TORSDOF 5
ENDMDL
MODEL 8
REMARK VINA RESULT:      -7.4      1.950      2.976
REMARK  Name = 
REMARK  7 active torsions:
REMARK  status: ('A' for Active; 'I' for Inactive)
REMARK    1  A    between atoms: C_1  and  O_2
REMARK    2  A    between atoms: O_2  and  C_3
REMARK    3  A    between atoms: C_6  and  O_7
REMARK    4  A    between atoms: O_7  and  S_8
REMARK    5  A    between atoms: S_8  and  C_11
REMARK    6  A    between atoms: C_14  and  N_15
REMARK    7  A    between atoms: N_18  and  C_19
REMARK                            x       y       z     vdW  Elec       q    Type
REMARK                         _______ _______ _______ _____ _____    ______ ____
ROOT
ATOM      1  C   UNL     1       2.178   7.142  19.355  0.00  0.00    +0.000 A 
ATOM      2  C   UNL     1       2.170   7.814  18.138  0.00  0.00    +0.000 A 
ATOM      3  C   UNL     1       1.604   9.092  18.060  0.00  0.00    +0.000 A 
ATOM      4  C   UNL     1       1.049   9.723  19.188  0.00  0.00    +0.000 A 
ATOM      5  C   UNL     1       1.070   9.016  20.401  0.00  0.00    +0.000 A 
ATOM      6  C   UNL     1       1.619   7.732  20.489  0.00  0.00    +0.000 A 
ENDROOT
BRANCH   4   7
ATOM      7  N   UNL     1       0.474  11.019  19.110  0.00  0.00    +0.000 N 
ATOM      8  C   UNL     1      -0.858  11.280  18.600  0.00  0.00    +0.000 C 
ATOM      9  C   UNL     1      -0.819  12.758  18.265  0.00  0.00    +0.000 C 
ATOM     10  N   UNL     1       0.137  13.268  19.209  0.00  0.00    +0.000 N 
ATOM     11  C   UNL     1       0.518  14.659  19.239  0.00  0.00    +0.000 C 
ATOM     12  C   UNL     1       1.035  12.241  19.570  0.00  0.00    +0.000 C 
ATOM     13  O   UNL     1       2.099  12.433  20.138  0.00  0.00    +0.000 OA
ENDBRANCH   4   7
BRANCH   1  14
ATOM     14  S   UNL     1       2.971   5.555  19.502  0.00  0.00    +0.000 S 
ATOM     15  O   UNL     1       2.639   4.826  18.294  0.00  0.00    +0.000 OA
ATOM     16  O   UNL     1       2.604   5.048  20.813  0.00  0.00    +0.000 OA
BRANCH  14  17
ATOM     17  O   UNL     1       4.571   5.899  19.505  0.00  0.00    +0.000 OA
BRANCH  17  21
ATOM     18  C   UNL     1       6.886   5.350  16.064  0.00  0.00    +0.000 A 
ATOM     19  C   UNL     1       5.899   6.335  16.137  0.00  0.00    +0.000 A 
ATOM     20  C   UNL     1       5.148   6.505  17.303  0.00  0.00    +0.000 A 
ATOM     21  C   UNL     1       5.350   5.665  18.398  0.00  0.00    +0.000 A 
ATOM     22  C   UNL     1       6.337   4.681  18.328  0.00  0.00    +0.000 A 
ATOM     23  C   UNL     1       7.097   4.517  17.164  0.00  0.00    +0.000 A 
BRANCH  18  25
ATOM     24  C   UNL     1       6.870   4.588  13.826  0.00  0.00    +0.000 C 
ATOM     25  O   UNL     1       7.553   5.268  14.875  0.00  0.00    +0.000 OA
ENDBRANCH  18  25
ENDBRANCH  17  21
ENDBRANCH  14  17
ENDBRANCH   1  14
TORSDOF 5
ENDMDL
MODEL 9
REMARK VINA RESULT:      -7.4      3.691      8.761
REMARK  Name = 
REMARK  7 active torsions:
REMARK  status: ('A' for Active; 'I' for Inactive)
REMARK    1  A    between atoms: C_1  and  O_2
REMARK    2  A    between atoms: O_2  and  C_3
REMARK    3  A    between atoms: C_6  and  O_7
REMARK    4  A    between atoms: O_7  and  S_8
REMARK    5  A    between atoms: S_8  and  C_11
REMARK    6  A    between atoms: C_14  and  N_15
REMARK    7  A    between atoms: N_18  and  C_19
REMARK                            x       y       z     vdW  Elec       q    Type
REMARK                         _______ _______ _______ _____ _____    ______ ____
ROOT
ATOM      1  C   UNL     1       1.248   9.269  19.726  0.00  0.00    +0.000 A 
ATOM      2  C   UNL     1       1.612   9.344  18.386  0.00  0.00    +0.000 A 
ATOM      3  C   UNL     1       2.280   8.266  17.792  0.00  0.00    +0.000 A 
ATOM      4  C   UNL     1       2.586   7.099  18.516  0.00  0.00    +0.000 A 
ATOM      5  C   UNL     1       2.209   7.058  19.868  0.00  0.00    +0.000 A 
ATOM      6  C   UNL     1       1.553   8.134  20.477  0.00  0.00    +0.000 A 
ENDROOT
BRANCH   4   7
ATOM      7  N   UNL     1       3.264   6.005  17.915  0.00  0.00    +0.000 N 
ATOM      8  C   UNL     1       2.712   4.668  17.824  0.00  0.00    +0.000 C 
ATOM      9  C   UNL     1       3.933   3.803  17.580  0.00  0.00    +0.000 C 
ATOM     10  N   UNL     1       4.816   4.699  16.885  0.00  0.00    +0.000 N 
ATOM     11  C   UNL     1       6.139   4.301  16.469  0.00  0.00    +0.000 C 
ATOM     12  C   UNL     1       4.518   6.029  17.247  0.00  0.00    +0.000 C 
ATOM     13  O   UNL     1       5.257   6.977  17.032  0.00  0.00    +0.000 OA
ENDBRANCH   4   7
BRANCH   1  14
ATOM     14  S   UNL     1       0.319  10.587  20.480  0.00  0.00    +0.000 S 
ATOM     15  O   UNL     1       1.281  11.397  21.201  0.00  0.00    +0.000 OA
ATOM     16  O   UNL     1      -0.792   9.948  21.166  0.00  0.00    +0.000 OA
BRANCH  14  17
ATOM     17  O   UNL     1      -0.271  11.443  19.217  0.00  0.00    +0.000 OA
BRANCH  17  21
ATOM     18  C   UNL     1      -4.277  11.058  18.073  0.00  0.00    +0.000 A 
ATOM     19  C   UNL     1      -3.278  10.240  17.541  0.00  0.00    +0.000 A 
ATOM     20  C   UNL     1      -1.950  10.381  17.950  0.00  0.00    +0.000 A 
ATOM     21  C   UNL     1      -1.598  11.370  18.868  0.00  0.00    +0.000 A 
ATOM     22  C   UNL     1      -2.595  12.188  19.402  0.00  0.00    +0.000 A 
ATOM     23  C   UNL     1      -3.928  12.040  19.001  0.00  0.00    +0.000 A 
BRANCH  18  25
ATOM     24  C   UNL     1      -6.480  11.881  17.826  0.00  0.00    +0.000 C 
ATOM     25  O   UNL     1      -5.538  10.837  17.597  0.00  0.00    +0.000 OA
ENDBRANCH  18  25
ENDBRANCH  17  21
ENDBRANCH  14  17
ENDBRANCH   1  14
TORSDOF 5
ENDMDL
