MODEL 1
REMARK VINA RESULT:      -6.8      0.000      0.000
REMARK  Name = 
REMARK  2 active torsions:
REMARK  status: ('A' for Active; 'I' for Inactive)
REMARK    1  A    between atoms: C_1  and  C_2
REMARK    2  A    between atoms: C_2  and  C_3
REMARK                            x       y       z     vdW  Elec       q    Type
REMARK                         _______ _______ _______ _____ _____    ______ ____
ROOT
ATOM      1  C   UNL     1       6.545   5.134  18.420  0.00  0.00    +0.000 A 
ATOM      2  N   UNL     1       6.306   5.063  17.112  0.00  0.00    +0.000 NA
ATOM      3  S   UNL     1       4.963   4.101  16.936  0.00  0.00    +0.000 S 
ATOM      4  C   UNL     1       4.782   3.817  18.649  0.00  0.00    +0.000 A 
ATOM      5  N   UNL     1       3.801   3.048  19.211  0.00  0.00    +0.000 N 
ATOM      6  C   UNL     1       3.202   1.940  18.477  0.00  0.00    +0.000 C 
ATOM      7  C   UNL     1       1.834   2.356  17.941  0.00  0.00    +0.000 C 
ATOM      8  C   UNL     1       0.744   2.428  19.010  0.00  0.00    +0.000 C 
ATOM      9  C   UNL     1       1.072   3.294  20.231  0.00  0.00    +0.000 C 
ATOM     10  C   UNL     1       2.194   2.716  21.098  0.00  0.00    +0.000 C 
ATOM     11  C   UNL     1       3.608   3.116  20.656  0.00  0.00    +0.000 C 
ATOM     12  N   UNL     1       5.707   4.479  19.316  0.00  0.00    +0.000 NA
ENDROOT
BRANCH   1  14
ATOM     13  C   UNL     1       7.924   7.195  18.174  0.00  0.00    +0.000 C 
ATOM     14  C   UNL     1       7.733   5.882  18.918  0.00  0.00    +0.000 C 
ENDBRANCH   1  14
TORSDOF 1
ENDMDL
MODEL 2
REMARK VINA RESULT:      -6.6      2.014      2.854
REMARK  Name = 
REMARK  2 active torsions:
REMARK  status: ('A' for Active; 'I' for Inactive)
REMARK    1  A    between atoms: C_1  and  C_2
REMARK    2  A    between atoms: C_2  and  C_3
REMARK                            x       y       z     vdW  Elec       q    Type
REMARK                         _______ _______ _______ _____ _____    ______ ____
ROOT
ATOM      1  C   UNL     1       6.179   4.612  16.841  0.00  0.00    +0.000 A 
ATOM      2  N   UNL     1       6.783   5.160  17.894  0.00  0.00    +0.000 NA
ATOM      3  S   UNL     1       5.630   5.271  19.085  0.00  0.00    +0.000 S 
ATOM      4  C   UNL     1       4.362   4.582  18.103  0.00  0.00    +0.000 A 
ATOM      5  N   UNL     1       3.075   4.387  18.519  0.00  0.00    +0.000 N 
ATOM      6  C   UNL     1       2.478   5.239  19.541  0.00  0.00    +0.000 C 
ATOM      7  C   UNL     1       2.462   4.505  20.879  0.00  0.00    +0.000 C 
ATOM      8  C   UNL     1       1.405   3.405  20.972  0.00  0.00    +0.000 C 
ATOM      9  C   UNL     1       1.433   2.365  19.847  0.00  0.00    +0.000 C 
ATOM     10  C   UNL     1       1.036   2.938  18.483  0.00  0.00    +0.000 C 
ATOM     11  C   UNL     1       2.196   3.562  17.696  0.00  0.00    +0.000 C 
ATOM     12  N   UNL     1       4.839   4.249  16.920  0.00  0.00    +0.000 NA
ENDROOT
BRANCH   1  14
ATOM     13  C   UNL     1       6.009   4.034  14.423  0.00  0.00    +0.000 C 
ATOM     14  C   UNL     1       6.930   4.428  15.568  0.00  0.00    +0.000 C 
ENDBRANCH   1  14
TORSDOF 1
ENDMDL
MODEL 3
REMARK VINA RESULT:      -6.5      1.825      5.385
REMARK  Name = 
REMARK  2 active torsions:
REMARK  status: ('A' for Active; 'I' for Inactive)
REMARK    1  A    between atoms: C_1  and  C_2
REMARK    2  A    between atoms: C_2  and  C_3
REMARK                            x       y       z     vdW  Elec       q    Type
REMARK                         _______ _______ _______ _____ _____    ______ ____
ROOT
ATOM      1  C   UNL     1       1.837   3.620  19.387  0.00  0.00    +0.000 A 
ATOM      2  N   UNL     1       1.426   3.068  18.247  0.00  0.00    +0.000 NA
ATOM      3  S   UNL     1       2.553   3.480  17.098  0.00  0.00    +0.000 S 
ATOM      4  C   UNL     1       3.537   4.402  18.207  0.00  0.00    +0.000 A 
ATOM      5  N   UNL     1       4.691   5.052  17.868  0.00  0.00    +0.000 N 
ATOM      6  C   UNL     1       4.903   5.549  16.514  0.00  0.00    +0.000 C 
ATOM      7  C   UNL     1       5.837   4.606  15.759  0.00  0.00    +0.000 C 
ATOM      8  C   UNL     1       7.302   4.711  16.184  0.00  0.00    +0.000 C 
ATOM      9  C   UNL     1       7.567   4.559  17.685  0.00  0.00    +0.000 C 
ATOM     10  C   UNL     1       7.012   5.719  18.517  0.00  0.00    +0.000 C 
ATOM     11  C   UNL     1       5.546   5.553  18.940  0.00  0.00    +0.000 C 
ATOM     12  N   UNL     1       3.020   4.350  19.419  0.00  0.00    +0.000 NA
ENDROOT
BRANCH   1  14
ATOM     13  C   UNL     1       1.690   2.633  21.671  0.00  0.00    +0.000 C 
ATOM     14  C   UNL     1       1.006   3.490  20.617  0.00  0.00    +0.000 C 
ENDBRANCH   1  14
TORSDOF 1
ENDMDL
MODEL 4
REMARK VINA RESULT:      -6.4      2.443      3.102
REMARK  Name = 
REMARK  2 active torsions:
REMARK  status: ('A' for Active; 'I' for Inactive)
REMARK    1  A    between atoms: C_1  and  C_2
REMARK    2  A    between atoms: C_2  and  C_3
REMARK                            x       y       z     vdW  Elec       q    Type
REMARK                         _______ _______ _______ _____ _____    ______ ____
ROOT
ATOM      1  C   UNL     1       5.876   5.034  15.699  0.00  0.00    +0.000 A 
ATOM      2  N   UNL     1       5.820   6.318  16.049  0.00  0.00    +0.000 NA
ATOM      3  S   UNL     1       4.598   6.441  17.168  0.00  0.00    +0.000 S 
ATOM      4  C   UNL     1       4.197   4.743  17.110  0.00  0.00    +0.000 A 
ATOM      5  N   UNL     1       3.206   4.152  17.844  0.00  0.00    +0.000 N 
ATOM      6  C   UNL     1       2.032   4.906  18.266  0.00  0.00    +0.000 C 
ATOM      7  C   UNL     1       2.167   5.289  19.737  0.00  0.00    +0.000 C 
ATOM      8  C   UNL     1       1.947   4.125  20.704  0.00  0.00    +0.000 C 
ATOM      9  C   UNL     1       2.802   2.880  20.445  0.00  0.00    +0.000 C 
ATOM     10  C   UNL     1       2.439   2.158  19.144  0.00  0.00    +0.000 C 
ATOM     11  C   UNL     1       3.159   2.694  17.899  0.00  0.00    +0.000 C 
ATOM     12  N   UNL     1       5.010   4.116  16.284  0.00  0.00    +0.000 NA
ENDROOT
BRANCH   1  14
ATOM     13  C   UNL     1       6.145   3.829  13.534  0.00  0.00    +0.000 C 
ATOM     14  C   UNL     1       6.839   4.591  14.652  0.00  0.00    +0.000 C 
ENDBRANCH   1  14
TORSDOF 1
ENDMDL
MODEL 5
REMARK VINA RESULT:      -6.3      1.360      1.450
REMARK  Name = 
REMARK  2 active torsions:
REMARK  status: ('A' for Active; 'I' for Inactive)
REMARK    1  A    between atoms: C_1  and  C_2
REMARK    2  A    between atoms: C_2  and  C_3
REMARK                            x       y       z     vdW  Elec       q    Type
REMARK                         _______ _______ _______ _____ _____    ______ ____
ROOT
ATOM      1  C   UNL     1       6.715   6.480  17.909  0.00  0.00    +0.000 A 
ATOM      2  N   UNL     1       6.104   6.985  16.838  0.00  0.00    +0.000 NA
ATOM      3  S   UNL     1       4.731   6.076  16.616  0.00  0.00    +0.000 S 
ATOM      4  C   UNL     1       5.043   5.032  17.979  0.00  0.00    +0.000 A 
ATOM      5  N   UNL     1       4.238   3.998  18.368  0.00  0.00    +0.000 N 
ATOM      6  C   UNL     1       3.408   3.288  17.402  0.00  0.00    +0.000 C 
ATOM      7  C   UNL     1       1.962   3.761  17.519  0.00  0.00    +0.000 C 
ATOM      8  C   UNL     1       1.232   3.233  18.754  0.00  0.00    +0.000 C 
ATOM      9  C   UNL     1       1.934   3.481  20.092  0.00  0.00    +0.000 C 
ATOM     10  C   UNL     1       3.236   2.689  20.249  0.00  0.00    +0.000 C 
ATOM     11  C   UNL     1       4.476   3.386  19.671  0.00  0.00    +0.000 C 
ATOM     12  N   UNL     1       6.147   5.410  18.592  0.00  0.00    +0.000 NA
ENDROOT
BRANCH   1  14
ATOM     13  C   UNL     1       8.177   8.498  17.951  0.00  0.00    +0.000 C 
ATOM     14  C   UNL     1       8.025   7.037  18.347  0.00  0.00    +0.000 C 
ENDBRANCH   1  14
TORSDOF 1
ENDMDL
MODEL 6
REMARK VINA RESULT:      -6.3      1.070      1.178
REMARK  Name = 
REMARK  2 active torsions:
REMARK  status: ('A' for Active; 'I' for Inactive)
REMARK    1  A    between atoms: C_1  and  C_2
REMARK    2  A    between atoms: C_2  and  C_3
REMARK                            x       y       z     vdW  Elec       q    Type
REMARK                         _______ _______ _______ _____ _____    ______ ____
ROOT
ATOM      1  C   UNL     1       5.938   6.115  17.246  0.00  0.00    +0.000 A 
ATOM      2  N   UNL     1       5.869   5.430  16.105  0.00  0.00    +0.000 NA
ATOM      3  S   UNL     1       4.835   4.161  16.386  0.00  0.00    +0.000 S 
ATOM      4  C   UNL     1       4.543   4.597  18.051  0.00  0.00    +0.000 A 
ATOM      5  N   UNL     1       3.729   3.907  18.905  0.00  0.00    +0.000 N 
ATOM      6  C   UNL     1       3.508   2.476  18.741  0.00  0.00    +0.000 C 
ATOM      7  C   UNL     1       2.147   2.235  18.092  0.00  0.00    +0.000 C 
ATOM      8  C   UNL     1       0.963   2.457  19.032  0.00  0.00    +0.000 C 
ATOM      9  C   UNL     1       0.929   3.814  19.743  0.00  0.00    +0.000 C 
ATOM     10  C   UNL     1       2.058   3.989  20.764  0.00  0.00    +0.000 C 
ATOM     11  C   UNL     1       3.368   4.530  20.175  0.00  0.00    +0.000 C 
ATOM     12  N   UNL     1       5.196   5.703  18.348  0.00  0.00    +0.000 NA
ENDROOT
BRANCH   1  14
ATOM     13  C   UNL     1       7.967   7.056  18.345  0.00  0.00    +0.000 C 
ATOM     14  C   UNL     1       6.841   7.295  17.351  0.00  0.00    +0.000 C 
ENDBRANCH   1  14
TORSDOF 1
ENDMDL
MODEL 7
REMARK VINA RESULT:      -6.2      2.047      5.506
REMARK  Name = 
REMARK  2 active torsions:
REMARK  status: ('A' for Active; 'I' for Inactive)
REMARK    1  A    between atoms: C_1  and  C_2
REMARK    2  A    between atoms: C_2  and  C_3
REMARK                            x       y       z     vdW  Elec       q    Type
REMARK                         _______ _______ _______ _____ _____    ______ ____
ROOT
ATOM      1  C   UNL     1       2.120   3.383  19.440  0.00  0.00    +0.000 A 
ATOM      2  N   UNL     1       2.360   2.152  18.991  0.00  0.00    +0.000 NA
ATOM      3  S   UNL     1       3.486   2.310  17.781  0.00  0.00    +0.000 S 
ATOM      4  C   UNL     1       3.581   4.048  17.918  0.00  0.00    +0.000 A 
ATOM      5  N   UNL     1       4.380   4.847  17.148  0.00  0.00    +0.000 N 
ATOM      6  C   UNL     1       4.757   4.453  15.796  0.00  0.00    +0.000 C 
ATOM      7  C   UNL     1       6.188   3.922  15.794  0.00  0.00    +0.000 C 
ATOM      8  C   UNL     1       7.254   5.009  15.932  0.00  0.00    +0.000 C 
ATOM      9  C   UNL     1       7.087   5.951  17.128  0.00  0.00    +0.000 C 
ATOM     10  C   UNL     1       5.859   6.859  17.015  0.00  0.00    +0.000 C 
ATOM     11  C   UNL     1       4.560   6.239  17.548  0.00  0.00    +0.000 C 
ATOM     12  N   UNL     1       2.797   4.466  18.891  0.00  0.00    +0.000 NA
ENDROOT
BRANCH   1  14
ATOM     13  C   UNL     1       1.349   2.715  21.714  0.00  0.00    +0.000 C 
ATOM     14  C   UNL     1       1.098   3.599  20.502  0.00  0.00    +0.000 C 
ENDBRANCH   1  14
TORSDOF 1
ENDMDL
MODEL 8
REMARK VINA RESULT:      -6.2      1.393      1.679
REMARK  Name = 
REMARK  2 active torsions:
REMARK  status: ('A' for Active; 'I' for Inactive)
REMARK    1  A    between atoms: C_1  and  C_2
REMARK    2  A    between atoms: C_2  and  C_3
REMARK                            x       y       z     vdW  Elec       q    Type
REMARK                         _______ _______ _______ _____ _____    ______ ____
ROOT
ATOM      1  C   UNL     1       6.036   6.153  17.773  0.00  0.00    +0.000 A 
ATOM      2  N   UNL     1       5.107   6.977  17.290  0.00  0.00    +0.000 NA
ATOM      3  S   UNL     1       3.640   6.287  17.655  0.00  0.00    +0.000 S 
ATOM      4  C   UNL     1       4.343   4.895  18.440  0.00  0.00    +0.000 A 
ATOM      5  N   UNL     1       3.627   3.872  18.996  0.00  0.00    +0.000 N 
ATOM      6  C   UNL     1       2.304   3.521  18.494  0.00  0.00    +0.000 C 
ATOM      7  C   UNL     1       1.234   4.074  19.431  0.00  0.00    +0.000 C 
ATOM      8  C   UNL     1       1.099   3.305  20.745  0.00  0.00    +0.000 C 
ATOM      9  C   UNL     1       2.396   3.125  21.540  0.00  0.00    +0.000 C 
ATOM     10  C   UNL     1       3.408   2.206  20.848  0.00  0.00    +0.000 C 
ATOM     11  C   UNL     1       4.329   2.916  19.848  0.00  0.00    +0.000 C 
ATOM     12  N   UNL     1       5.657   4.996  18.444  0.00  0.00    +0.000 NA
ENDROOT
BRANCH   1  14
ATOM     13  C   UNL     1       7.761   7.946  17.638  0.00  0.00    +0.000 C 
ATOM     14  C   UNL     1       7.479   6.454  17.557  0.00  0.00    +0.000 C 
ENDBRANCH   1  14
TORSDOF 1
ENDMDL
MODEL 9
REMARK VINA RESULT:      -6.2      2.727      3.486
REMARK  Name = 
REMARK  2 active torsions:
REMARK  status: ('A' for Active; 'I' for Inactive)
REMARK    1  A    between atoms: C_1  and  C_2
REMARK    2  A    between atoms: C_2  and  C_3
REMARK                            x       y       z     vdW  Elec       q    Type
REMARK                         _______ _______ _______ _____ _____    ______ ____
ROOT
ATOM      1  C   UNL     1       6.401   5.026  15.506  0.00  0.00    +0.000 A 
ATOM      2  N   UNL     1       6.971   5.987  16.231  0.00  0.00    +0.000 NA
ATOM      3  S   UNL     1       5.895   6.355  17.443  0.00  0.00    +0.000 S 
ATOM      4  C   UNL     1       4.701   5.199  16.912  0.00  0.00    +0.000 A 
ATOM      5  N   UNL     1       3.494   4.992  17.520  0.00  0.00    +0.000 N 
ATOM      6  C   UNL     1       2.830   6.061  18.256  0.00  0.00    +0.000 C 
ATOM      7  C   UNL     1       3.025   5.852  19.755  0.00  0.00    +0.000 C 
ATOM      8  C   UNL     1       2.176   4.724  20.341  0.00  0.00    +0.000 C 
ATOM      9  C   UNL     1       2.306   3.368  19.641  0.00  0.00    +0.000 C 
ATOM     10  C   UNL     1       1.731   3.363  18.222  0.00  0.00    +0.000 C 
ATOM     11  C   UNL     1       2.716   3.818  17.136  0.00  0.00    +0.000 C 
ATOM     12  N   UNL     1       5.149   4.537  15.863  0.00  0.00    +0.000 NA
ENDROOT
BRANCH   1  14
ATOM     13  C   UNL     1       6.130   3.752  13.382  0.00  0.00    +0.000 C 
ATOM     14  C   UNL     1       7.088   4.506  14.291  0.00  0.00    +0.000 C 
ENDBRANCH   1  14
TORSDOF 1
ENDMDL
