MODEL 1
REMARK VINA RESULT:      -8.6      0.000      0.000
REMARK  Name = 
REMARK  6 active torsions:
REMARK  status: ('A' for Active; 'I' for Inactive)
REMARK    1  A    between atoms: C_1  and  C_2
REMARK    2  A    between atoms: C_2  and  C_3
REMARK    3  A    between atoms: C_5  and  C_6
REMARK    4  A    between atoms: C_7  and  C_8
REMARK    5  A    between atoms: C_8  and  O_9
REMARK    6  A    between atoms: O_9  and  C_10
REMARK                            x       y       z     vdW  Elec       q    Type
REMARK                         _______ _______ _______ _____ _____    ______ ____
ROOT
ATOM      1  O   UNL     1       7.061   5.895  18.497  0.00  0.00    +0.000 OA
ENDROOT
BRANCH   1   2
ATOM      2  C   UNL     1       5.905   5.181  18.328  0.00  0.00    +0.000 A 
ATOM      3  C   UNL     1       5.667   4.707  17.031  0.00  0.00    +0.000 A 
ATOM      4  C   UNL     1       4.506   3.979  16.737  0.00  0.00    +0.000 A 
ATOM      5  C   UNL     1       3.580   3.711  17.744  0.00  0.00    +0.000 A 
ATOM      6  C   UNL     1       2.352   2.974  17.502  0.00  0.00    +0.000 A 
ATOM      7  C   UNL     1       1.527   2.717  18.522  0.00  0.00    +0.000 A 
ATOM      8  C   UNL     1       1.814   3.149  19.901  0.00  0.00    +0.000 A 
ATOM      9  O   UNL     1       1.069   2.842  20.824  0.00  0.00    +0.000 OA
ATOM     10  O   UNL     1       2.950   3.920  20.093  0.00  0.00    +0.000 OA
ATOM     11  C   UNL     1       3.836   4.180  19.029  0.00  0.00    +0.000 A 
ATOM     12  C   UNL     1       4.975   4.919  19.331  0.00  0.00    +0.000 A 
ENDBRANCH   1   2
BRANCH   1  13
ATOM     13  C   UNL     1       7.347   6.874  17.495  0.00  0.00    +0.000 C 
BRANCH  13  15
ATOM     14  C   UNL     1       8.079   9.269  17.774  0.00  0.00    +0.000 C 
ATOM     15  C   UNL     1       8.119   7.980  18.142  0.00  0.00    +0.000 C 
BRANCH  14  20
ATOM     16  C   UNL     1      10.907  12.868  17.781  0.00  0.00    +0.000 C 
ATOM     17  C   UNL     1       9.677  12.424  18.561  0.00  0.00    +0.000 C 
ATOM     18  C   UNL     1       8.835  13.602  19.030  0.00  0.00    +0.000 C 
ATOM     19  O   UNL     1       8.874  11.550  17.744  0.00  0.00    +0.000 OA
ATOM     20  C   UNL     1       8.840  10.321  18.406  0.00  0.00    +0.000 C 
ATOM     21  C   UNL     1       9.501  10.213  19.553  0.00  0.00    +0.000 C 
ATOM     22  C   UNL     1      10.065  11.542  19.720  0.00  0.00    +0.000 C 
ATOM     23  O   UNL     1      10.749  11.858  20.679  0.00  0.00    +0.000 OA
ENDBRANCH  14  20
ENDBRANCH  13  15
ENDBRANCH   1  13
TORSDOF 4
ENDMDL
MODEL 2
REMARK VINA RESULT:      -8.5      1.144      1.156
REMARK  Name = 
REMARK  6 active torsions:
REMARK  status: ('A' for Active; 'I' for Inactive)
REMARK    1  A    between atoms: C_1  and  C_2
REMARK    2  A    between atoms: C_2  and  C_3
REMARK    3  A    between atoms: C_5  and  C_6
REMARK    4  A    between atoms: C_7  and  C_8
REMARK    5  A    between atoms: C_8  and  O_9
REMARK    6  A    between atoms: O_9  and  C_10
REMARK                            x       y       z     vdW  Elec       q    Type
REMARK                         _______ _______ _______ _____ _____    ______ ____
ROOT
ATOM      1  O   UNL     1       5.806   7.398  17.051  0.00  0.00    +0.000 OA
ENDROOT
BRANCH   1   2
ATOM      2  C   UNL     1       4.999   6.306  17.221  0.00  0.00    +0.000 A 
ATOM      3  C   UNL     1       5.285   5.204  16.404  0.00  0.00    +0.000 A 
ATOM      4  C   UNL     1       4.513   4.037  16.479  0.00  0.00    +0.000 A 
ATOM      5  C   UNL     1       3.454   3.962  17.383  0.00  0.00    +0.000 A 
ATOM      6  C   UNL     1       2.608   2.787  17.501  0.00  0.00    +0.000 A 
ATOM      7  C   UNL     1       1.635   2.767  18.418  0.00  0.00    +0.000 A 
ATOM      8  C   UNL     1       1.382   3.896  19.330  0.00  0.00    +0.000 A 
ATOM      9  O   UNL     1       0.524   3.820  20.202  0.00  0.00    +0.000 OA
ATOM     10  O   UNL     1       2.149   5.036  19.144  0.00  0.00    +0.000 OA
ATOM     11  C   UNL     1       3.189   5.061  18.195  0.00  0.00    +0.000 A 
ATOM     12  C   UNL     1       3.936   6.231  18.118  0.00  0.00    +0.000 A 
ENDBRANCH   1   2
BRANCH   1  13
ATOM     13  C   UNL     1       7.198   7.198  17.312  0.00  0.00    +0.000 C 
BRANCH  13  15
ATOM     14  C   UNL     1       8.639   8.788  18.633  0.00  0.00    +0.000 C 
ATOM     15  C   UNL     1       7.805   8.531  17.615  0.00  0.00    +0.000 C 
BRANCH  14  20
ATOM     16  C   UNL     1      11.630  12.194  18.003  0.00  0.00    +0.000 C 
ATOM     17  C   UNL     1      10.151  12.067  18.342  0.00  0.00    +0.000 C 
ATOM     18  C   UNL     1       9.333  13.232  17.803  0.00  0.00    +0.000 C 
ATOM     19  O   UNL     1       9.636  10.829  17.813  0.00  0.00    +0.000 OA
ATOM     20  C   UNL     1       9.207  10.085  18.914  0.00  0.00    +0.000 C 
ATOM     21  C   UNL     1       9.351  10.619  20.122  0.00  0.00    +0.000 C 
ATOM     22  C   UNL     1       9.952  11.909  19.828  0.00  0.00    +0.000 C 
ATOM     23  O   UNL     1      10.239  12.722  20.692  0.00  0.00    +0.000 OA
ENDBRANCH  14  20
ENDBRANCH  13  15
ENDBRANCH   1  13
TORSDOF 4
ENDMDL
MODEL 3
REMARK VINA RESULT:      -8.4      1.009      1.545
REMARK  Name = 
REMARK  6 active torsions:
REMARK  status: ('A' for Active; 'I' for Inactive)
REMARK    1  A    between atoms: C_1  and  C_2
REMARK    2  A    between atoms: C_2  and  C_3
REMARK    3  A    between atoms: C_5  and  C_6
REMARK    4  A    between atoms: C_7  and  C_8
REMARK    5  A    between atoms: C_8  and  O_9
REMARK    6  A    between atoms: O_9  and  C_10
REMARK                            x       y       z     vdW  Elec       q    Type
REMARK                         _______ _______ _______ _____ _____    ______ ____
ROOT
ATOM      1  O   UNL     1       7.102   6.266  18.654  0.00  0.00    +0.000 OA
ENDROOT
BRANCH   1   2
ATOM      2  C   UNL     1       5.906   5.636  18.434  0.00  0.00    +0.000 A 
ATOM      3  C   UNL     1       5.629   5.302  17.103  0.00  0.00    +0.000 A 
ATOM      4  C   UNL     1       4.426   4.671  16.758  0.00  0.00    +0.000 A 
ATOM      5  C   UNL     1       3.496   4.359  17.749  0.00  0.00    +0.000 A 
ATOM      6  C   UNL     1       2.226   3.718  17.457  0.00  0.00    +0.000 A 
ATOM      7  C   UNL     1       1.398   3.411  18.461  0.00  0.00    +0.000 A 
ATOM      8  C   UNL     1       1.722   3.693  19.870  0.00  0.00    +0.000 A 
ATOM      9  O   UNL     1       0.970   3.341  20.771  0.00  0.00    +0.000 OA
ATOM     10  O   UNL     1       2.902   4.379  20.117  0.00  0.00    +0.000 OA
ATOM     11  C   UNL     1       3.790   4.689  19.069  0.00  0.00    +0.000 A 
ATOM     12  C   UNL     1       4.972   5.332  19.422  0.00  0.00    +0.000 A 
ENDBRANCH   1   2
BRANCH   1  13
ATOM     13  C   UNL     1       7.582   7.090  17.588  0.00  0.00    +0.000 C 
BRANCH  13  15
ATOM     14  C   UNL     1       8.237   9.521  17.683  0.00  0.00    +0.000 C 
ATOM     15  C   UNL     1       8.252   8.282  18.195  0.00  0.00    +0.000 C 
BRANCH  14  20
ATOM     16  C   UNL     1       9.852  11.961  21.203  0.00  0.00    +0.000 C 
ATOM     17  C   UNL     1      10.280  11.663  19.773  0.00  0.00    +0.000 C 
ATOM     18  C   UNL     1      11.794  11.653  19.614  0.00  0.00    +0.000 C 
ATOM     19  O   UNL     1       9.742  10.391  19.361  0.00  0.00    +0.000 OA
ATOM     20  C   UNL     1       8.898  10.658  18.281  0.00  0.00    +0.000 C 
ATOM     21  C   UNL     1       8.768  11.920  17.888  0.00  0.00    +0.000 C 
ATOM     22  C   UNL     1       9.642  12.628  18.808  0.00  0.00    +0.000 C 
ATOM     23  O   UNL     1       9.808  13.837  18.770  0.00  0.00    +0.000 OA
ENDBRANCH  14  20
ENDBRANCH  13  15
ENDBRANCH   1  13
TORSDOF 4
ENDMDL
MODEL 4
REMARK VINA RESULT:      -8.4      1.576      2.273
REMARK  Name = 
REMARK  6 active torsions:
REMARK  status: ('A' for Active; 'I' for Inactive)
REMARK    1  A    between atoms: C_1  and  C_2
REMARK    2  A    between atoms: C_2  and  C_3
REMARK    3  A    between atoms: C_5  and  C_6
REMARK    4  A    between atoms: C_7  and  C_8
REMARK    5  A    between atoms: C_8  and  O_9
REMARK    6  A    between atoms: O_9  and  C_10
REMARK                            x       y       z     vdW  Elec       q    Type
REMARK                         _______ _______ _______ _____ _____    ______ ____
ROOT
ATOM      1  O   UNL     1       7.603   7.319  17.017  0.00  0.00    +0.000 OA
ENDROOT
BRANCH   1   2
ATOM      2  C   UNL     1       6.671   6.324  17.144  0.00  0.00    +0.000 A 
ATOM      3  C   UNL     1       5.873   6.090  16.017  0.00  0.00    +0.000 A 
ATOM      4  C   UNL     1       4.874   5.108  16.038  0.00  0.00    +0.000 A 
ATOM      5  C   UNL     1       4.676   4.343  17.186  0.00  0.00    +0.000 A 
ATOM      6  C   UNL     1       3.649   3.319  17.278  0.00  0.00    +0.000 A 
ATOM      7  C   UNL     1       3.541   2.595  18.396  0.00  0.00    +0.000 A 
ATOM      8  C   UNL     1       4.430   2.788  19.555  0.00  0.00    +0.000 A 
ATOM      9  O   UNL     1       4.345   2.064  20.540  0.00  0.00    +0.000 OA
ATOM     10  O   UNL     1       5.347   3.824  19.475  0.00  0.00    +0.000 OA
ATOM     11  C   UNL     1       5.483   4.580  18.295  0.00  0.00    +0.000 A 
ATOM     12  C   UNL     1       6.467   5.564  18.293  0.00  0.00    +0.000 A 
ENDBRANCH   1   2
BRANCH   1  13
ATOM     13  C   UNL     1       8.085   7.887  18.238  0.00  0.00    +0.000 C 
BRANCH  13  15
ATOM     14  C   UNL     1       9.328  10.052  18.578  0.00  0.00    +0.000 C 
ATOM     15  C   UNL     1       8.355   9.338  17.994  0.00  0.00    +0.000 C 
BRANCH  14  20
ATOM     16  C   UNL     1      11.610  13.987  19.087  0.00  0.00    +0.000 C 
ATOM     17  C   UNL     1      10.879  13.268  17.962  0.00  0.00    +0.000 C 
ATOM     18  C   UNL     1      11.483  13.568  16.597  0.00  0.00    +0.000 C 
ATOM     19  O   UNL     1      10.900  11.847  18.199  0.00  0.00    +0.000 OA
ATOM     20  C   UNL     1       9.567  11.456  18.335  0.00  0.00    +0.000 C 
ATOM     21  C   UNL     1       8.629  12.391  18.232  0.00  0.00    +0.000 C 
ATOM     22  C   UNL     1       9.407  13.593  17.984  0.00  0.00    +0.000 C 
ATOM     23  O   UNL     1       8.901  14.691  17.819  0.00  0.00    +0.000 OA
ENDBRANCH  14  20
ENDBRANCH  13  15
ENDBRANCH   1  13
TORSDOF 4
ENDMDL
MODEL 5
REMARK VINA RESULT:      -8.4      1.767      2.255
REMARK  Name = 
REMARK  6 active torsions:
REMARK  status: ('A' for Active; 'I' for Inactive)
REMARK    1  A    between atoms: C_1  and  C_2
REMARK    2  A    between atoms: C_2  and  C_3
REMARK    3  A    between atoms: C_5  and  C_6
REMARK    4  A    between atoms: C_7  and  C_8
REMARK    5  A    between atoms: C_8  and  O_9
REMARK    6  A    between atoms: O_9  and  C_10
REMARK                            x       y       z     vdW  Elec       q    Type
REMARK                         _______ _______ _______ _____ _____    ______ ____
ROOT
ATOM      1  O   UNL     1       6.390   7.427  17.015  0.00  0.00    +0.000 OA
ENDROOT
BRANCH   1   2
ATOM      2  C   UNL     1       5.315   6.636  17.321  0.00  0.00    +0.000 A 
ATOM      3  C   UNL     1       4.085   7.296  17.431  0.00  0.00    +0.000 A 
ATOM      4  C   UNL     1       2.920   6.589  17.758  0.00  0.00    +0.000 A 
ATOM      5  C   UNL     1       2.977   5.212  17.966  0.00  0.00    +0.000 A 
ATOM      6  C   UNL     1       1.810   4.424  18.321  0.00  0.00    +0.000 A 
ATOM      7  C   UNL     1       1.929   3.101  18.466  0.00  0.00    +0.000 A 
ATOM      8  C   UNL     1       3.208   2.395  18.276  0.00  0.00    +0.000 A 
ATOM      9  O   UNL     1       3.270   1.174  18.354  0.00  0.00    +0.000 OA
ATOM     10  O   UNL     1       4.324   3.176  18.018  0.00  0.00    +0.000 OA
ATOM     11  C   UNL     1       4.206   4.569  17.844  0.00  0.00    +0.000 A 
ATOM     12  C   UNL     1       5.373   5.261  17.537  0.00  0.00    +0.000 A 
ENDBRANCH   1   2
BRANCH   1  13
ATOM     13  C   UNL     1       7.637   7.045  17.601  0.00  0.00    +0.000 C 
BRANCH  13  15
ATOM     14  C   UNL     1       8.284   9.479  17.692  0.00  0.00    +0.000 C 
ATOM     15  C   UNL     1       8.232   8.258  18.244  0.00  0.00    +0.000 C 
BRANCH  14  20
ATOM     16  C   UNL     1       9.484  12.031  21.298  0.00  0.00    +0.000 C 
ATOM     17  C   UNL     1      10.073  11.692  19.935  0.00  0.00    +0.000 C 
ATOM     18  C   UNL     1      11.595  11.684  19.951  0.00  0.00    +0.000 C 
ATOM     19  O   UNL     1       9.587  10.405  19.503  0.00  0.00    +0.000 OA
ATOM     20  C   UNL     1       8.871  10.636  18.326  0.00  0.00    +0.000 C 
ATOM     21  C   UNL     1       8.786  11.885  17.884  0.00  0.00    +0.000 C 
ATOM     22  C   UNL     1       9.548  12.625  18.875  0.00  0.00    +0.000 C 
ATOM     23  O   UNL     1       9.716  13.833  18.819  0.00  0.00    +0.000 OA
ENDBRANCH  14  20
ENDBRANCH  13  15
ENDBRANCH   1  13
TORSDOF 4
ENDMDL
MODEL 6
REMARK VINA RESULT:      -8.3      1.598      1.774
REMARK  Name = 
REMARK  6 active torsions:
REMARK  status: ('A' for Active; 'I' for Inactive)
REMARK    1  A    between atoms: C_1  and  C_2
REMARK    2  A    between atoms: C_2  and  C_3
REMARK    3  A    between atoms: C_5  and  C_6
REMARK    4  A    between atoms: C_7  and  C_8
REMARK    5  A    between atoms: C_8  and  O_9
REMARK    6  A    between atoms: O_9  and  C_10
REMARK                            x       y       z     vdW  Elec       q    Type
REMARK                         _______ _______ _______ _____ _____    ______ ____
ROOT
ATOM      1  O   UNL     1       6.067   7.575  17.258  0.00  0.00    +0.000 OA
ENDROOT
BRANCH   1   2
ATOM      2  C   UNL     1       5.036   6.710  17.512  0.00  0.00    +0.000 A 
ATOM      3  C   UNL     1       3.763   7.288  17.591  0.00  0.00    +0.000 A 
ATOM      4  C   UNL     1       2.635   6.502  17.864  0.00  0.00    +0.000 A 
ATOM      5  C   UNL     1       2.775   5.128  18.049  0.00  0.00    +0.000 A 
ATOM      6  C   UNL     1       1.649   4.259  18.349  0.00  0.00    +0.000 A 
ATOM      7  C   UNL     1       1.849   2.944  18.474  0.00  0.00    +0.000 A 
ATOM      8  C   UNL     1       3.177   2.325  18.316  0.00  0.00    +0.000 A 
ATOM      9  O   UNL     1       3.314   1.109  18.374  0.00  0.00    +0.000 OA
ATOM     10  O   UNL     1       4.247   3.181  18.112  0.00  0.00    +0.000 OA
ATOM     11  C   UNL     1       4.045   4.567  17.959  0.00  0.00    +0.000 A 
ATOM     12  C   UNL     1       5.175   5.338  17.705  0.00  0.00    +0.000 A 
ENDBRANCH   1   2
BRANCH   1  13
ATOM     13  C   UNL     1       7.383   7.015  17.309  0.00  0.00    +0.000 C 
BRANCH  13  15
ATOM     14  C   UNL     1       8.126   9.348  17.904  0.00  0.00    +0.000 C 
ATOM     15  C   UNL     1       8.282   8.018  17.960  0.00  0.00    +0.000 C 
BRANCH  14  20
ATOM     16  C   UNL     1      11.955  11.840  18.189  0.00  0.00    +0.000 C 
ATOM     17  C   UNL     1      10.483  12.027  18.532  0.00  0.00    +0.000 C 
ATOM     18  C   UNL     1      10.038  13.475  18.390  0.00  0.00    +0.000 C 
ATOM     19  O   UNL     1       9.676  11.187  17.683  0.00  0.00    +0.000 OA
ATOM     20  C   UNL     1       9.012  10.300  18.532  0.00  0.00    +0.000 C 
ATOM     21  C   UNL     1       9.241  10.397  19.837  0.00  0.00    +0.000 C 
ATOM     22  C   UNL     1      10.182  11.501  19.912  0.00  0.00    +0.000 C 
ATOM     23  O   UNL     1      10.639  11.915  20.965  0.00  0.00    +0.000 OA
ENDBRANCH  14  20
ENDBRANCH  13  15
ENDBRANCH   1  13
TORSDOF 4
ENDMDL
MODEL 7
REMARK VINA RESULT:      -8.1      1.477      1.745
REMARK  Name = 
REMARK  6 active torsions:
REMARK  status: ('A' for Active; 'I' for Inactive)
REMARK    1  A    between atoms: C_1  and  C_2
REMARK    2  A    between atoms: C_2  and  C_3
REMARK    3  A    between atoms: C_5  and  C_6
REMARK    4  A    between atoms: C_7  and  C_8
REMARK    5  A    between atoms: C_8  and  O_9
REMARK    6  A    between atoms: O_9  and  C_10
REMARK                            x       y       z     vdW  Elec       q    Type
REMARK                         _______ _______ _______ _____ _____    ______ ____
ROOT
ATOM      1  O   UNL     1       6.044   6.478  17.188  0.00  0.00    +0.000 OA
ENDROOT
BRANCH   1   2
ATOM      2  C   UNL     1       4.958   6.109  17.937  0.00  0.00    +0.000 A 
ATOM      3  C   UNL     1       3.803   6.879  17.755  0.00  0.00    +0.000 A 
ATOM      4  C   UNL     1       2.637   6.604  18.482  0.00  0.00    +0.000 A 
ATOM      5  C   UNL     1       2.617   5.546  19.389  0.00  0.00    +0.000 A 
ATOM      6  C   UNL     1       1.446   5.217  20.182  0.00  0.00    +0.000 A 
ATOM      7  C   UNL     1       1.484   4.163  21.004  0.00  0.00    +0.000 A 
ATOM      8  C   UNL     1       2.674   3.306  21.140  0.00  0.00    +0.000 A 
ATOM      9  O   UNL     1       2.654   2.310  21.853  0.00  0.00    +0.000 OA
ATOM     10  O   UNL     1       3.805   3.687  20.435  0.00  0.00    +0.000 OA
ATOM     11  C   UNL     1       3.770   4.784  19.551  0.00  0.00    +0.000 A 
ATOM     12  C   UNL     1       4.940   5.057  18.850  0.00  0.00    +0.000 A 
ENDBRANCH   1   2
BRANCH   1  13
ATOM     13  C   UNL     1       7.320   6.070  17.689  0.00  0.00    +0.000 C 
BRANCH  13  15
ATOM     14  C   UNL     1       7.949   8.510  17.744  0.00  0.00    +0.000 C 
ATOM     15  C   UNL     1       7.994   7.275  18.265  0.00  0.00    +0.000 C 
BRANCH  14  20
ATOM     16  C   UNL     1      10.877  12.027  17.660  0.00  0.00    +0.000 C 
ATOM     17  C   UNL     1       9.497  11.748  18.240  0.00  0.00    +0.000 C 
ATOM     18  C   UNL     1       8.632  12.999  18.298  0.00  0.00    +0.000 C 
ATOM     19  O   UNL     1       8.835  10.738  17.453  0.00  0.00    +0.000 OA
ATOM     20  C   UNL     1       8.614   9.659  18.311  0.00  0.00    +0.000 C 
ATOM     21  C   UNL     1       9.027   9.769  19.569  0.00  0.00    +0.000 C 
ATOM     22  C   UNL     1       9.605  11.102  19.597  0.00  0.00    +0.000 C 
ATOM     23  O   UNL     1      10.097  11.592  20.600  0.00  0.00    +0.000 OA
ENDBRANCH  14  20
ENDBRANCH  13  15
ENDBRANCH   1  13
TORSDOF 4
ENDMDL
MODEL 8
REMARK VINA RESULT:      -8.1      1.617      2.150
REMARK  Name = 
REMARK  6 active torsions:
REMARK  status: ('A' for Active; 'I' for Inactive)
REMARK    1  A    between atoms: C_1  and  C_2
REMARK    2  A    between atoms: C_2  and  C_3
REMARK    3  A    between atoms: C_5  and  C_6
REMARK    4  A    between atoms: C_7  and  C_8
REMARK    5  A    between atoms: C_8  and  O_9
REMARK    6  A    between atoms: O_9  and  C_10
REMARK                            x       y       z     vdW  Elec       q    Type
REMARK                         _______ _______ _______ _____ _____    ______ ____
ROOT
ATOM      1  O   UNL     1       6.328   7.462  17.390  0.00  0.00    +0.000 OA
ENDROOT
BRANCH   1   2
ATOM      2  C   UNL     1       5.695   6.262  17.577  0.00  0.00    +0.000 A 
ATOM      3  C   UNL     1       4.882   5.832  16.522  0.00  0.00    +0.000 A 
ATOM      4  C   UNL     1       4.172   4.627  16.610  0.00  0.00    +0.000 A 
ATOM      5  C   UNL     1       4.281   3.838  17.754  0.00  0.00    +0.000 A 
ATOM      6  C   UNL     1       3.562   2.586  17.914  0.00  0.00    +0.000 A 
ATOM      7  C   UNL     1       3.745   1.860  19.021  0.00  0.00    +0.000 A 
ATOM      8  C   UNL     1       4.659   2.274  20.099  0.00  0.00    +0.000 A 
ATOM      9  O   UNL     1       4.852   1.554  21.071  0.00  0.00    +0.000 OA
ATOM     10  O   UNL     1       5.271   3.510  19.961  0.00  0.00    +0.000 OA
ATOM     11  C   UNL     1       5.101   4.275  18.790  0.00  0.00    +0.000 A 
ATOM     12  C   UNL     1       5.797   5.477  18.723  0.00  0.00    +0.000 A 
ENDBRANCH   1   2
BRANCH   1  13
ATOM     13  C   UNL     1       7.756   7.438  17.470  0.00  0.00    +0.000 C 
BRANCH  13  15
ATOM     14  C   UNL     1       8.824   9.320  18.761  0.00  0.00    +0.000 C 
ATOM     15  C   UNL     1       8.228   8.845  17.657  0.00  0.00    +0.000 C 
BRANCH  14  20
ATOM     16  C   UNL     1       9.787  13.067  21.206  0.00  0.00    +0.000 C 
ATOM     17  C   UNL     1      10.365  12.361  19.988  0.00  0.00    +0.000 C 
ATOM     18  C   UNL     1      11.872  12.543  19.877  0.00  0.00    +0.000 C 
ATOM     19  O   UNL     1      10.051  10.955  20.047  0.00  0.00    +0.000 OA
ATOM     20  C   UNL     1       9.265  10.686  18.926  0.00  0.00    +0.000 C 
ATOM     21  C   UNL     1       8.985  11.691  18.104  0.00  0.00    +0.000 C 
ATOM     22  C   UNL     1       9.672  12.809  18.727  0.00  0.00    +0.000 C 
ATOM     23  O   UNL     1       9.665  13.937  18.262  0.00  0.00    +0.000 OA
ENDBRANCH  14  20
ENDBRANCH  13  15
ENDBRANCH   1  13
TORSDOF 4
ENDMDL
MODEL 9
REMARK VINA RESULT:      -8.0      1.217      1.779
REMARK  Name = 
REMARK  6 active torsions:
REMARK  status: ('A' for Active; 'I' for Inactive)
REMARK    1  A    between atoms: C_1  and  C_2
REMARK    2  A    between atoms: C_2  and  C_3
REMARK    3  A    between atoms: C_5  and  C_6
REMARK    4  A    between atoms: C_7  and  C_8
REMARK    5  A    between atoms: C_8  and  O_9
REMARK    6  A    between atoms: O_9  and  C_10
REMARK                            x       y       z     vdW  Elec       q    Type
REMARK                         _______ _______ _______ _____ _____    ______ ____
ROOT
ATOM      1  O   UNL     1       6.578   5.716  17.529  0.00  0.00    +0.000 OA
ENDROOT
BRANCH   1   2
ATOM      2  C   UNL     1       5.436   5.031  17.846  0.00  0.00    +0.000 A 
ATOM      3  C   UNL     1       4.741   4.472  16.766  0.00  0.00    +0.000 A 
ATOM      4  C   UNL     1       3.549   3.764  16.970  0.00  0.00    +0.000 A 
ATOM      5  C   UNL     1       3.050   3.601  18.261  0.00  0.00    +0.000 A 
ATOM      6  C   UNL     1       1.814   2.891  18.539  0.00  0.00    +0.000 A 
ATOM      7  C   UNL     1       1.415   2.737  19.806  0.00  0.00    +0.000 A 
ATOM      8  C   UNL     1       2.184   3.259  20.949  0.00  0.00    +0.000 A 
ATOM      9  O   UNL     1       1.823   3.045  22.100  0.00  0.00    +0.000 OA
ATOM     10  O   UNL     1       3.316   4.003  20.655  0.00  0.00    +0.000 OA
ATOM     11  C   UNL     1       3.757   4.154  19.325  0.00  0.00    +0.000 A 
ATOM     12  C   UNL     1       4.932   4.874  19.135  0.00  0.00    +0.000 A 
ENDBRANCH   1   2
BRANCH   1  13
ATOM     13  C   UNL     1       7.633   5.657  18.492  0.00  0.00    +0.000 C 
BRANCH  13  15
ATOM     14  C   UNL     1       8.048   8.070  17.898  0.00  0.00    +0.000 C 
ATOM     15  C   UNL     1       8.074   7.058  18.777  0.00  0.00    +0.000 C 
BRANCH  14  20
ATOM     16  C   UNL     1       9.358  11.458  20.682  0.00  0.00    +0.000 C 
ATOM     17  C   UNL     1       9.727  10.963  19.290  0.00  0.00    +0.000 C 
ATOM     18  C   UNL     1      11.187  11.225  18.953  0.00  0.00    +0.000 C 
ATOM     19  O   UNL     1       9.452   9.552  19.189  0.00  0.00    +0.000 OA
ATOM     20  C   UNL     1       8.487   9.415  18.190  0.00  0.00    +0.000 C 
ATOM     21  C   UNL     1       8.050  10.516  17.589  0.00  0.00    +0.000 C 
ATOM     22  C   UNL     1       8.815  11.560  18.249  0.00  0.00    +0.000 C 
ATOM     23  O   UNL     1       8.707  12.743  17.967  0.00  0.00    +0.000 OA
ENDBRANCH  14  20
ENDBRANCH  13  15
ENDBRANCH   1  13
TORSDOF 4
ENDMDL
