MODEL 1
REMARK VINA RESULT:      -7.9      0.000      0.000
REMARK  Name = 
REMARK  7 active torsions:
REMARK  status: ('A' for Active; 'I' for Inactive)
REMARK    1  A    between atoms: C_2  and  C_16
REMARK    2  A    between atoms: N_3  and  CA_4
REMARK    3  A    between atoms: CA_4  and  CB_5
REMARK    4  A    between atoms: CA_4  and  C_13
REMARK    5  A    between atoms: CB_5  and  CG_6
REMARK    6  A    between atoms: CZ_9  and  OH_10
REMARK    7  A    between atoms: C_13  and  OXT_15
REMARK                            x       y       z     vdW  Elec       q    Type
REMARK                         _______ _______ _______ _____ _____    ______ ____
ROOT
ATOM      1  CA  TYR A   1       5.378   6.058  17.631  0.00  0.00    +0.000 C 
ENDROOT
BRANCH   1   4
ATOM      2  O   UNK A   0       7.641   6.039  15.902  0.00  0.00    +0.000 OA
ATOM      3  C   UNK A   0       6.623   5.449  15.555  0.00  0.00    +0.000 C 
ATOM      4  N   TYR A   1       5.505   5.368  16.346  0.00  0.00    +0.000 N 
ATOM      5  H   TYR A   1       4.732   4.762  16.089  0.00  0.00    +0.000 HD
BRANCH   3   6
ATOM      6  C   UNK A   0       6.542   4.789  14.224  0.00  0.00    +0.000 A 
ATOM      7  C   UNK A   0       5.475   3.917  13.976  0.00  0.00    +0.000 A 
ATOM      8  C   UNK A   0       5.374   3.260  12.749  0.00  0.00    +0.000 A 
ATOM      9  C   UNK A   0       6.345   3.461  11.769  0.00  0.00    +0.000 A 
ATOM     10  C   UNK A   0       7.421   4.315  12.014  0.00  0.00    +0.000 A 
ATOM     11  C   UNK A   0       7.524   4.976  13.241  0.00  0.00    +0.000 A 
ENDBRANCH   3   6
ENDBRANCH   1   4
BRANCH   1  12
ATOM     12  C   TYR A   1       5.869   5.088  18.722  0.00  0.00    +0.000 C 
ATOM     13  O   TYR A   1       6.279   5.452  19.818  0.00  0.00    +0.000 OA
BRANCH  12  14
ATOM     14  OXT TYR A   1       5.768   3.778  18.398  0.00  0.00    +0.000 OA
ATOM     15  HXT TYR A   1       6.233   3.515  17.582  0.00  0.00    +0.000 HD
ENDBRANCH  12  14
ENDBRANCH   1  12
BRANCH   1  16
ATOM     16  CB  TYR A   1       3.949   6.571  17.918  0.00  0.00    +0.000 C 
BRANCH  16  17
ATOM     17  CG  TYR A   1       3.054   5.523  18.538  0.00  0.00    +0.000 A 
ATOM     18  CD1 TYR A   1       2.412   4.569  17.737  0.00  0.00    +0.000 A 
ATOM     19  CE1 TYR A   1       1.478   3.695  18.292  0.00  0.00    +0.000 A 
ATOM     20  CZ  TYR A   1       1.191   3.770  19.650  0.00  0.00    +0.000 A 
ATOM     21  CE2 TYR A   1       1.856   4.676  20.471  0.00  0.00    +0.000 A 
ATOM     22  CD2 TYR A   1       2.792   5.544  19.914  0.00  0.00    +0.000 A 
BRANCH  20  23
ATOM     23  OH  TYR A   1       0.246   2.973  20.221  0.00  0.00    +0.000 OA
ATOM     24  HH  TYR A   1      -0.408   2.741  19.540  0.00  0.00    +0.000 HD
ENDBRANCH  20  23
ENDBRANCH  16  17
ENDBRANCH   1  16
TORSDOF 7
ENDMDL
MODEL 2
REMARK VINA RESULT:      -7.8      0.334      1.293
REMARK  Name = 
REMARK  7 active torsions:
REMARK  status: ('A' for Active; 'I' for Inactive)
REMARK    1  A    between atoms: C_2  and  C_16
REMARK    2  A    between atoms: N_3  and  CA_4
REMARK    3  A    between atoms: CA_4  and  CB_5
REMARK    4  A    between atoms: CA_4  and  C_13
REMARK    5  A    between atoms: CB_5  and  CG_6
REMARK    6  A    between atoms: CZ_9  and  OH_10
REMARK    7  A    between atoms: C_13  and  OXT_15
REMARK                            x       y       z     vdW  Elec       q    Type
REMARK                         _______ _______ _______ _____ _____    ______ ____
ROOT
ATOM      1  CA  TYR A   1       5.401   5.926  17.933  0.00  0.00    +0.000 C 
ENDROOT
BRANCH   1   4
ATOM      2  O   UNK A   0       7.578   6.141  16.109  0.00  0.00    +0.000 OA
ATOM      3  C   UNK A   0       6.609   5.456  15.800  0.00  0.00    +0.000 C 
ATOM      4  N   TYR A   1       5.539   5.259  16.637  0.00  0.00    +0.000 N 
ATOM      5  H   TYR A   1       4.820   4.581  16.406  0.00  0.00    +0.000 HD
BRANCH   3   6
ATOM      6  C   UNK A   0       6.536   4.799  14.466  0.00  0.00    +0.000 A 
ATOM      7  C   UNK A   0       7.539   5.077  13.530  0.00  0.00    +0.000 A 
ATOM      8  C   UNK A   0       7.495   4.500  12.260  0.00  0.00    +0.000 A 
ATOM      9  C   UNK A   0       6.443   3.652  11.916  0.00  0.00    +0.000 A 
ATOM     10  C   UNK A   0       5.431   3.383  12.837  0.00  0.00    +0.000 A 
ATOM     11  C   UNK A   0       5.472   3.958  14.110  0.00  0.00    +0.000 A 
ENDBRANCH   3   6
ENDBRANCH   1   4
BRANCH   1  12
ATOM     12  C   TYR A   1       5.868   4.930  19.012  0.00  0.00    +0.000 C 
ATOM     13  O   TYR A   1       5.537   3.750  19.032  0.00  0.00    +0.000 OA
BRANCH  12  14
ATOM     14  OXT TYR A   1       6.722   5.447  19.925  0.00  0.00    +0.000 OA
ATOM     15  HXT TYR A   1       6.379   6.205  20.433  0.00  0.00    +0.000 HD
ENDBRANCH  12  14
ENDBRANCH   1  12
BRANCH   1  16
ATOM     16  CB  TYR A   1       3.972   6.445  18.211  0.00  0.00    +0.000 C 
BRANCH  16  17
ATOM     17  CG  TYR A   1       3.018   5.359  18.648  0.00  0.00    +0.000 A 
ATOM     18  CD1 TYR A   1       2.471   4.470  17.713  0.00  0.00    +0.000 A 
ATOM     19  CE1 TYR A   1       1.484   3.563  18.095  0.00  0.00    +0.000 A 
ATOM     20  CZ  TYR A   1       1.050   3.536  19.414  0.00  0.00    +0.000 A 
ATOM     21  CE2 TYR A   1       1.618   4.375  20.369  0.00  0.00    +0.000 A 
ATOM     22  CD2 TYR A   1       2.607   5.277  19.985  0.00  0.00    +0.000 A 
BRANCH  20  23
ATOM     23  OH  TYR A   1       0.051   2.704  19.817  0.00  0.00    +0.000 OA
ATOM     24  HH  TYR A   1       0.423   1.812  19.925  0.00  0.00    +0.000 HD
ENDBRANCH  20  23
ENDBRANCH  16  17
ENDBRANCH   1  16
TORSDOF 7
ENDMDL
MODEL 3
REMARK VINA RESULT:      -7.8      1.414      2.024
REMARK  Name = 
REMARK  7 active torsions:
REMARK  status: ('A' for Active; 'I' for Inactive)
REMARK    1  A    between atoms: C_2  and  C_16
REMARK    2  A    between atoms: N_3  and  CA_4
REMARK    3  A    between atoms: CA_4  and  CB_5
REMARK    4  A    between atoms: CA_4  and  C_13
REMARK    5  A    between atoms: CB_5  and  CG_6
REMARK    6  A    between atoms: CZ_9  and  OH_10
REMARK    7  A    between atoms: C_13  and  OXT_15
REMARK                            x       y       z     vdW  Elec       q    Type
REMARK                         _______ _______ _______ _____ _____    ______ ____
ROOT
ATOM      1  CA  TYR A   1       6.122   6.611  17.607  0.00  0.00    +0.000 C 
ENDROOT
BRANCH   1   4
ATOM      2  O   UNK A   0       7.787   4.546  16.569  0.00  0.00    +0.000 OA
ATOM      3  C   UNK A   0       6.983   5.093  15.821  0.00  0.00    +0.000 C 
ATOM      4  N   TYR A   1       6.111   6.063  16.249  0.00  0.00    +0.000 N 
ATOM      5  H   TYR A   1       5.371   6.398  15.640  0.00  0.00    +0.000 HD
BRANCH   3   6
ATOM      6  C   UNK A   0       6.921   4.736  14.378  0.00  0.00    +0.000 A 
ATOM      7  C   UNK A   0       6.003   3.759  13.973  0.00  0.00    +0.000 A 
ATOM      8  C   UNK A   0       5.928   3.378  12.632  0.00  0.00    +0.000 A 
ATOM      9  C   UNK A   0       6.777   3.962  11.693  0.00  0.00    +0.000 A 
ATOM     10  C   UNK A   0       7.706   4.924  12.092  0.00  0.00    +0.000 A 
ATOM     11  C   UNK A   0       7.784   5.308  13.433  0.00  0.00    +0.000 A 
ENDBRANCH   3   6
ENDBRANCH   1   4
BRANCH   1  12
ATOM     12  C   TYR A   1       7.517   7.221  17.842  0.00  0.00    +0.000 C 
ATOM     13  O   TYR A   1       7.964   8.160  17.194  0.00  0.00    +0.000 OA
BRANCH  12  14
ATOM     14  OXT TYR A   1       8.209   6.667  18.865  0.00  0.00    +0.000 OA
ATOM     15  HXT TYR A   1       8.649   7.301  19.461  0.00  0.00    +0.000 HD
ENDBRANCH  12  14
ENDBRANCH   1  12
BRANCH   1  16
ATOM     16  CB  TYR A   1       5.758   5.574  18.693  0.00  0.00    +0.000 C 
BRANCH  16  17
ATOM     17  CG  TYR A   1       4.453   4.862  18.424  0.00  0.00    +0.000 A 
ATOM     18  CD1 TYR A   1       3.238   5.558  18.469  0.00  0.00    +0.000 A 
ATOM     19  CE1 TYR A   1       2.028   4.873  18.361  0.00  0.00    +0.000 A 
ATOM     20  CZ  TYR A   1       2.033   3.493  18.199  0.00  0.00    +0.000 A 
ATOM     21  CE2 TYR A   1       3.230   2.791  18.099  0.00  0.00    +0.000 A 
ATOM     22  CD2 TYR A   1       4.437   3.479  18.202  0.00  0.00    +0.000 A 
BRANCH  20  23
ATOM     23  OH  TYR A   1       0.875   2.779  18.144  0.00  0.00    +0.000 OA
ATOM     24  HH  TYR A   1       0.300   3.078  18.870  0.00  0.00    +0.000 HD
ENDBRANCH  20  23
ENDBRANCH  16  17
ENDBRANCH   1  16
TORSDOF 7
ENDMDL
MODEL 4
REMARK VINA RESULT:      -7.8      0.194      1.072
REMARK  Name = 
REMARK  7 active torsions:
REMARK  status: ('A' for Active; 'I' for Inactive)
REMARK    1  A    between atoms: C_2  and  C_16
REMARK    2  A    between atoms: N_3  and  CA_4
REMARK    3  A    between atoms: CA_4  and  CB_5
REMARK    4  A    between atoms: CA_4  and  C_13
REMARK    5  A    between atoms: CB_5  and  CG_6
REMARK    6  A    between atoms: CZ_9  and  OH_10
REMARK    7  A    between atoms: C_13  and  OXT_15
REMARK                            x       y       z     vdW  Elec       q    Type
REMARK                         _______ _______ _______ _____ _____    ______ ____
ROOT
ATOM      1  CA  TYR A   1       5.513   5.910  17.725  0.00  0.00    +0.000 C 
ENDROOT
BRANCH   1   4
ATOM      2  O   UNK A   0       7.623   6.109  15.822  0.00  0.00    +0.000 OA
ATOM      3  C   UNK A   0       6.642   5.424  15.552  0.00  0.00    +0.000 C 
ATOM      4  N   TYR A   1       5.603   5.235  16.429  0.00  0.00    +0.000 N 
ATOM      5  H   TYR A   1       4.874   4.557  16.228  0.00  0.00    +0.000 HD
BRANCH   3   6
ATOM      6  C   UNK A   0       6.519   4.759  14.226  0.00  0.00    +0.000 A 
ATOM      7  C   UNK A   0       5.398   3.955  13.985  0.00  0.00    +0.000 A 
ATOM      8  C   UNK A   0       5.257   3.295  12.763  0.00  0.00    +0.000 A 
ATOM      9  C   UNK A   0       6.239   3.425  11.783  0.00  0.00    +0.000 A 
ATOM     10  C   UNK A   0       7.368   4.210  12.022  0.00  0.00    +0.000 A 
ATOM     11  C   UNK A   0       7.513   4.873  13.243  0.00  0.00    +0.000 A 
ENDBRANCH   3   6
ENDBRANCH   1   4
BRANCH   1  12
ATOM     12  C   TYR A   1       5.796   4.855  18.811  0.00  0.00    +0.000 C 
ATOM     13  O   TYR A   1       6.165   5.134  19.946  0.00  0.00    +0.000 OA
BRANCH  12  14
ATOM     14  OXT TYR A   1       5.561   3.578  18.431  0.00  0.00    +0.000 OA
ATOM     15  HXT TYR A   1       6.108   3.257  17.691  0.00  0.00    +0.000 HD
ENDBRANCH  12  14
ENDBRANCH   1  12
BRANCH   1  16
ATOM     16  CB  TYR A   1       4.161   6.624  17.956  0.00  0.00    +0.000 C 
BRANCH  16  17
ATOM     17  CG  TYR A   1       3.094   5.712  18.516  0.00  0.00    +0.000 A 
ATOM     18  CD1 TYR A   1       2.767   5.749  19.878  0.00  0.00    +0.000 A 
ATOM     19  CE1 TYR A   1       1.887   4.813  20.418  0.00  0.00    +0.000 A 
ATOM     20  CZ  TYR A   1       1.327   3.843  19.595  0.00  0.00    +0.000 A 
ATOM     21  CE2 TYR A   1       1.599   3.823  18.230  0.00  0.00    +0.000 A 
ATOM     22  CD2 TYR A   1       2.475   4.763  17.693  0.00  0.00    +0.000 A 
BRANCH  20  23
ATOM     23  OH  TYR A   1       0.506   2.877  20.090  0.00  0.00    +0.000 OA
ATOM     24  HH  TYR A   1       0.362   3.057  21.036  0.00  0.00    +0.000 HD
ENDBRANCH  20  23
ENDBRANCH  16  17
ENDBRANCH   1  16
TORSDOF 7
ENDMDL
MODEL 5
REMARK VINA RESULT:      -7.8      1.451      1.979
REMARK  Name = 
REMARK  7 active torsions:
REMARK  status: ('A' for Active; 'I' for Inactive)
REMARK    1  A    between atoms: C_2  and  C_16
REMARK    2  A    between atoms: N_3  and  CA_4
REMARK    3  A    between atoms: CA_4  and  CB_5
REMARK    4  A    between atoms: CA_4  and  C_13
REMARK    5  A    between atoms: CB_5  and  CG_6
REMARK    6  A    between atoms: CZ_9  and  OH_10
REMARK    7  A    between atoms: C_13  and  OXT_15
REMARK                            x       y       z     vdW  Elec       q    Type
REMARK                         _______ _______ _______ _____ _____    ______ ____
ROOT
ATOM      1  CA  TYR A   1       6.043   5.257  18.300  0.00  0.00    +0.000 C 
ENDROOT
BRANCH   1   4
ATOM      2  O   UNK A   0       5.388   6.658  15.908  0.00  0.00    +0.000 OA
ATOM      3  C   UNK A   0       5.985   5.591  15.826  0.00  0.00    +0.000 C 
ATOM      4  N   TYR A   1       6.382   4.874  16.928  0.00  0.00    +0.000 N 
ATOM      5  H   TYR A   1       6.990   4.066  16.828  0.00  0.00    +0.000 HD
BRANCH   3   6
ATOM      6  C   UNK A   0       6.307   4.998  14.499  0.00  0.00    +0.000 A 
ATOM      7  C   UNK A   0       5.456   4.010  13.987  0.00  0.00    +0.000 A 
ATOM      8  C   UNK A   0       5.735   3.412  12.757  0.00  0.00    +0.000 A 
ATOM      9  C   UNK A   0       6.869   3.789  12.040  0.00  0.00    +0.000 A 
ATOM     10  C   UNK A   0       7.731   4.760  12.551  0.00  0.00    +0.000 A 
ATOM     11  C   UNK A   0       7.455   5.361  13.782  0.00  0.00    +0.000 A 
ENDBRANCH   3   6
ENDBRANCH   1   4
BRANCH   1  12
ATOM     12  C   TYR A   1       7.288   5.931  18.906  0.00  0.00    +0.000 C 
ATOM     13  O   TYR A   1       7.910   6.829  18.351  0.00  0.00    +0.000 OA
BRANCH  12  14
ATOM     14  OXT TYR A   1       7.626   5.487  20.139  0.00  0.00    +0.000 OA
ATOM     15  HXT TYR A   1       7.906   6.177  20.767  0.00  0.00    +0.000 HD
ENDBRANCH  12  14
ENDBRANCH   1  12
BRANCH   1  16
ATOM     16  CB  TYR A   1       5.549   4.077  19.166  0.00  0.00    +0.000 C 
BRANCH  16  17
ATOM     17  CG  TYR A   1       4.108   3.707  18.905  0.00  0.00    +0.000 A 
ATOM     18  CD1 TYR A   1       3.082   4.223  19.709  0.00  0.00    +0.000 A 
ATOM     19  CE1 TYR A   1       1.772   3.772  19.557  0.00  0.00    +0.000 A 
ATOM     20  CZ  TYR A   1       1.485   2.810  18.596  0.00  0.00    +0.000 A 
ATOM     21  CE2 TYR A   1       2.480   2.324  17.754  0.00  0.00    +0.000 A 
ATOM     22  CD2 TYR A   1       3.788   2.781  17.905  0.00  0.00    +0.000 A 
BRANCH  20  23
ATOM     23  OH  TYR A   1       0.230   2.302  18.452  0.00  0.00    +0.000 OA
ATOM     24  HH  TYR A   1       0.120   1.579  19.093  0.00  0.00    +0.000 HD
ENDBRANCH  20  23
ENDBRANCH  16  17
ENDBRANCH   1  16
TORSDOF 7
ENDMDL
MODEL 6
REMARK VINA RESULT:      -7.7      1.462      2.176
REMARK  Name = 
REMARK  7 active torsions:
REMARK  status: ('A' for Active; 'I' for Inactive)
REMARK    1  A    between atoms: C_2  and  C_16
REMARK    2  A    between atoms: N_3  and  CA_4
REMARK    3  A    between atoms: CA_4  and  CB_5
REMARK    4  A    between atoms: CA_4  and  C_13
REMARK    5  A    between atoms: CB_5  and  CG_6
REMARK    6  A    between atoms: CZ_9  and  OH_10
REMARK    7  A    between atoms: C_13  and  OXT_15
REMARK                            x       y       z     vdW  Elec       q    Type
REMARK                         _______ _______ _______ _____ _____    ______ ____
ROOT
ATOM      1  CA  TYR A   1       6.107   5.395  18.366  0.00  0.00    +0.000 C 
ENDROOT
BRANCH   1   4
ATOM      2  O   UNK A   0       5.378   6.669  15.926  0.00  0.00    +0.000 OA
ATOM      3  C   UNK A   0       5.980   5.602  15.882  0.00  0.00    +0.000 C 
ATOM      4  N   TYR A   1       6.411   4.944  17.007  0.00  0.00    +0.000 N 
ATOM      5  H   TYR A   1       7.021   4.136  16.932  0.00  0.00    +0.000 HD
BRANCH   3   6
ATOM      6  C   UNK A   0       6.269   4.944  14.578  0.00  0.00    +0.000 A 
ATOM      7  C   UNK A   0       7.419   5.330  13.878  0.00  0.00    +0.000 A 
ATOM      8  C   UNK A   0       7.714   4.754  12.641  0.00  0.00    +0.000 A 
ATOM      9  C   UNK A   0       6.858   3.800  12.094  0.00  0.00    +0.000 A 
ATOM     10  C   UNK A   0       5.702   3.422  12.777  0.00  0.00    +0.000 A 
ATOM     11  C   UNK A   0       5.403   3.995  14.016  0.00  0.00    +0.000 A 
ENDBRANCH   3   6
ENDBRANCH   1   4
BRANCH   1  12
ATOM     12  C   TYR A   1       7.395   6.013  18.941  0.00  0.00    +0.000 C 
ATOM     13  O   TYR A   1       8.017   6.915  18.391  0.00  0.00    +0.000 OA
BRANCH  12  14
ATOM     14  OXT TYR A   1       7.772   5.516  20.142  0.00  0.00    +0.000 OA
ATOM     15  HXT TYR A   1       8.079   6.177  20.788  0.00  0.00    +0.000 HD
ENDBRANCH  12  14
ENDBRANCH   1  12
BRANCH   1  16
ATOM     16  CB  TYR A   1       5.550   4.277  19.277  0.00  0.00    +0.000 C 
BRANCH  16  17
ATOM     17  CG  TYR A   1       4.164   3.823  18.884  0.00  0.00    +0.000 A 
ATOM     18  CD1 TYR A   1       3.136   4.755  18.692  0.00  0.00    +0.000 A 
ATOM     19  CE1 TYR A   1       1.828   4.327  18.470  0.00  0.00    +0.000 A 
ATOM     20  CZ  TYR A   1       1.548   2.966  18.431  0.00  0.00    +0.000 A 
ATOM     21  CE2 TYR A   1       2.565   2.026  18.568  0.00  0.00    +0.000 A 
ATOM     22  CD2 TYR A   1       3.871   2.457  18.785  0.00  0.00    +0.000 A 
BRANCH  20  23
ATOM     23  OH  TYR A   1       0.277   2.506  18.272  0.00  0.00    +0.000 OA
ATOM     24  HH  TYR A   1       0.325   1.591  17.945  0.00  0.00    +0.000 HD
ENDBRANCH  20  23
ENDBRANCH  16  17
ENDBRANCH   1  16
TORSDOF 7
ENDMDL
MODEL 7
REMARK VINA RESULT:      -7.7      1.415      1.918
REMARK  Name = 
REMARK  7 active torsions:
REMARK  status: ('A' for Active; 'I' for Inactive)
REMARK    1  A    between atoms: C_2  and  C_16
REMARK    2  A    between atoms: N_3  and  CA_4
REMARK    3  A    between atoms: CA_4  and  CB_5
REMARK    4  A    between atoms: CA_4  and  C_13
REMARK    5  A    between atoms: CB_5  and  CG_6
REMARK    6  A    between atoms: CZ_9  and  OH_10
REMARK    7  A    between atoms: C_13  and  OXT_15
REMARK                            x       y       z     vdW  Elec       q    Type
REMARK                         _______ _______ _______ _____ _____    ______ ____
ROOT
ATOM      1  CA  TYR A   1       6.161   6.481  17.795  0.00  0.00    +0.000 C 
ENDROOT
BRANCH   1   4
ATOM      2  O   UNK A   0       7.893   4.545  16.629  0.00  0.00    +0.000 OA
ATOM      3  C   UNK A   0       6.999   5.030  15.944  0.00  0.00    +0.000 C 
ATOM      4  N   TYR A   1       6.091   5.933  16.439  0.00  0.00    +0.000 N 
ATOM      5  H   TYR A   1       5.285   6.212  15.887  0.00  0.00    +0.000 HD
BRANCH   3   6
ATOM      6  C   UNK A   0       6.857   4.668  14.508  0.00  0.00    +0.000 A 
ATOM      7  C   UNK A   0       5.848   3.768  14.144  0.00  0.00    +0.000 A 
ATOM      8  C   UNK A   0       5.696   3.384  12.810  0.00  0.00    +0.000 A 
ATOM      9  C   UNK A   0       6.559   3.888  11.838  0.00  0.00    +0.000 A 
ATOM     10  C   UNK A   0       7.577   4.772  12.195  0.00  0.00    +0.000 A 
ATOM     11  C   UNK A   0       7.732   5.159  13.528  0.00  0.00    +0.000 A 
ENDBRANCH   3   6
ENDBRANCH   1   4
BRANCH   1  12
ATOM     12  C   TYR A   1       7.525   7.183  17.935  0.00  0.00    +0.000 C 
ATOM     13  O   TYR A   1       7.870   8.136  17.246  0.00  0.00    +0.000 OA
BRANCH  12  14
ATOM     14  OXT TYR A   1       8.312   6.694  18.921  0.00  0.00    +0.000 OA
ATOM     15  HXT TYR A   1       7.896   6.021  19.490  0.00  0.00    +0.000 HD
ENDBRANCH  12  14
ENDBRANCH   1  12
BRANCH   1  16
ATOM     16  CB  TYR A   1       5.943   5.423  18.900  0.00  0.00    +0.000 C 
BRANCH  16  17
ATOM     17  CG  TYR A   1       4.598   4.740  18.815  0.00  0.00    +0.000 A 
ATOM     18  CD1 TYR A   1       4.511   3.366  18.557  0.00  0.00    +0.000 A 
ATOM     19  CE1 TYR A   1       3.272   2.766  18.338  0.00  0.00    +0.000 A 
ATOM     20  CZ  TYR A   1       2.118   3.539  18.386  0.00  0.00    +0.000 A 
ATOM     21  CE2 TYR A   1       2.180   4.895  18.692  0.00  0.00    +0.000 A 
ATOM     22  CD2 TYR A   1       3.420   5.490  18.915  0.00  0.00    +0.000 A 
BRANCH  20  23
ATOM     23  OH  TYR A   1       0.893   3.005  18.124  0.00  0.00    +0.000 OA
ATOM     24  HH  TYR A   1       0.587   3.352  17.268  0.00  0.00    +0.000 HD
ENDBRANCH  20  23
ENDBRANCH  16  17
ENDBRANCH   1  16
TORSDOF 7
ENDMDL
MODEL 8
REMARK VINA RESULT:      -7.6      0.767      1.802
REMARK  Name = 
REMARK  7 active torsions:
REMARK  status: ('A' for Active; 'I' for Inactive)
REMARK    1  A    between atoms: C_2  and  C_16
REMARK    2  A    between atoms: N_3  and  CA_4
REMARK    3  A    between atoms: CA_4  and  CB_5
REMARK    4  A    between atoms: CA_4  and  C_13
REMARK    5  A    between atoms: CB_5  and  CG_6
REMARK    6  A    between atoms: CZ_9  and  OH_10
REMARK    7  A    between atoms: C_13  and  OXT_15
REMARK                            x       y       z     vdW  Elec       q    Type
REMARK                         _______ _______ _______ _____ _____    ______ ____
ROOT
ATOM      1  CA  TYR A   1       5.339   5.922  18.045  0.00  0.00    +0.000 C 
ENDROOT
BRANCH   1   4
ATOM      2  O   UNK A   0       7.555   6.225  16.283  0.00  0.00    +0.000 OA
ATOM      3  C   UNK A   0       6.613   5.521  15.937  0.00  0.00    +0.000 C 
ATOM      4  N   TYR A   1       5.528   5.282  16.742  0.00  0.00    +0.000 N 
ATOM      5  H   TYR A   1       4.832   4.590  16.481  0.00  0.00    +0.000 HD
BRANCH   3   6
ATOM      6  C   UNK A   0       6.591   4.886  14.591  0.00  0.00    +0.000 A 
ATOM      7  C   UNK A   0       7.574   5.255  13.664  0.00  0.00    +0.000 A 
ATOM      8  C   UNK A   0       7.576   4.700  12.383  0.00  0.00    +0.000 A 
ATOM      9  C   UNK A   0       6.589   3.785  12.019  0.00  0.00    +0.000 A 
ATOM     10  C   UNK A   0       5.596   3.425  12.930  0.00  0.00    +0.000 A 
ATOM     11  C   UNK A   0       5.592   3.977  14.214  0.00  0.00    +0.000 A 
ENDBRANCH   3   6
ENDBRANCH   1   4
BRANCH   1  12
ATOM     12  C   TYR A   1       5.903   4.964  19.111  0.00  0.00    +0.000 C 
ATOM     13  O   TYR A   1       5.539   3.801  19.237  0.00  0.00    +0.000 OA
BRANCH  12  14
ATOM     14  OXT TYR A   1       6.882   5.492  19.883  0.00  0.00    +0.000 OA
ATOM     15  HXT TYR A   1       7.790   5.257  19.621  0.00  0.00    +0.000 HD
ENDBRANCH  12  14
ENDBRANCH   1  12
BRANCH   1  16
ATOM     16  CB  TYR A   1       3.870   6.305  18.338  0.00  0.00    +0.000 C 
BRANCH  16  17
ATOM     17  CG  TYR A   1       2.943   5.114  18.393  0.00  0.00    +0.000 A 
ATOM     18  CD1 TYR A   1       2.177   4.859  19.538  0.00  0.00    +0.000 A 
ATOM     19  CE1 TYR A   1       1.433   3.685  19.641  0.00  0.00    +0.000 A 
ATOM     20  CZ  TYR A   1       1.446   2.769  18.596  0.00  0.00    +0.000 A 
ATOM     21  CE2 TYR A   1       2.159   3.030  17.429  0.00  0.00    +0.000 A 
ATOM     22  CD2 TYR A   1       2.898   4.206  17.328  0.00  0.00    +0.000 A 
BRANCH  20  23
ATOM     23  OH  TYR A   1       0.778   1.586  18.678  0.00  0.00    +0.000 OA
ATOM     24  HH  TYR A   1      -0.095   1.757  19.073  0.00  0.00    +0.000 HD
ENDBRANCH  20  23
ENDBRANCH  16  17
ENDBRANCH   1  16
TORSDOF 7
ENDMDL
MODEL 9
REMARK VINA RESULT:      -7.6      1.317      1.771
REMARK  Name = 
REMARK  7 active torsions:
REMARK  status: ('A' for Active; 'I' for Inactive)
REMARK    1  A    between atoms: C_2  and  C_16
REMARK    2  A    between atoms: N_3  and  CA_4
REMARK    3  A    between atoms: CA_4  and  CB_5
REMARK    4  A    between atoms: CA_4  and  C_13
REMARK    5  A    between atoms: CB_5  and  CG_6
REMARK    6  A    between atoms: CZ_9  and  OH_10
REMARK    7  A    between atoms: C_13  and  OXT_15
REMARK                            x       y       z     vdW  Elec       q    Type
REMARK                         _______ _______ _______ _____ _____    ______ ____
ROOT
ATOM      1  CA  TYR A   1       6.113   5.831  18.145  0.00  0.00    +0.000 C 
ENDROOT
BRANCH   1   4
ATOM      2  O   UNK A   0       7.760   6.252  15.860  0.00  0.00    +0.000 OA
ATOM      3  C   UNK A   0       6.834   5.452  15.785  0.00  0.00    +0.000 C 
ATOM      4  N   TYR A   1       6.021   5.153  16.850  0.00  0.00    +0.000 N 
ATOM      5  H   TYR A   1       5.353   4.391  16.793  0.00  0.00    +0.000 HD
BRANCH   3   6
ATOM      6  C   UNK A   0       6.529   4.759  14.504  0.00  0.00    +0.000 A 
ATOM      7  C   UNK A   0       7.467   4.831  13.466  0.00  0.00    +0.000 A 
ATOM      8  C   UNK A   0       7.209   4.214  12.241  0.00  0.00    +0.000 A 
ATOM      9  C   UNK A   0       6.008   3.533  12.043  0.00  0.00    +0.000 A 
ATOM     10  C   UNK A   0       5.061   3.471  13.065  0.00  0.00    +0.000 A 
ATOM     11  C   UNK A   0       5.316   4.087  14.294  0.00  0.00    +0.000 A 
ENDBRANCH   3   6
ENDBRANCH   1   4
BRANCH   1  12
ATOM     12  C   TYR A   1       7.229   5.135  18.947  0.00  0.00    +0.000 C 
ATOM     13  O   TYR A   1       7.442   5.348  20.135  0.00  0.00    +0.000 OA
BRANCH  12  14
ATOM     14  OXT TYR A   1       7.940   4.221  18.247  0.00  0.00    +0.000 OA
ATOM     15  HXT TYR A   1       7.829   4.259  17.280  0.00  0.00    +0.000 HD
ENDBRANCH  12  14
ENDBRANCH   1  12
BRANCH   1  16
ATOM     16  CB  TYR A   1       4.778   5.859  18.922  0.00  0.00    +0.000 C 
BRANCH  16  17
ATOM     17  CG  TYR A   1       3.874   4.694  18.596  0.00  0.00    +0.000 A 
ATOM     18  CD1 TYR A   1       2.730   4.877  17.807  0.00  0.00    +0.000 A 
ATOM     19  CE1 TYR A   1       1.823   3.834  17.625  0.00  0.00    +0.000 A 
ATOM     20  CZ  TYR A   1       2.063   2.604  18.225  0.00  0.00    +0.000 A 
ATOM     21  CE2 TYR A   1       3.219   2.387  18.968  0.00  0.00    +0.000 A 
ATOM     22  CD2 TYR A   1       4.126   3.430  19.144  0.00  0.00    +0.000 A 
BRANCH  20  23
ATOM     23  OH  TYR A   1       1.177   1.576  18.119  0.00  0.00    +0.000 OA
ATOM     24  HH  TYR A   1       1.222   1.229  17.211  0.00  0.00    +0.000 HD
ENDBRANCH  20  23
ENDBRANCH  16  17
ENDBRANCH   1  16
TORSDOF 7
ENDMDL
