MODEL 1
REMARK VINA RESULT:      -6.6      0.000      0.000
REMARK  Name = 
REMARK  14 active torsions:
REMARK  status: ('A' for Active; 'I' for Inactive)
REMARK    1  A    between atoms: C_1  and  C_2
REMARK    2  A    between atoms: C_2  and  C_3
REMARK    3  A    between atoms: C_2  and  C_4
REMARK    4  A    between atoms: C_4  and  O_6
REMARK    5  A    between atoms: O_6  and  C_7
REMARK    6  A    between atoms: C_7  and  C_8
REMARK    7  A    between atoms: C_8  and  N_9
REMARK    8  A    between atoms: N_9  and  C_15
REMARK    9  A    between atoms: C_10  and  C_12
REMARK   10  A    between atoms: C_12  and  C_13
REMARK   11  A    between atoms: C_12  and  C_14
REMARK   12  A    between atoms: N_23  and  C_24
REMARK   13  A    between atoms: C_24  and  C_25
REMARK   14  A    between atoms: C_25  and  N_26
REMARK                            x       y       z     vdW  Elec       q    Type
REMARK                         _______ _______ _______ _____ _____    ______ ____
ROOT
ATOM      1  C   UNL     1       0.350  10.632  19.755  0.00  0.00    +0.000 C 
ATOM      2  C   UNL     1       1.344  10.581  18.560  0.00  0.00    +0.000 C 
ATOM      3  C   UNL     1       1.675   9.174  18.072  0.00  0.00    +0.000 C 
ATOM      4  N   UNL     1       2.228   8.347  19.144  0.00  0.00    +0.000 NA
ATOM      5  C   UNL     1       1.321   8.285  20.300  0.00  0.00    +0.000 C 
ATOM      6  C   UNL     1       0.941   9.675  20.826  0.00  0.00    +0.000 C 
ENDROOT
BRANCH   1   7
ATOM      7  N   UNL     1       0.180  12.091  20.261  0.00  0.00    +0.000 N 
ATOM      8  C   UNL     1      -0.837  12.513  21.144  0.00  0.00    +0.000 C 
ATOM      9  O   UNL     1      -1.728  11.769  21.561  0.00  0.00    +0.000 OA
BRANCH   7  10
ATOM     10  C   UNL     1       1.168  13.033  19.843  0.00  0.00    +0.000 A 
ATOM     11  C   UNL     1       2.314  13.208  20.628  0.00  0.00    +0.000 A 
ATOM     12  C   UNL     1       3.250  14.191  20.308  0.00  0.00    +0.000 A 
ATOM     13  C   UNL     1       3.021  15.040  19.229  0.00  0.00    +0.000 A 
ATOM     14  C   UNL     1       1.864  14.898  18.461  0.00  0.00    +0.000 A 
ATOM     15  C   UNL     1       0.941  13.891  18.761  0.00  0.00    +0.000 A 
ENDBRANCH   7  10
BRANCH   8  16
ATOM     16  C   UNL     1      -0.857  13.992  21.600  0.00  0.00    +0.000 C 
ATOM     17  C   UNL     1      -2.032  14.715  20.946  0.00  0.00    +0.000 C 
ATOM     18  C   UNL     1      -0.953  14.101  23.124  0.00  0.00    +0.000 C 
ENDBRANCH   8  16
ENDBRANCH   1   7
BRANCH   1  19
ATOM     19  C   UNL     1      -1.018  10.085  19.237  0.00  0.00    +0.000 C 
BRANCH  19  20
ATOM     20  O   UNL     1      -1.456  10.743  18.043  0.00  0.00    +0.000 OA
BRANCH  20  21
ATOM     21  C   UNL     1      -2.592  10.239  17.485  0.00  0.00    +0.000 C 
ATOM     22  O   UNL     1      -3.216   9.277  17.912  0.00  0.00    +0.000 OA
BRANCH  21  24
ATOM     23  C   UNL     1      -2.914  10.319  15.001  0.00  0.00    +0.000 C 
ATOM     24  C   UNL     1      -3.033  11.091  16.309  0.00  0.00    +0.000 C 
ATOM     25  C   UNL     1      -4.469  11.570  16.519  0.00  0.00    +0.000 C 
ENDBRANCH  21  24
ENDBRANCH  20  21
ENDBRANCH  19  20
ENDBRANCH   1  19
BRANCH   4  26
ATOM     26  C   UNL     1       2.548   6.977  18.671  0.00  0.00    +0.000 C 
BRANCH  26  27
ATOM     27  C   UNL     1       2.470   5.909  19.767  0.00  0.00    +0.000 C 
BRANCH  27  28
ATOM     28  N   UNL     1       3.543   4.947  19.643  0.00  0.00    +0.000 N 
ATOM     29  N   UNL     1       3.317   3.619  19.711  0.00  0.00    +0.000 NA
ATOM     30  C   UNL     1       4.546   3.179  19.435  0.00  0.00    +0.000 A 
ATOM     31  N   UNL     1       5.455   4.168  19.215  0.00  0.00    +0.000 NA
ATOM     32  N   UNL     1       4.795   5.309  19.347  0.00  0.00    +0.000 NA
ENDBRANCH  27  28
ENDBRANCH  26  27
ENDBRANCH   4  26
TORSDOF 10
ENDMDL
MODEL 2
REMARK VINA RESULT:      -6.5      1.568      3.064
REMARK  Name = 
REMARK  14 active torsions:
REMARK  status: ('A' for Active; 'I' for Inactive)
REMARK    1  A    between atoms: C_1  and  C_2
REMARK    2  A    between atoms: C_2  and  C_3
REMARK    3  A    between atoms: C_2  and  C_4
REMARK    4  A    between atoms: C_4  and  O_6
REMARK    5  A    between atoms: O_6  and  C_7
REMARK    6  A    between atoms: C_7  and  C_8
REMARK    7  A    between atoms: C_8  and  N_9
REMARK    8  A    between atoms: N_9  and  C_15
REMARK    9  A    between atoms: C_10  and  C_12
REMARK   10  A    between atoms: C_12  and  C_13
REMARK   11  A    between atoms: C_12  and  C_14
REMARK   12  A    between atoms: N_23  and  C_24
REMARK   13  A    between atoms: C_24  and  C_25
REMARK   14  A    between atoms: C_25  and  N_26
REMARK                            x       y       z     vdW  Elec       q    Type
REMARK                         _______ _______ _______ _____ _____    ______ ____
ROOT
ATOM      1  C   UNL     1       0.395  10.381  19.631  0.00  0.00    +0.000 C 
ATOM      2  C   UNL     1       1.397  10.371  18.442  0.00  0.00    +0.000 C 
ATOM      3  C   UNL     1       1.772   8.980  17.941  0.00  0.00    +0.000 C 
ATOM      4  N   UNL     1       2.342   8.158  19.009  0.00  0.00    +0.000 NA
ATOM      5  C   UNL     1       1.431   8.059  20.159  0.00  0.00    +0.000 C 
ATOM      6  C   UNL     1       1.007   9.432  20.696  0.00  0.00    +0.000 C 
ENDROOT
BRANCH   1   7
ATOM      7  N   UNL     1       0.180  11.830  20.150  0.00  0.00    +0.000 N 
ATOM      8  C   UNL     1       1.060  12.904  19.898  0.00  0.00    +0.000 C 
ATOM      9  O   UNL     1       2.121  12.784  19.281  0.00  0.00    +0.000 OA
BRANCH   7  10
ATOM     10  C   UNL     1      -1.027  12.079  20.872  0.00  0.00    +0.000 A 
ATOM     11  C   UNL     1      -2.082  12.733  20.225  0.00  0.00    +0.000 A 
ATOM     12  C   UNL     1      -3.234  13.086  20.926  0.00  0.00    +0.000 A 
ATOM     13  C   UNL     1      -3.320  12.831  22.292  0.00  0.00    +0.000 A 
ATOM     14  C   UNL     1      -2.258  12.212  22.954  0.00  0.00    +0.000 A 
ATOM     15  C   UNL     1      -1.115  11.828  22.246  0.00  0.00    +0.000 A 
ENDBRANCH   7  10
BRANCH   8  16
ATOM     16  C   UNL     1       0.695  14.306  20.442  0.00  0.00    +0.000 C 
ATOM     17  C   UNL     1       1.563  14.627  21.658  0.00  0.00    +0.000 C 
ATOM     18  C   UNL     1       0.873  15.381  19.369  0.00  0.00    +0.000 C 
ENDBRANCH   8  16
ENDBRANCH   1   7
BRANCH   1  19
ATOM     19  C   UNL     1      -0.953   9.801  19.099  0.00  0.00    +0.000 C 
BRANCH  19  20
ATOM     20  O   UNL     1      -1.327  10.352  17.832  0.00  0.00    +0.000 OA
BRANCH  20  21
ATOM     21  C   UNL     1      -2.594  10.065  17.423  0.00  0.00    +0.000 C 
ATOM     22  O   UNL     1      -3.323   9.227  17.938  0.00  0.00    +0.000 OA
BRANCH  21  24
ATOM     23  C   UNL     1      -2.948  10.277  14.951  0.00  0.00    +0.000 C 
ATOM     24  C   UNL     1      -3.016  10.989  16.297  0.00  0.00    +0.000 C 
ATOM     25  C   UNL     1      -4.428  11.516  16.553  0.00  0.00    +0.000 C 
ENDBRANCH  21  24
ENDBRANCH  20  21
ENDBRANCH  19  20
ENDBRANCH   1  19
BRANCH   4  26
ATOM     26  C   UNL     1       2.704   6.803  18.525  0.00  0.00    +0.000 C 
BRANCH  26  27
ATOM     27  C   UNL     1       2.318   5.676  19.489  0.00  0.00    +0.000 C 
BRANCH  27  28
ATOM     28  N   UNL     1       2.205   4.409  18.801  0.00  0.00    +0.000 N 
ATOM     29  N   UNL     1       2.732   4.218  17.574  0.00  0.00    +0.000 NA
ATOM     30  C   UNL     1       2.475   2.917  17.431  0.00  0.00    +0.000 A 
ATOM     31  N   UNL     1       1.838   2.355  18.495  0.00  0.00    +0.000 NA
ATOM     32  N   UNL     1       1.671   3.328  19.378  0.00  0.00    +0.000 NA
ENDBRANCH  27  28
ENDBRANCH  26  27
ENDBRANCH   4  26
TORSDOF 10
ENDMDL
MODEL 3
REMARK VINA RESULT:      -6.4      1.058      1.302
REMARK  Name = 
REMARK  14 active torsions:
REMARK  status: ('A' for Active; 'I' for Inactive)
REMARK    1  A    between atoms: C_1  and  C_2
REMARK    2  A    between atoms: C_2  and  C_3
REMARK    3  A    between atoms: C_2  and  C_4
REMARK    4  A    between atoms: C_4  and  O_6
REMARK    5  A    between atoms: O_6  and  C_7
REMARK    6  A    between atoms: C_7  and  C_8
REMARK    7  A    between atoms: C_8  and  N_9
REMARK    8  A    between atoms: N_9  and  C_15
REMARK    9  A    between atoms: C_10  and  C_12
REMARK   10  A    between atoms: C_12  and  C_13
REMARK   11  A    between atoms: C_12  and  C_14
REMARK   12  A    between atoms: N_23  and  C_24
REMARK   13  A    between atoms: C_24  and  C_25
REMARK   14  A    between atoms: C_25  and  N_26
REMARK                            x       y       z     vdW  Elec       q    Type
REMARK                         _______ _______ _______ _____ _____    ______ ____
ROOT
ATOM      1  C   UNL     1       0.466  10.475  19.632  0.00  0.00    +0.000 C 
ATOM      2  C   UNL     1       1.457  10.359  18.439  0.00  0.00    +0.000 C 
ATOM      3  C   UNL     1       1.744   8.930  17.991  0.00  0.00    +0.000 C 
ATOM      4  N   UNL     1       2.272   8.116  19.086  0.00  0.00    +0.000 NA
ATOM      5  C   UNL     1       1.365   8.116  20.244  0.00  0.00    +0.000 C 
ATOM      6  C   UNL     1       1.029   9.532  20.730  0.00  0.00    +0.000 C 
ENDROOT
BRANCH   1   7
ATOM      7  N   UNL     1       0.342  11.953  20.096  0.00  0.00    +0.000 N 
ATOM      8  C   UNL     1      -0.688  12.441  20.928  0.00  0.00    +0.000 C 
ATOM      9  O   UNL     1      -1.626  11.747  21.327  0.00  0.00    +0.000 OA
BRANCH   7  10
ATOM     10  C   UNL     1       1.387  12.840  19.695  0.00  0.00    +0.000 A 
ATOM     11  C   UNL     1       2.390  13.167  20.614  0.00  0.00    +0.000 A 
ATOM     12  C   UNL     1       3.366  14.109  20.294  0.00  0.00    +0.000 A 
ATOM     13  C   UNL     1       3.317  14.768  19.068  0.00  0.00    +0.000 A 
ATOM     14  C   UNL     1       2.300  14.476  18.159  0.00  0.00    +0.000 A 
ATOM     15  C   UNL     1       1.339  13.507  18.466  0.00  0.00    +0.000 A 
ENDBRANCH   7  10
BRANCH   8  16
ATOM     16  C   UNL     1      -0.659  13.930  21.348  0.00  0.00    +0.000 C 
ATOM     17  C   UNL     1      -1.772  14.688  20.627  0.00  0.00    +0.000 C 
ATOM     18  C   UNL     1      -0.814  14.082  22.863  0.00  0.00    +0.000 C 
ENDBRANCH   8  16
ENDBRANCH   1   7
BRANCH   1  19
ATOM     19  C   UNL     1      -0.918   9.956  19.130  0.00  0.00    +0.000 C 
BRANCH  19  20
ATOM     20  O   UNL     1      -1.337  10.594  17.918  0.00  0.00    +0.000 OA
BRANCH  20  21
ATOM     21  C   UNL     1      -2.540  10.182  17.430  0.00  0.00    +0.000 C 
ATOM     22  O   UNL     1      -3.232   9.300  17.923  0.00  0.00    +0.000 OA
BRANCH  21  24
ATOM     23  C   UNL     1      -2.861  10.232  14.945  0.00  0.00    +0.000 C 
ATOM     24  C   UNL     1      -2.954  11.029  16.241  0.00  0.00    +0.000 C 
ATOM     25  C   UNL     1      -4.373  11.558  16.443  0.00  0.00    +0.000 C 
ENDBRANCH  21  24
ENDBRANCH  20  21
ENDBRANCH  19  20
ENDBRANCH   1  19
BRANCH   4  26
ATOM     26  C   UNL     1       2.549   6.725  18.652  0.00  0.00    +0.000 C 
BRANCH  26  27
ATOM     27  C   UNL     1       2.921   5.780  19.800  0.00  0.00    +0.000 C 
BRANCH  27  28
ATOM     28  N   UNL     1       2.133   4.567  19.761  0.00  0.00    +0.000 N 
ATOM     29  N   UNL     1       1.515   4.160  18.634  0.00  0.00    +0.000 NA
ATOM     30  C   UNL     1       1.041   2.988  19.062  0.00  0.00    +0.000 A 
ATOM     31  N   UNL     1       1.349   2.703  20.357  0.00  0.00    +0.000 NA
ATOM     32  N   UNL     1       2.060   3.729  20.799  0.00  0.00    +0.000 NA
ENDBRANCH  27  28
ENDBRANCH  26  27
ENDBRANCH   4  26
TORSDOF 10
ENDMDL
MODEL 4
REMARK VINA RESULT:      -6.4      4.409      8.989
REMARK  Name = 
REMARK  14 active torsions:
REMARK  status: ('A' for Active; 'I' for Inactive)
REMARK    1  A    between atoms: C_1  and  C_2
REMARK    2  A    between atoms: C_2  and  C_3
REMARK    3  A    between atoms: C_2  and  C_4
REMARK    4  A    between atoms: C_4  and  O_6
REMARK    5  A    between atoms: O_6  and  C_7
REMARK    6  A    between atoms: C_7  and  C_8
REMARK    7  A    between atoms: C_8  and  N_9
REMARK    8  A    between atoms: N_9  and  C_15
REMARK    9  A    between atoms: C_10  and  C_12
REMARK   10  A    between atoms: C_12  and  C_13
REMARK   11  A    between atoms: C_12  and  C_14
REMARK   12  A    between atoms: N_23  and  C_24
REMARK   13  A    between atoms: C_24  and  C_25
REMARK   14  A    between atoms: C_25  and  N_26
REMARK                            x       y       z     vdW  Elec       q    Type
REMARK                         _______ _______ _______ _____ _____    ______ ____
ROOT
ATOM      1  C   UNL     1       3.655   5.892  17.883  0.00  0.00    +0.000 C 
ATOM      2  C   UNL     1       3.956   5.865  19.408  0.00  0.00    +0.000 C 
ATOM      3  C   UNL     1       2.775   6.249  20.293  0.00  0.00    +0.000 C 
ATOM      4  N   UNL     1       2.266   7.580  19.966  0.00  0.00    +0.000 NA
ATOM      5  C   UNL     1       1.894   7.682  18.546  0.00  0.00    +0.000 C 
ATOM      6  C   UNL     1       3.042   7.292  17.606  0.00  0.00    +0.000 C 
ENDROOT
BRANCH   1   7
ATOM      7  N   UNL     1       4.949   5.616  17.066  0.00  0.00    +0.000 N 
ATOM      8  C   UNL     1       4.993   4.856  15.879  0.00  0.00    +0.000 C 
ATOM      9  O   UNL     1       4.009   4.288  15.398  0.00  0.00    +0.000 OA
BRANCH   7  10
ATOM     10  C   UNL     1       6.146   6.238  17.535  0.00  0.00    +0.000 A 
ATOM     11  C   UNL     1       6.850   5.646  18.590  0.00  0.00    +0.000 A 
ATOM     12  C   UNL     1       7.963   6.278  19.143  0.00  0.00    +0.000 A 
ATOM     13  C   UNL     1       8.351   7.531  18.677  0.00  0.00    +0.000 A 
ATOM     14  C   UNL     1       7.634   8.146  17.649  0.00  0.00    +0.000 A 
ATOM     15  C   UNL     1       6.537   7.499  17.072  0.00  0.00    +0.000 A 
ENDBRANCH   7  10
BRANCH   8  16
ATOM     16  C   UNL     1       6.347   4.702  15.146  0.00  0.00    +0.000 C 
ATOM     17  C   UNL     1       7.316   3.910  16.021  0.00  0.00    +0.000 C 
ATOM     18  C   UNL     1       6.170   4.007  13.794  0.00  0.00    +0.000 C 
ENDBRANCH   8  16
ENDBRANCH   1   7
BRANCH   1  19
ATOM     19  C   UNL     1       2.601   4.775  17.603  0.00  0.00    +0.000 C 
BRANCH  19  20
ATOM     20  O   UNL     1       2.897   3.555  18.293  0.00  0.00    +0.000 OA
BRANCH  20  21
ATOM     21  C   UNL     1       1.817   2.897  18.800  0.00  0.00    +0.000 C 
ATOM     22  O   UNL     1       0.754   2.739  18.214  0.00  0.00    +0.000 OA
BRANCH  21  24
ATOM     23  C   UNL     1       3.626   2.438  20.472  0.00  0.00    +0.000 C 
ATOM     24  C   UNL     1       2.141   2.304  20.158  0.00  0.00    +0.000 C 
ATOM     25  C   UNL     1       1.302   2.984  21.240  0.00  0.00    +0.000 C 
ENDBRANCH  21  24
ENDBRANCH  20  21
ENDBRANCH  19  20
ENDBRANCH   1  19
BRANCH   4  26
ATOM     26  C   UNL     1       1.115   7.954  20.824  0.00  0.00    +0.000 C 
BRANCH  26  27
ATOM     27  C   UNL     1       1.494   8.825  22.026  0.00  0.00    +0.000 C 
BRANCH  27  28
ATOM     28  N   UNL     1       0.506   9.854  22.265  0.00  0.00    +0.000 N 
ATOM     29  N   UNL     1       0.029  10.624  21.266  0.00  0.00    +0.000 NA
ATOM     30  C   UNL     1      -0.898  11.304  21.945  0.00  0.00    +0.000 A 
ATOM     31  N   UNL     1      -0.979  10.971  23.262  0.00  0.00    +0.000 NA
ATOM     32  N   UNL     1      -0.070  10.028  23.459  0.00  0.00    +0.000 NA
ENDBRANCH  27  28
ENDBRANCH  26  27
ENDBRANCH   4  26
TORSDOF 10
ENDMDL
MODEL 5
REMARK VINA RESULT:      -6.4      1.048      1.512
REMARK  Name = 
REMARK  14 active torsions:
REMARK  status: ('A' for Active; 'I' for Inactive)
REMARK    1  A    between atoms: C_1  and  C_2
REMARK    2  A    between atoms: C_2  and  C_3
REMARK    3  A    between atoms: C_2  and  C_4
REMARK    4  A    between atoms: C_4  and  O_6
REMARK    5  A    between atoms: O_6  and  C_7
REMARK    6  A    between atoms: C_7  and  C_8
REMARK    7  A    between atoms: C_8  and  N_9
REMARK    8  A    between atoms: N_9  and  C_15
REMARK    9  A    between atoms: C_10  and  C_12
REMARK   10  A    between atoms: C_12  and  C_13
REMARK   11  A    between atoms: C_12  and  C_14
REMARK   12  A    between atoms: N_23  and  C_24
REMARK   13  A    between atoms: C_24  and  C_25
REMARK   14  A    between atoms: C_25  and  N_26
REMARK                            x       y       z     vdW  Elec       q    Type
REMARK                         _______ _______ _______ _____ _____    ______ ____
ROOT
ATOM      1  C   UNL     1       0.393  10.595  19.818  0.00  0.00    +0.000 C 
ATOM      2  C   UNL     1       1.370  10.554  18.609  0.00  0.00    +0.000 C 
ATOM      3  C   UNL     1       1.659   9.154  18.076  0.00  0.00    +0.000 C 
ATOM      4  N   UNL     1       2.205   8.283  19.116  0.00  0.00    +0.000 NA
ATOM      5  C   UNL     1       1.313   8.211  20.283  0.00  0.00    +0.000 C 
ATOM      6  C   UNL     1       0.974   9.594  20.853  0.00  0.00    +0.000 C 
ENDROOT
BRANCH   1   7
ATOM      7  N   UNL     1       0.267  12.043  20.368  0.00  0.00    +0.000 N 
ATOM      8  C   UNL     1      -0.688  12.450  21.324  0.00  0.00    +0.000 C 
ATOM      9  O   UNL     1      -1.556  11.702  21.779  0.00  0.00    +0.000 OA
BRANCH   7  10
ATOM     10  C   UNL     1       1.234  12.989  19.909  0.00  0.00    +0.000 A 
ATOM     11  C   UNL     1       2.370  13.230  20.691  0.00  0.00    +0.000 A 
ATOM     12  C   UNL     1       3.282  14.220  20.329  0.00  0.00    +0.000 A 
ATOM     13  C   UNL     1       3.040  15.010  19.208  0.00  0.00    +0.000 A 
ATOM     14  C   UNL     1       1.892  14.801  18.442  0.00  0.00    +0.000 A 
ATOM     15  C   UNL     1       0.992  13.787  18.786  0.00  0.00    +0.000 A 
ENDBRANCH   7  10
BRANCH   8  16
ATOM     16  C   UNL     1      -0.667  13.918  21.814  0.00  0.00    +0.000 C 
ATOM     17  C   UNL     1      -1.679  14.739  21.018  0.00  0.00    +0.000 C 
ATOM     18  C   UNL     1      -0.977  14.007  23.310  0.00  0.00    +0.000 C 
ENDBRANCH   8  16
ENDBRANCH   1   7
BRANCH   1  19
ATOM     19  C   UNL     1      -0.995  10.098  19.304  0.00  0.00    +0.000 C 
BRANCH  19  20
ATOM     20  O   UNL     1      -1.476  10.864  18.195  0.00  0.00    +0.000 OA
BRANCH  20  21
ATOM     21  C   UNL     1      -2.794  11.203  18.251  0.00  0.00    +0.000 C 
ATOM     22  O   UNL     1      -3.271  12.040  19.006  0.00  0.00    +0.000 OA
BRANCH  21  24
ATOM     23  C   UNL     1      -4.688  11.350  16.616  0.00  0.00    +0.000 C 
ATOM     24  C   UNL     1      -3.582  10.468  17.183  0.00  0.00    +0.000 C 
ATOM     25  C   UNL     1      -2.646  10.000  16.069  0.00  0.00    +0.000 C 
ENDBRANCH  21  24
ENDBRANCH  20  21
ENDBRANCH  19  20
ENDBRANCH   1  19
BRANCH   4  26
ATOM     26  C   UNL     1       2.484   6.920  18.600  0.00  0.00    +0.000 C 
BRANCH  26  27
ATOM     27  C   UNL     1       3.056   5.964  19.651  0.00  0.00    +0.000 C 
BRANCH  27  28
ATOM     28  N   UNL     1       2.305   4.729  19.706  0.00  0.00    +0.000 N 
ATOM     29  N   UNL     1       2.716   3.621  19.055  0.00  0.00    +0.000 NA
ATOM     30  C   UNL     1       1.793   2.762  19.494  0.00  0.00    +0.000 A 
ATOM     31  N   UNL     1       0.887   3.308  20.350  0.00  0.00    +0.000 NA
ATOM     32  N   UNL     1       1.230   4.580  20.485  0.00  0.00    +0.000 NA
ENDBRANCH  27  28
ENDBRANCH  26  27
ENDBRANCH   4  26
TORSDOF 10
ENDMDL
MODEL 6
REMARK VINA RESULT:      -6.3      1.589      3.196
REMARK  Name = 
REMARK  14 active torsions:
REMARK  status: ('A' for Active; 'I' for Inactive)
REMARK    1  A    between atoms: C_1  and  C_2
REMARK    2  A    between atoms: C_2  and  C_3
REMARK    3  A    between atoms: C_2  and  C_4
REMARK    4  A    between atoms: C_4  and  O_6
REMARK    5  A    between atoms: O_6  and  C_7
REMARK    6  A    between atoms: C_7  and  C_8
REMARK    7  A    between atoms: C_8  and  N_9
REMARK    8  A    between atoms: N_9  and  C_15
REMARK    9  A    between atoms: C_10  and  C_12
REMARK   10  A    between atoms: C_12  and  C_13
REMARK   11  A    between atoms: C_12  and  C_14
REMARK   12  A    between atoms: N_23  and  C_24
REMARK   13  A    between atoms: C_24  and  C_25
REMARK   14  A    between atoms: C_25  and  N_26
REMARK                            x       y       z     vdW  Elec       q    Type
REMARK                         _______ _______ _______ _____ _____    ______ ____
ROOT
ATOM      1  C   UNL     1       0.452  10.292  19.647  0.00  0.00    +0.000 C 
ATOM      2  C   UNL     1       1.443  10.372  18.451  0.00  0.00    +0.000 C 
ATOM      3  C   UNL     1       1.826   9.021  17.854  0.00  0.00    +0.000 C 
ATOM      4  N   UNL     1       2.414   8.136  18.858  0.00  0.00    +0.000 NA
ATOM      5  C   UNL     1       1.515   7.950  20.008  0.00  0.00    +0.000 C 
ATOM      6  C   UNL     1       1.084   9.280  20.640  0.00  0.00    +0.000 C 
ENDROOT
BRANCH   1   7
ATOM      7  N   UNL     1       0.229  11.701  20.265  0.00  0.00    +0.000 N 
ATOM      8  C   UNL     1       1.042  12.823  20.001  0.00  0.00    +0.000 C 
ATOM      9  O   UNL     1       2.049  12.782  19.289  0.00  0.00    +0.000 OA
BRANCH   7  10
ATOM     10  C   UNL     1      -0.919  11.859  21.100  0.00  0.00    +0.000 A 
ATOM     11  C   UNL     1      -2.031  12.548  20.602  0.00  0.00    +0.000 A 
ATOM     12  C   UNL     1      -3.127  12.813  21.422  0.00  0.00    +0.000 A 
ATOM     13  C   UNL     1      -3.098  12.433  22.761  0.00  0.00    +0.000 A 
ATOM     14  C   UNL     1      -1.980  11.777  23.277  0.00  0.00    +0.000 A 
ATOM     15  C   UNL     1      -0.892  11.482  22.448  0.00  0.00    +0.000 A 
ENDBRANCH   7  10
BRANCH   8  16
ATOM     16  C   UNL     1       0.673  14.177  20.653  0.00  0.00    +0.000 C 
ATOM     17  C   UNL     1       1.795  14.616  21.593  0.00  0.00    +0.000 C 
ATOM     18  C   UNL     1       0.422  15.253  19.594  0.00  0.00    +0.000 C 
ENDBRANCH   8  16
ENDBRANCH   1   7
BRANCH   1  19
ATOM     19  C   UNL     1      -0.895   9.736  19.090  0.00  0.00    +0.000 C 
BRANCH  19  20
ATOM     20  O   UNL     1      -1.027   9.927  17.677  0.00  0.00    +0.000 OA
BRANCH  20  21
ATOM     21  C   UNL     1      -1.929  10.875  17.300  0.00  0.00    +0.000 C 
ATOM     22  O   UNL     1      -1.750  12.083  17.379  0.00  0.00    +0.000 OA
BRANCH  21  24
ATOM     23  C   UNL     1      -4.415  11.021  17.016  0.00  0.00    +0.000 C 
ATOM     24  C   UNL     1      -3.155  10.231  16.681  0.00  0.00    +0.000 C 
ATOM     25  C   UNL     1      -2.980  10.120  15.166  0.00  0.00    +0.000 C 
ENDBRANCH  21  24
ENDBRANCH  20  21
ENDBRANCH  19  20
ENDBRANCH   1  19
BRANCH   4  26
ATOM     26  C   UNL     1       2.784   6.820  18.281  0.00  0.00    +0.000 C 
BRANCH  26  27
ATOM     27  C   UNL     1       2.711   5.661  19.281  0.00  0.00    +0.000 C 
BRANCH  27  28
ATOM     28  N   UNL     1       2.609   4.386  18.605  0.00  0.00    +0.000 N 
ATOM     29  N   UNL     1       3.695   3.626  18.357  0.00  0.00    +0.000 NA
ATOM     30  C   UNL     1       3.090   2.551  17.847  0.00  0.00    +0.000 A 
ATOM     31  N   UNL     1       1.734   2.651  17.788  0.00  0.00    +0.000 NA
ATOM     32  N   UNL     1       1.432   3.840  18.285  0.00  0.00    +0.000 NA
ENDBRANCH  27  28
ENDBRANCH  26  27
ENDBRANCH   4  26
TORSDOF 10
ENDMDL
MODEL 7
REMARK VINA RESULT:      -6.3      1.023      1.260
REMARK  Name = 
REMARK  14 active torsions:
REMARK  status: ('A' for Active; 'I' for Inactive)
REMARK    1  A    between atoms: C_1  and  C_2
REMARK    2  A    between atoms: C_2  and  C_3
REMARK    3  A    between atoms: C_2  and  C_4
REMARK    4  A    between atoms: C_4  and  O_6
REMARK    5  A    between atoms: O_6  and  C_7
REMARK    6  A    between atoms: C_7  and  C_8
REMARK    7  A    between atoms: C_8  and  N_9
REMARK    8  A    between atoms: N_9  and  C_15
REMARK    9  A    between atoms: C_10  and  C_12
REMARK   10  A    between atoms: C_12  and  C_13
REMARK   11  A    between atoms: C_12  and  C_14
REMARK   12  A    between atoms: N_23  and  C_24
REMARK   13  A    between atoms: C_24  and  C_25
REMARK   14  A    between atoms: C_25  and  N_26
REMARK                            x       y       z     vdW  Elec       q    Type
REMARK                         _______ _______ _______ _____ _____    ______ ____
ROOT
ATOM      1  C   UNL     1       0.359  10.742  19.716  0.00  0.00    +0.000 C 
ATOM      2  C   UNL     1       1.383  10.804  18.547  0.00  0.00    +0.000 C 
ATOM      3  C   UNL     1       1.722   9.451  17.930  0.00  0.00    +0.000 C 
ATOM      4  N   UNL     1       2.245   8.518  18.928  0.00  0.00    +0.000 NA
ATOM      5  C   UNL     1       1.309   8.348  20.051  0.00  0.00    +0.000 C 
ATOM      6  C   UNL     1       0.920   9.681  20.702  0.00  0.00    +0.000 C 
ENDROOT
BRANCH   1   7
ATOM      7  N   UNL     1       0.180  12.145  20.360  0.00  0.00    +0.000 N 
ATOM      8  C   UNL     1      -0.768  12.446  21.360  0.00  0.00    +0.000 C 
ATOM      9  O   UNL     1      -1.590  11.631  21.786  0.00  0.00    +0.000 OA
BRANCH   7  10
ATOM     10  C   UNL     1       1.092  13.162  19.942  0.00  0.00    +0.000 A 
ATOM     11  C   UNL     1       2.271  13.358  20.671  0.00  0.00    +0.000 A 
ATOM     12  C   UNL     1       3.133  14.408  20.356  0.00  0.00    +0.000 A 
ATOM     13  C   UNL     1       2.798  15.299  19.341  0.00  0.00    +0.000 A 
ATOM     14  C   UNL     1       1.607  15.133  18.631  0.00  0.00    +0.000 A 
ATOM     15  C   UNL     1       0.757  14.062  18.924  0.00  0.00    +0.000 A 
ENDBRANCH   7  10
BRANCH   8  16
ATOM     16  C   UNL     1      -0.802  13.879  21.943  0.00  0.00    +0.000 C 
ATOM     17  C   UNL     1      -1.898  14.689  21.252  0.00  0.00    +0.000 C 
ATOM     18  C   UNL     1      -1.037  13.858  23.455  0.00  0.00    +0.000 C 
ENDBRANCH   8  16
ENDBRANCH   1   7
BRANCH   1  19
ATOM     19  C   UNL     1      -0.997  10.257  19.113  0.00  0.00    +0.000 C 
BRANCH  19  20
ATOM     20  O   UNL     1      -1.514  11.159  18.128  0.00  0.00    +0.000 OA
BRANCH  20  21
ATOM     21  C   UNL     1      -2.847  11.421  18.223  0.00  0.00    +0.000 C 
ATOM     22  O   UNL     1      -3.366  12.110  19.092  0.00  0.00    +0.000 OA
BRANCH  21  24
ATOM     23  C   UNL     1      -4.905  11.557  16.799  0.00  0.00    +0.000 C 
ATOM     24  C   UNL     1      -3.596  10.818  17.049  0.00  0.00    +0.000 C 
ATOM     25  C   UNL     1      -2.719  10.843  15.798  0.00  0.00    +0.000 C 
ENDBRANCH  21  24
ENDBRANCH  20  21
ENDBRANCH  19  20
ENDBRANCH   1  19
BRANCH   4  26
ATOM     26  C   UNL     1       2.572   7.200  18.331  0.00  0.00    +0.000 C 
BRANCH  26  27
ATOM     27  C   UNL     1       2.524   6.038  19.328  0.00  0.00    +0.000 C 
BRANCH  27  28
ATOM     28  N   UNL     1       2.740   4.768  18.668  0.00  0.00    +0.000 N 
ATOM     29  N   UNL     1       1.727   4.089  18.091  0.00  0.00    +0.000 NA
ATOM     30  C   UNL     1       2.425   3.091  17.545  0.00  0.00    +0.000 A 
ATOM     31  N   UNL     1       3.765   3.158  17.773  0.00  0.00    +0.000 NA
ATOM     32  N   UNL     1       3.959   4.250  18.497  0.00  0.00    +0.000 NA
ENDBRANCH  27  28
ENDBRANCH  26  27
ENDBRANCH   4  26
TORSDOF 10
ENDMDL
MODEL 8
REMARK VINA RESULT:      -6.3      1.343      1.428
REMARK  Name = 
REMARK  14 active torsions:
REMARK  status: ('A' for Active; 'I' for Inactive)
REMARK    1  A    between atoms: C_1  and  C_2
REMARK    2  A    between atoms: C_2  and  C_3
REMARK    3  A    between atoms: C_2  and  C_4
REMARK    4  A    between atoms: C_4  and  O_6
REMARK    5  A    between atoms: O_6  and  C_7
REMARK    6  A    between atoms: C_7  and  C_8
REMARK    7  A    between atoms: C_8  and  N_9
REMARK    8  A    between atoms: N_9  and  C_15
REMARK    9  A    between atoms: C_10  and  C_12
REMARK   10  A    between atoms: C_12  and  C_13
REMARK   11  A    between atoms: C_12  and  C_14
REMARK   12  A    between atoms: N_23  and  C_24
REMARK   13  A    between atoms: C_24  and  C_25
REMARK   14  A    between atoms: C_25  and  N_26
REMARK                            x       y       z     vdW  Elec       q    Type
REMARK                         _______ _______ _______ _____ _____    ______ ____
ROOT
ATOM      1  C   UNL     1       0.278  10.618  20.132  0.00  0.00    +0.000 C 
ATOM      2  C   UNL     1       1.352  10.513  19.013  0.00  0.00    +0.000 C 
ATOM      3  C   UNL     1       1.674   9.088  18.575  0.00  0.00    +0.000 C 
ATOM      4  N   UNL     1       2.123   8.267  19.698  0.00  0.00    +0.000 NA
ATOM      5  C   UNL     1       1.135   8.255  20.788  0.00  0.00    +0.000 C 
ATOM      6  C   UNL     1       0.762   9.666  21.260  0.00  0.00    +0.000 C 
ENDROOT
BRANCH   1   7
ATOM      7  N   UNL     1       0.118  12.092  20.599  0.00  0.00    +0.000 N 
ATOM      8  C   UNL     1      -0.854  12.532  21.522  0.00  0.00    +0.000 C 
ATOM      9  O   UNL     1      -1.711  11.793  22.012  0.00  0.00    +0.000 OA
BRANCH   7  10
ATOM     10  C   UNL     1       1.070  13.030  20.096  0.00  0.00    +0.000 A 
ATOM     11  C   UNL     1       2.225  13.291  20.843  0.00  0.00    +0.000 A 
ATOM     12  C   UNL     1       3.125  14.275  20.437  0.00  0.00    +0.000 A 
ATOM     13  C   UNL     1       2.851  15.040  19.306  0.00  0.00    +0.000 A 
ATOM     14  C   UNL     1       1.685  14.812  18.574  0.00  0.00    +0.000 A 
ATOM     15  C   UNL     1       0.797  13.803  18.962  0.00  0.00    +0.000 A 
ENDBRANCH   7  10
BRANCH   8  16
ATOM     16  C   UNL     1      -0.867  14.025  21.930  0.00  0.00    +0.000 C 
ATOM     17  C   UNL     1      -1.977  14.753  21.175  0.00  0.00    +0.000 C 
ATOM     18  C   UNL     1      -1.063  14.186  23.439  0.00  0.00    +0.000 C 
ENDBRANCH   8  16
ENDBRANCH   1   7
BRANCH   1  19
ATOM     19  C   UNL     1      -1.066  10.102  19.528  0.00  0.00    +0.000 C 
BRANCH  19  20
ATOM     20  O   UNL     1      -1.638  11.024  18.594  0.00  0.00    +0.000 OA
BRANCH  20  21
ATOM     21  C   UNL     1      -1.965  10.495  17.382  0.00  0.00    +0.000 C 
ATOM     22  O   UNL     1      -1.437   9.512  16.880  0.00  0.00    +0.000 OA
BRANCH  21  24
ATOM     23  C   UNL     1      -3.382  10.794  15.336  0.00  0.00    +0.000 C 
ATOM     24  C   UNL     1      -3.140  11.238  16.774  0.00  0.00    +0.000 C 
ATOM     25  C   UNL     1      -4.394  11.017  17.620  0.00  0.00    +0.000 C 
ENDBRANCH  21  24
ENDBRANCH  20  21
ENDBRANCH  19  20
ENDBRANCH   1  19
BRANCH   4  26
ATOM     26  C   UNL     1       2.433   6.879  19.274  0.00  0.00    +0.000 C 
BRANCH  26  27
ATOM     27  C   UNL     1       1.907   5.805  20.233  0.00  0.00    +0.000 C 
BRANCH  27  28
ATOM     28  N   UNL     1       1.615   4.573  19.535  0.00  0.00    +0.000 N 
ATOM     29  N   UNL     1       1.185   3.473  20.188  0.00  0.00    +0.000 NA
ATOM     30  C   UNL     1       0.954   2.680  19.140  0.00  0.00    +0.000 A 
ATOM     31  N   UNL     1       1.223   3.256  17.936  0.00  0.00    +0.000 NA
ATOM     32  N   UNL     1       1.645   4.482  18.202  0.00  0.00    +0.000 NA
ENDBRANCH  27  28
ENDBRANCH  26  27
ENDBRANCH   4  26
TORSDOF 10
ENDMDL
MODEL 9
REMARK VINA RESULT:      -6.3      3.509      8.984
REMARK  Name = 
REMARK  14 active torsions:
REMARK  status: ('A' for Active; 'I' for Inactive)
REMARK    1  A    between atoms: C_1  and  C_2
REMARK    2  A    between atoms: C_2  and  C_3
REMARK    3  A    between atoms: C_2  and  C_4
REMARK    4  A    between atoms: C_4  and  O_6
REMARK    5  A    between atoms: O_6  and  C_7
REMARK    6  A    between atoms: C_7  and  C_8
REMARK    7  A    between atoms: C_8  and  N_9
REMARK    8  A    between atoms: N_9  and  C_15
REMARK    9  A    between atoms: C_10  and  C_12
REMARK   10  A    between atoms: C_12  and  C_13
REMARK   11  A    between atoms: C_12  and  C_14
REMARK   12  A    between atoms: N_23  and  C_24
REMARK   13  A    between atoms: C_24  and  C_25
REMARK   14  A    between atoms: C_25  and  N_26
REMARK                            x       y       z     vdW  Elec       q    Type
REMARK                         _______ _______ _______ _____ _____    ______ ____
ROOT
ATOM      1  C   UNL     1       2.932   6.120  18.295  0.00  0.00    +0.000 C 
ATOM      2  C   UNL     1       3.133   6.337  19.822  0.00  0.00    +0.000 C 
ATOM      3  C   UNL     1       2.017   7.124  20.502  0.00  0.00    +0.000 C 
ATOM      4  N   UNL     1       1.833   8.438  19.889  0.00  0.00    +0.000 NA
ATOM      5  C   UNL     1       1.573   8.329  18.445  0.00  0.00    +0.000 C 
ATOM      6  C   UNL     1       2.659   7.532  17.709  0.00  0.00    +0.000 C 
ENDROOT
BRANCH   1   7
ATOM      7  N   UNL     1       4.177   5.428  17.673  0.00  0.00    +0.000 N 
ATOM      8  C   UNL     1       4.116   4.379  16.732  0.00  0.00    +0.000 C 
ATOM      9  O   UNL     1       3.060   3.869  16.349  0.00  0.00    +0.000 OA
BRANCH   7  10
ATOM     10  C   UNL     1       5.453   5.951  18.046  0.00  0.00    +0.000 A 
ATOM     11  C   UNL     1       6.008   6.988  17.288  0.00  0.00    +0.000 A 
ATOM     12  C   UNL     1       7.295   7.452  17.557  0.00  0.00    +0.000 A 
ATOM     13  C   UNL     1       8.055   6.848  18.556  0.00  0.00    +0.000 A 
ATOM     14  C   UNL     1       7.523   5.789  19.293  0.00  0.00    +0.000 A 
ATOM     15  C   UNL     1       6.221   5.344  19.046  0.00  0.00    +0.000 A 
ENDBRANCH   7  10
BRANCH   8  16
ATOM     16  C   UNL     1       5.440   3.815  16.163  0.00  0.00    +0.000 C 
ATOM     17  C   UNL     1       5.379   2.288  16.140  0.00  0.00    +0.000 C 
ATOM     18  C   UNL     1       5.713   4.352  14.757  0.00  0.00    +0.000 C 
ENDBRANCH   8  16
ENDBRANCH   1   7
BRANCH   1  19
ATOM     19  C   UNL     1       1.675   5.210  18.123  0.00  0.00    +0.000 C 
BRANCH  19  20
ATOM     20  O   UNL     1       1.351   4.488  19.316  0.00  0.00    +0.000 OA
BRANCH  20  21
ATOM     21  C   UNL     1       1.319   3.133  19.185  0.00  0.00    +0.000 C 
ATOM     22  O   UNL     1       0.725   2.528  18.302  0.00  0.00    +0.000 OA
BRANCH  21  24
ATOM     23  C   UNL     1       3.664   2.517  19.819  0.00  0.00    +0.000 C 
ATOM     24  C   UNL     1       2.197   2.473  20.231  0.00  0.00    +0.000 C 
ATOM     25  C   UNL     1       2.001   3.154  21.586  0.00  0.00    +0.000 C 
ENDBRANCH  21  24
ENDBRANCH  20  21
ENDBRANCH  19  20
ENDBRANCH   1  19
BRANCH   4  26
ATOM     26  C   UNL     1       0.746   9.204  20.548  0.00  0.00    +0.000 C 
BRANCH  26  27
ATOM     27  C   UNL     1       0.870  10.723  20.385  0.00  0.00    +0.000 C 
BRANCH  27  28
ATOM     28  N   UNL     1      -0.330  11.291  19.811  0.00  0.00    +0.000 N 
ATOM     29  N   UNL     1      -0.557  11.274  18.482  0.00  0.00    +0.000 NA
ATOM     30  C   UNL     1      -1.789  11.787  18.469  0.00  0.00    +0.000 A 
ATOM     31  N   UNL     1      -2.276  12.094  19.702  0.00  0.00    +0.000 NA
ATOM     32  N   UNL     1      -1.326  11.765  20.564  0.00  0.00    +0.000 NA
ENDBRANCH  27  28
ENDBRANCH  26  27
ENDBRANCH   4  26
TORSDOF 10
ENDMDL
