MODEL 1
REMARK VINA RESULT:      -6.1      0.000      0.000
REMARK  Name = 
REMARK  7 active torsions:
REMARK  status: ('A' for Active; 'I' for Inactive)
REMARK    1  A    between atoms: C_1  and  C_2
REMARK    2  A    between atoms: C_2  and  C_3
REMARK    3  A    between atoms: C_3  and  C_4
REMARK    4  A    between atoms: C_4  and  C_5
REMARK    5  A    between atoms: C_9  and  C_10
REMARK    6  A    between atoms: C_12  and  C_13
REMARK    7  A    between atoms: C_13  and  C_14
REMARK                            x       y       z     vdW  Elec       q    Type
REMARK                         _______ _______ _______ _____ _____    ______ ____
ROOT
ATOM      1  C   UNL     1       4.724   5.757  17.885  0.00  0.00    +0.000 C 
ATOM      2  C   UNL     1       4.671   4.676  16.762  0.00  0.00    +0.000 C 
ATOM      3  O   UNL     1       3.896   3.819  16.427  0.00  0.00    +0.000 OA
ATOM      4  N   UNL     1       5.849   5.130  16.221  0.00  0.00    +0.000 N 
ATOM      5  C   UNL     1       6.609   4.859  15.102  0.00  0.00    +0.000 C 
ATOM      6  C   UNL     1       6.098   3.819  14.133  0.00  0.00    +0.000 C 
ATOM      7  O   UNL     1       7.658   5.465  14.876  0.00  0.00    +0.000 OA
ATOM      8  C   UNL     1       6.094   6.168  17.248  0.00  0.00    +0.000 C 
ENDROOT
BRANCH   8   9
ATOM      9  C   UNL     1       7.396   5.985  18.091  0.00  0.00    +0.000 C 
ATOM     10  C   UNL     1       8.138   7.224  18.544  0.00  0.00    +0.000 C 
ATOM     11  O   UNL     1       7.824   4.877  18.442  0.00  0.00    +0.000 OA
ENDBRANCH   8   9
BRANCH   1  12
ATOM     12  C   UNL     1       4.662   5.231  19.319  0.00  0.00    +0.000 C 
BRANCH  12  13
ATOM     13  C   UNL     1       3.222   5.200  19.848  0.00  0.00    +0.000 C 
BRANCH  13  15
ATOM     14  C   UNL     1       2.126   3.646  21.504  0.00  0.00    +0.000 C 
ATOM     15  C   UNL     1       2.767   3.765  20.130  0.00  0.00    +0.000 C 
ENDBRANCH  13  15
ENDBRANCH  12  13
ENDBRANCH   1  12
TORSDOF 4
ENDMDL
MODEL 2
REMARK VINA RESULT:      -6.1      2.643      5.421
REMARK  Name = 
REMARK  7 active torsions:
REMARK  status: ('A' for Active; 'I' for Inactive)
REMARK    1  A    between atoms: C_1  and  C_2
REMARK    2  A    between atoms: C_2  and  C_3
REMARK    3  A    between atoms: C_3  and  C_4
REMARK    4  A    between atoms: C_4  and  C_5
REMARK    5  A    between atoms: C_9  and  C_10
REMARK    6  A    between atoms: C_12  and  C_13
REMARK    7  A    between atoms: C_13  and  C_14
REMARK                            x       y       z     vdW  Elec       q    Type
REMARK                         _______ _______ _______ _____ _____    ______ ____
ROOT
ATOM      1  C   UNL     1       5.304   4.593  18.879  0.00  0.00    +0.000 C 
ATOM      2  C   UNL     1       4.577   3.433  19.628  0.00  0.00    +0.000 C 
ATOM      3  O   UNL     1       4.811   2.276  19.857  0.00  0.00    +0.000 OA
ATOM      4  N   UNL     1       3.562   4.273  20.015  0.00  0.00    +0.000 N 
ATOM      5  C   UNL     1       2.446   4.192  20.822  0.00  0.00    +0.000 C 
ATOM      6  C   UNL     1       2.180   2.888  21.536  0.00  0.00    +0.000 C 
ATOM      7  O   UNL     1       1.700   5.160  20.986  0.00  0.00    +0.000 OA
ATOM      8  C   UNL     1       4.075   5.466  19.303  0.00  0.00    +0.000 C 
ENDROOT
BRANCH   8   9
ATOM      9  C   UNL     1       3.142   6.036  18.188  0.00  0.00    +0.000 C 
ATOM     10  C   UNL     1       3.406   7.437  17.679  0.00  0.00    +0.000 C 
ATOM     11  O   UNL     1       2.227   5.380  17.671  0.00  0.00    +0.000 OA
ENDBRANCH   8   9
BRANCH   1  12
ATOM     12  C   UNL     1       5.606   4.344  17.401  0.00  0.00    +0.000 C 
BRANCH  12  13
ATOM     13  C   UNL     1       6.726   5.261  16.892  0.00  0.00    +0.000 C 
BRANCH  13  15
ATOM     14  C   UNL     1       7.641   7.449  17.749  0.00  0.00    +0.000 C 
ATOM     15  C   UNL     1       7.429   5.974  18.051  0.00  0.00    +0.000 C 
ENDBRANCH  13  15
ENDBRANCH  12  13
ENDBRANCH   1  12
TORSDOF 4
ENDMDL
MODEL 3
REMARK VINA RESULT:      -6.1      2.062      3.210
REMARK  Name = 
REMARK  7 active torsions:
REMARK  status: ('A' for Active; 'I' for Inactive)
REMARK    1  A    between atoms: C_1  and  C_2
REMARK    2  A    between atoms: C_2  and  C_3
REMARK    3  A    between atoms: C_3  and  C_4
REMARK    4  A    between atoms: C_4  and  C_5
REMARK    5  A    between atoms: C_9  and  C_10
REMARK    6  A    between atoms: C_12  and  C_13
REMARK    7  A    between atoms: C_13  and  C_14
REMARK                            x       y       z     vdW  Elec       q    Type
REMARK                         _______ _______ _______ _____ _____    ______ ____
ROOT
ATOM      1  C   UNL     1       3.486   5.668  19.313  0.00  0.00    +0.000 C 
ATOM      2  C   UNL     1       4.228   6.220  18.056  0.00  0.00    +0.000 C 
ATOM      3  O   UNL     1       4.011   7.068  17.231  0.00  0.00    +0.000 OA
ATOM      4  N   UNL     1       5.305   5.401  18.289  0.00  0.00    +0.000 N 
ATOM      5  C   UNL     1       6.561   5.217  17.749  0.00  0.00    +0.000 C 
ATOM      6  C   UNL     1       6.979   6.110  16.605  0.00  0.00    +0.000 C 
ATOM      7  O   UNL     1       7.337   4.373  18.201  0.00  0.00    +0.000 OA
ATOM      8  C   UNL     1       4.722   4.720  19.468  0.00  0.00    +0.000 C 
ENDROOT
BRANCH   8   9
ATOM      9  C   UNL     1       4.507   3.181  19.316  0.00  0.00    +0.000 C 
ATOM     10  C   UNL     1       3.890   2.666  18.033  0.00  0.00    +0.000 C 
ATOM     11  O   UNL     1       4.858   2.360  20.176  0.00  0.00    +0.000 OA
ENDBRANCH   8   9
BRANCH   1  12
ATOM     12  C   UNL     1       2.092   5.092  19.063  0.00  0.00    +0.000 C 
BRANCH  12  13
ATOM     13  C   UNL     1       1.351   4.817  20.378  0.00  0.00    +0.000 C 
BRANCH  13  15
ATOM     14  C   UNL     1       1.646   2.680  21.685  0.00  0.00    +0.000 C 
ATOM     15  C   UNL     1       0.963   3.340  20.497  0.00  0.00    +0.000 C 
ENDBRANCH  13  15
ENDBRANCH  12  13
ENDBRANCH   1  12
TORSDOF 4
ENDMDL
MODEL 4
REMARK VINA RESULT:      -6.0      1.953      5.400
REMARK  Name = 
REMARK  7 active torsions:
REMARK  status: ('A' for Active; 'I' for Inactive)
REMARK    1  A    between atoms: C_1  and  C_2
REMARK    2  A    between atoms: C_2  and  C_3
REMARK    3  A    between atoms: C_3  and  C_4
REMARK    4  A    between atoms: C_4  and  C_5
REMARK    5  A    between atoms: C_9  and  C_10
REMARK    6  A    between atoms: C_12  and  C_13
REMARK    7  A    between atoms: C_13  and  C_14
REMARK                            x       y       z     vdW  Elec       q    Type
REMARK                         _______ _______ _______ _____ _____    ______ ____
ROOT
ATOM      1  C   UNL     1       5.190   5.283  15.453  0.00  0.00    +0.000 C 
ATOM      2  C   UNL     1       6.533   5.422  16.236  0.00  0.00    +0.000 C 
ATOM      3  O   UNL     1       7.688   5.581  15.942  0.00  0.00    +0.000 OA
ATOM      4  N   UNL     1       5.876   5.370  17.441  0.00  0.00    +0.000 N 
ATOM      5  C   UNL     1       6.209   5.511  18.772  0.00  0.00    +0.000 C 
ATOM      6  C   UNL     1       7.647   5.825  19.113  0.00  0.00    +0.000 C 
ATOM      7  O   UNL     1       5.360   5.416  19.661  0.00  0.00    +0.000 OA
ATOM      8  C   UNL     1       4.526   5.164  16.866  0.00  0.00    +0.000 C 
ENDROOT
BRANCH   8   9
ATOM      9  C   UNL     1       3.830   3.822  17.255  0.00  0.00    +0.000 C 
ATOM     10  C   UNL     1       2.322   3.810  17.397  0.00  0.00    +0.000 C 
ATOM     11  O   UNL     1       4.447   2.758  17.408  0.00  0.00    +0.000 OA
ENDBRANCH   8   9
BRANCH   1  12
ATOM     12  C   UNL     1       5.115   4.123  14.461  0.00  0.00    +0.000 C 
BRANCH  12  13
ATOM     13  C   UNL     1       6.326   4.107  13.518  0.00  0.00    +0.000 C 
BRANCH  13  15
ATOM     14  C   UNL     1       4.607   3.385  11.820  0.00  0.00    +0.000 C 
ATOM     15  C   UNL     1       6.051   3.251  12.278  0.00  0.00    +0.000 C 
ENDBRANCH  13  15
ENDBRANCH  12  13
ENDBRANCH   1  12
TORSDOF 4
ENDMDL
MODEL 5
REMARK VINA RESULT:      -6.0      2.274      4.711
REMARK  Name = 
REMARK  7 active torsions:
REMARK  status: ('A' for Active; 'I' for Inactive)
REMARK    1  A    between atoms: C_1  and  C_2
REMARK    2  A    between atoms: C_2  and  C_3
REMARK    3  A    between atoms: C_3  and  C_4
REMARK    4  A    between atoms: C_4  and  C_5
REMARK    5  A    between atoms: C_9  and  C_10
REMARK    6  A    between atoms: C_12  and  C_13
REMARK    7  A    between atoms: C_13  and  C_14
REMARK                            x       y       z     vdW  Elec       q    Type
REMARK                         _______ _______ _______ _____ _____    ______ ____
ROOT
ATOM      1  C   UNL     1       4.146   4.782  17.115  0.00  0.00    +0.000 C 
ATOM      2  C   UNL     1       3.090   4.484  18.224  0.00  0.00    +0.000 C 
ATOM      3  O   UNL     1       1.935   4.764  18.410  0.00  0.00    +0.000 OA
ATOM      4  N   UNL     1       3.977   3.685  18.902  0.00  0.00    +0.000 N 
ATOM      5  C   UNL     1       3.941   2.861  20.008  0.00  0.00    +0.000 C 
ATOM      6  C   UNL     1       2.625   2.703  20.733  0.00  0.00    +0.000 C 
ATOM      7  O   UNL     1       4.940   2.243  20.381  0.00  0.00    +0.000 OA
ATOM      8  C   UNL     1       5.116   3.912  17.984  0.00  0.00    +0.000 C 
ENDROOT
BRANCH   8   9
ATOM      9  C   UNL     1       6.366   4.597  18.621  0.00  0.00    +0.000 C 
ATOM     10  C   UNL     1       7.664   4.590  17.841  0.00  0.00    +0.000 C 
ATOM     11  O   UNL     1       6.334   5.182  19.713  0.00  0.00    +0.000 OA
ENDBRANCH   8   9
BRANCH   1  12
ATOM     12  C   UNL     1       4.446   6.259  16.861  0.00  0.00    +0.000 C 
BRANCH  12  13
ATOM     13  C   UNL     1       5.316   6.452  15.611  0.00  0.00    +0.000 C 
BRANCH  13  15
ATOM     14  C   UNL     1       6.857   4.897  14.360  0.00  0.00    +0.000 C 
ATOM     15  C   UNL     1       5.426   5.153  14.807  0.00  0.00    +0.000 C 
ENDBRANCH  13  15
ENDBRANCH  12  13
ENDBRANCH   1  12
TORSDOF 4
ENDMDL
MODEL 6
REMARK VINA RESULT:      -6.0      2.239      3.506
REMARK  Name = 
REMARK  7 active torsions:
REMARK  status: ('A' for Active; 'I' for Inactive)
REMARK    1  A    between atoms: C_1  and  C_2
REMARK    2  A    between atoms: C_2  and  C_3
REMARK    3  A    between atoms: C_3  and  C_4
REMARK    4  A    between atoms: C_4  and  C_5
REMARK    5  A    between atoms: C_9  and  C_10
REMARK    6  A    between atoms: C_12  and  C_13
REMARK    7  A    between atoms: C_13  and  C_14
REMARK                            x       y       z     vdW  Elec       q    Type
REMARK                         _______ _______ _______ _____ _____    ______ ____
ROOT
ATOM      1  C   UNL     1       3.730   5.074  19.235  0.00  0.00    +0.000 C 
ATOM      2  C   UNL     1       3.976   6.046  18.040  0.00  0.00    +0.000 C 
ATOM      3  O   UNL     1       3.823   7.222  17.841  0.00  0.00    +0.000 OA
ATOM      4  N   UNL     1       4.527   5.037  17.288  0.00  0.00    +0.000 N 
ATOM      5  C   UNL     1       5.153   4.926  16.064  0.00  0.00    +0.000 C 
ATOM      6  C   UNL     1       5.359   6.186  15.256  0.00  0.00    +0.000 C 
ATOM      7  O   UNL     1       5.563   3.841  15.648  0.00  0.00    +0.000 OA
ATOM      8  C   UNL     1       4.308   3.968  18.289  0.00  0.00    +0.000 C 
ENDROOT
BRANCH   8   9
ATOM      9  C   UNL     1       3.369   2.806  17.836  0.00  0.00    +0.000 C 
ATOM     10  C   UNL     1       3.566   1.440  18.459  0.00  0.00    +0.000 C 
ATOM     11  O   UNL     1       2.444   2.960  17.026  0.00  0.00    +0.000 OA
ENDBRANCH   8   9
BRANCH   1  12
ATOM     12  C   UNL     1       2.290   4.988  19.739  0.00  0.00    +0.000 C 
BRANCH  12  13
ATOM     13  C   UNL     1       2.222   4.421  21.163  0.00  0.00    +0.000 C 
BRANCH  13  15
ATOM     14  C   UNL     1       0.538   2.985  19.955  0.00  0.00    +0.000 C 
ATOM     15  C   UNL     1       1.382   3.141  21.211  0.00  0.00    +0.000 C 
ENDBRANCH  13  15
ENDBRANCH  12  13
ENDBRANCH   1  12
TORSDOF 4
ENDMDL
MODEL 7
REMARK VINA RESULT:      -6.0      2.131      4.724
REMARK  Name = 
REMARK  7 active torsions:
REMARK  status: ('A' for Active; 'I' for Inactive)
REMARK    1  A    between atoms: C_1  and  C_2
REMARK    2  A    between atoms: C_2  and  C_3
REMARK    3  A    between atoms: C_3  and  C_4
REMARK    4  A    between atoms: C_4  and  C_5
REMARK    5  A    between atoms: C_9  and  C_10
REMARK    6  A    between atoms: C_12  and  C_13
REMARK    7  A    between atoms: C_13  and  C_14
REMARK                            x       y       z     vdW  Elec       q    Type
REMARK                         _______ _______ _______ _____ _____    ______ ____
ROOT
ATOM      1  C   UNL     1       5.684   5.159  18.842  0.00  0.00    +0.000 C 
ATOM      2  C   UNL     1       5.028   3.771  19.122  0.00  0.00    +0.000 C 
ATOM      3  O   UNL     1       5.228   2.863  19.885  0.00  0.00    +0.000 OA
ATOM      4  N   UNL     1       4.048   4.007  18.190  0.00  0.00    +0.000 N 
ATOM      5  C   UNL     1       2.899   3.375  17.762  0.00  0.00    +0.000 C 
ATOM      6  C   UNL     1       2.505   2.083  18.438  0.00  0.00    +0.000 C 
ATOM      7  O   UNL     1       2.192   3.860  16.876  0.00  0.00    +0.000 OA
ATOM      8  C   UNL     1       4.572   5.320  17.751  0.00  0.00    +0.000 C 
ENDROOT
BRANCH   8   9
ATOM      9  C   UNL     1       5.003   5.403  16.252  0.00  0.00    +0.000 C 
ATOM     10  C   UNL     1       5.412   4.125  15.551  0.00  0.00    +0.000 C 
ATOM     11  O   UNL     1       4.982   6.456  15.599  0.00  0.00    +0.000 OA
ENDBRANCH   8   9
BRANCH   1  12
ATOM     12  C   UNL     1       7.160   5.130  18.447  0.00  0.00    +0.000 C 
BRANCH  12  13
ATOM     13  C   UNL     1       7.854   6.462  18.760  0.00  0.00    +0.000 C 
BRANCH  13  15
ATOM     14  C   UNL     1       8.223   8.834  17.987  0.00  0.00    +0.000 C 
ATOM     15  C   UNL     1       7.657   7.470  17.624  0.00  0.00    +0.000 C 
ENDBRANCH  13  15
ENDBRANCH  12  13
ENDBRANCH   1  12
TORSDOF 4
ENDMDL
MODEL 8
REMARK VINA RESULT:      -5.9      2.193      3.488
REMARK  Name = 
REMARK  7 active torsions:
REMARK  status: ('A' for Active; 'I' for Inactive)
REMARK    1  A    between atoms: C_1  and  C_2
REMARK    2  A    between atoms: C_2  and  C_3
REMARK    3  A    between atoms: C_3  and  C_4
REMARK    4  A    between atoms: C_4  and  C_5
REMARK    5  A    between atoms: C_9  and  C_10
REMARK    6  A    between atoms: C_12  and  C_13
REMARK    7  A    between atoms: C_13  and  C_14
REMARK                            x       y       z     vdW  Elec       q    Type
REMARK                         _______ _______ _______ _____ _____    ______ ____
ROOT
ATOM      1  C   UNL     1       3.022   5.451  18.855  0.00  0.00    +0.000 C 
ATOM      2  C   UNL     1       3.989   6.348  18.020  0.00  0.00    +0.000 C 
ATOM      3  O   UNL     1       3.876   7.332  17.337  0.00  0.00    +0.000 OA
ATOM      4  N   UNL     1       5.076   5.617  18.430  0.00  0.00    +0.000 N 
ATOM      5  C   UNL     1       6.446   5.694  18.291  0.00  0.00    +0.000 C 
ATOM      6  C   UNL     1       7.017   6.861  17.520  0.00  0.00    +0.000 C 
ATOM      7  O   UNL     1       7.193   4.858  18.805  0.00  0.00    +0.000 OA
ATOM      8  C   UNL     1       4.304   4.630  19.219  0.00  0.00    +0.000 C 
ENDROOT
BRANCH   8   9
ATOM      9  C   UNL     1       4.408   3.150  18.730  0.00  0.00    +0.000 C 
ATOM     10  C   UNL     1       4.451   2.052  19.772  0.00  0.00    +0.000 C 
ATOM     11  O   UNL     1       4.413   2.832  17.533  0.00  0.00    +0.000 OA
ENDBRANCH   8   9
BRANCH   1  12
ATOM     12  C   UNL     1       1.879   4.800  18.076  0.00  0.00    +0.000 C 
BRANCH  12  13
ATOM     13  C   UNL     1       1.152   3.743  18.918  0.00  0.00    +0.000 C 
BRANCH  13  15
ATOM     14  C   UNL     1       1.324   3.031  21.331  0.00  0.00    +0.000 C 
ATOM     15  C   UNL     1       1.038   4.183  20.381  0.00  0.00    +0.000 C 
ENDBRANCH  13  15
ENDBRANCH  12  13
ENDBRANCH   1  12
TORSDOF 4
ENDMDL
MODEL 9
REMARK VINA RESULT:      -5.9      1.804      3.340
REMARK  Name = 
REMARK  7 active torsions:
REMARK  status: ('A' for Active; 'I' for Inactive)
REMARK    1  A    between atoms: C_1  and  C_2
REMARK    2  A    between atoms: C_2  and  C_3
REMARK    3  A    between atoms: C_3  and  C_4
REMARK    4  A    between atoms: C_4  and  C_5
REMARK    5  A    between atoms: C_9  and  C_10
REMARK    6  A    between atoms: C_12  and  C_13
REMARK    7  A    between atoms: C_13  and  C_14
REMARK                            x       y       z     vdW  Elec       q    Type
REMARK                         _______ _______ _______ _____ _____    ______ ____
ROOT
ATOM      1  C   UNL     1       4.096   3.976  17.801  0.00  0.00    +0.000 C 
ATOM      2  C   UNL     1       5.024   4.705  18.822  0.00  0.00    +0.000 C 
ATOM      3  O   UNL     1       4.902   5.147  19.934  0.00  0.00    +0.000 OA
ATOM      4  N   UNL     1       6.102   4.584  17.981  0.00  0.00    +0.000 N 
ATOM      5  C   UNL     1       7.454   4.856  18.037  0.00  0.00    +0.000 C 
ATOM      6  C   UNL     1       8.011   5.422  19.322  0.00  0.00    +0.000 C 
ATOM      7  O   UNL     1       8.197   4.618  17.083  0.00  0.00    +0.000 OA
ATOM      8  C   UNL     1       5.358   3.940  16.875  0.00  0.00    +0.000 C 
ENDROOT
BRANCH   8   9
ATOM      9  C   UNL     1       5.323   4.739  15.534  0.00  0.00    +0.000 C 
ATOM     10  C   UNL     1       5.512   3.977  14.239  0.00  0.00    +0.000 C 
ATOM     11  O   UNL     1       5.106   5.957  15.477  0.00  0.00    +0.000 OA
ENDBRANCH   8   9
BRANCH   1  12
ATOM     12  C   UNL     1       2.843   4.741  17.376  0.00  0.00    +0.000 C 
BRANCH  12  13
ATOM     13  C   UNL     1       1.567   4.070  17.902  0.00  0.00    +0.000 C 
BRANCH  13  15
ATOM     14  C   UNL     1       1.120   3.004  20.143  0.00  0.00    +0.000 C 
ATOM     15  C   UNL     1       1.396   4.305  19.406  0.00  0.00    +0.000 C 
ENDBRANCH  13  15
ENDBRANCH  12  13
ENDBRANCH   1  12
TORSDOF 4
ENDMDL
