MODEL 1
REMARK VINA RESULT:      -9.8      0.000      0.000
REMARK  Name = 
REMARK  5 active torsions:
REMARK  status: ('A' for Active; 'I' for Inactive)
REMARK    1  A    between atoms: C_2  and  C_4
REMARK    2  A    between atoms: C_10  and  O_11
REMARK    3  A    between atoms: O_11  and  C_12
REMARK    4  A    between atoms: C_18  and  C_19
REMARK    5  A    between atoms: C_21  and  C_22
REMARK                            x       y       z     vdW  Elec       q    Type
REMARK                         _______ _______ _______ _____ _____    ______ ____
ROOT
ATOM      1  C   UNL     1       1.982   8.546  18.392  0.00  0.00    +0.000 C 
ATOM      2  O   UNL     1       2.408   9.452  17.684  0.00  0.00    +0.000 OA
ATOM      3  N   UNL     1       1.491   8.735  19.664  0.00  0.00    +0.000 N 
ATOM      4  C   UNL     1       1.327   7.684  20.641  0.00  0.00    +0.000 C 
ATOM      5  C   UNL     1       0.385   8.292  21.659  0.00  0.00    +0.000 C 
ATOM      6  C   UNL     1       0.828   9.754  21.712  0.00  0.00    +0.000 C 
ATOM      7  C   UNL     1       1.367  10.052  20.298  0.00  0.00    +0.000 C 
ENDROOT
BRANCH   7   8
ATOM      8  C   UNL     1       0.432  10.962  19.549  0.00  0.00    +0.000 A 
ATOM      9  N   UNL     1      -0.759  10.620  19.109  0.00  0.00    +0.000 NA
ATOM     10  C   UNL     1      -1.269  11.630  18.322  0.00  0.00    +0.000 A 
ATOM     11  C   UNL     1      -0.537  12.800  18.301  0.00  0.00    +0.000 A 
ATOM     12  S   UNL     1       0.901  12.588  19.211  0.00  0.00    +0.000 S 
BRANCH  10  13
ATOM     13  C   UNL     1      -2.443  11.360  17.546  0.00  0.00    +0.000 A 
ATOM     14  C   UNL     1      -3.768  11.689  18.045  0.00  0.00    +0.000 A 
ATOM     15  C   UNL     1      -4.852  11.496  17.283  0.00  0.00    +0.000 A 
ATOM     16  N   UNL     1      -4.725  10.970  16.026  0.00  0.00    +0.000 N 
ATOM     17  C   UNL     1      -3.521  10.611  15.464  0.00  0.00    +0.000 A 
ATOM     18  O   UNL     1      -3.432  10.154  14.332  0.00  0.00    +0.000 OA
ATOM     19  C   UNL     1      -2.328  10.829  16.306  0.00  0.00    +0.000 A 
ATOM     20  H   UNL     1      -5.539  10.822  15.448  0.00  0.00    +0.000 HD
ENDBRANCH  10  13
ENDBRANCH   7   8
BRANCH   1  21
ATOM     21  O   UNL     1       1.939   7.234  18.009  0.00  0.00    +0.000 OA
BRANCH  21  28
ATOM     22  C   UNL     1       3.572   3.518  19.532  0.00  0.00    +0.000 C 
ATOM     23  C   UNL     1       3.600   2.929  18.104  0.00  0.00    +0.000 C 
ATOM     24  C   UNL     1       3.073   3.954  17.090  0.00  0.00    +0.000 C 
ATOM     25  C   UNL     1       3.958   5.210  17.139  0.00  0.00    +0.000 C 
ATOM     26  C   UNL     1       3.925   5.836  18.548  0.00  0.00    +0.000 C 
ATOM     27  C   UNL     1       4.437   4.799  19.570  0.00  0.00    +0.000 C 
ATOM     28  C   UNL     1       2.479   6.243  18.918  0.00  0.00    +0.000 C 
ATOM     29  C   UNL     1       1.589   4.972  18.857  0.00  0.00    +0.000 C 
ATOM     30  C   UNL     1       1.631   4.344  17.451  0.00  0.00    +0.000 C 
ATOM     31  C   UNL     1       2.111   3.927  19.869  0.00  0.00    +0.000 C 
BRANCH  22  33
ATOM     32  N   UNL     1       5.188   1.742  20.107  0.00  0.00    +0.000 N 
ATOM     33  C   UNL     1       4.101   2.463  20.514  0.00  0.00    +0.000 C 
ATOM     34  O   UNL     1       3.583   2.217  21.599  0.00  0.00    +0.000 OA
ATOM     35  H   UNL     1       5.562   1.065  20.757  0.00  0.00    +0.000 HD
ATOM     36  H   UNL     1       5.764   2.003  19.318  0.00  0.00    +0.000 HD
ENDBRANCH  22  33
ENDBRANCH  21  28
ENDBRANCH   1  21
TORSDOF 5
ENDMDL
MODEL 2
REMARK VINA RESULT:      -9.8      1.049      1.360
REMARK  Name = 
REMARK  5 active torsions:
REMARK  status: ('A' for Active; 'I' for Inactive)
REMARK    1  A    between atoms: C_2  and  C_4
REMARK    2  A    between atoms: C_10  and  O_11
REMARK    3  A    between atoms: O_11  and  C_12
REMARK    4  A    between atoms: C_18  and  C_19
REMARK    5  A    between atoms: C_21  and  C_22
REMARK                            x       y       z     vdW  Elec       q    Type
REMARK                         _______ _______ _______ _____ _____    ______ ____
ROOT
ATOM      1  C   UNL     1       1.466   7.946  19.655  0.00  0.00    +0.000 C 
ATOM      2  O   UNL     1       2.139   8.526  18.810  0.00  0.00    +0.000 OA
ATOM      3  N   UNL     1       0.930   8.563  20.762  0.00  0.00    +0.000 N 
ATOM      4  C   UNL     1       0.458   7.867  21.937  0.00  0.00    +0.000 C 
ATOM      5  C   UNL     1      -0.403   8.900  22.636  0.00  0.00    +0.000 C 
ATOM      6  C   UNL     1       0.350  10.206  22.387  0.00  0.00    +0.000 C 
ATOM      7  C   UNL     1       1.053  10.000  21.029  0.00  0.00    +0.000 C 
ENDROOT
BRANCH   7   8
ATOM      8  C   UNL     1       0.408  10.839  19.960  0.00  0.00    +0.000 A 
ATOM      9  N   UNL     1      -0.836  10.711  19.551  0.00  0.00    +0.000 NA
ATOM     10  C   UNL     1      -1.045  11.512  18.450  0.00  0.00    +0.000 A 
ATOM     11  C   UNL     1      -0.011  12.366  18.126  0.00  0.00    +0.000 A 
ATOM     12  S   UNL     1       1.316  12.076  19.171  0.00  0.00    +0.000 S 
BRANCH  10  13
ATOM     13  C   UNL     1      -2.256  11.336  17.702  0.00  0.00    +0.000 A 
ATOM     14  C   UNL     1      -3.547  11.684  18.270  0.00  0.00    +0.000 A 
ATOM     15  C   UNL     1      -4.665  11.581  17.538  0.00  0.00    +0.000 A 
ATOM     16  N   UNL     1      -4.603  11.131  16.248  0.00  0.00    +0.000 N 
ATOM     17  C   UNL     1      -3.434  10.763  15.620  0.00  0.00    +0.000 A 
ATOM     18  O   UNL     1      -3.404  10.375  14.460  0.00  0.00    +0.000 OA
ATOM     19  C   UNL     1      -2.205  10.881  16.429  0.00  0.00    +0.000 A 
ATOM     20  H   UNL     1      -5.442  11.051  15.692  0.00  0.00    +0.000 HD
ENDBRANCH  10  13
ENDBRANCH   7   8
BRANCH   1  21
ATOM     21  O   UNL     1       1.162   6.614  19.605  0.00  0.00    +0.000 OA
BRANCH  21  28
ATOM     22  C   UNL     1       3.389   2.897  19.733  0.00  0.00    +0.000 C 
ATOM     23  C   UNL     1       2.215   2.154  19.055  0.00  0.00    +0.000 C 
ATOM     24  C   UNL     1       1.062   3.125  18.767  0.00  0.00    +0.000 C 
ATOM     25  C   UNL     1       1.563   4.240  17.835  0.00  0.00    +0.000 C 
ATOM     26  C   UNL     1       2.717   5.017  18.500  0.00  0.00    +0.000 C 
ATOM     27  C   UNL     1       3.870   4.038  18.807  0.00  0.00    +0.000 C 
ATOM     28  C   UNL     1       2.235   5.663  19.820  0.00  0.00    +0.000 C 
ATOM     29  C   UNL     1       1.721   4.533  20.752  0.00  0.00    +0.000 C 
ATOM     30  C   UNL     1       0.574   3.752  20.081  0.00  0.00    +0.000 C 
ATOM     31  C   UNL     1       2.871   3.544  21.047  0.00  0.00    +0.000 C 
BRANCH  22  33
ATOM     32  N   UNL     1       4.662   0.876  19.106  0.00  0.00    +0.000 N 
ATOM     33  C   UNL     1       4.519   1.893  20.007  0.00  0.00    +0.000 C 
ATOM     34  O   UNL     1       5.250   1.938  20.991  0.00  0.00    +0.000 OA
ATOM     35  H   UNL     1       5.421   0.226  19.262  0.00  0.00    +0.000 HD
ATOM     36  H   UNL     1       4.221   0.873  18.197  0.00  0.00    +0.000 HD
ENDBRANCH  22  33
ENDBRANCH  21  28
ENDBRANCH   1  21
TORSDOF 5
ENDMDL
MODEL 3
REMARK VINA RESULT:      -9.7      1.562      2.024
REMARK  Name = 
REMARK  5 active torsions:
REMARK  status: ('A' for Active; 'I' for Inactive)
REMARK    1  A    between atoms: C_2  and  C_4
REMARK    2  A    between atoms: C_10  and  O_11
REMARK    3  A    between atoms: O_11  and  C_12
REMARK    4  A    between atoms: C_18  and  C_19
REMARK    5  A    between atoms: C_21  and  C_22
REMARK                            x       y       z     vdW  Elec       q    Type
REMARK                         _______ _______ _______ _____ _____    ______ ____
ROOT
ATOM      1  C   UNL     1       1.703   8.861  19.506  0.00  0.00    +0.000 C 
ATOM      2  O   UNL     1       2.240   9.711  18.804  0.00  0.00    +0.000 OA
ATOM      3  N   UNL     1       0.967   9.152  20.633  0.00  0.00    +0.000 N 
ATOM      4  C   UNL     1       0.638   8.195  21.663  0.00  0.00    +0.000 C 
ATOM      5  C   UNL     1      -0.500   8.859  22.410  0.00  0.00    +0.000 C 
ATOM      6  C   UNL     1      -0.110  10.337  22.396  0.00  0.00    +0.000 C 
ATOM      7  C   UNL     1       0.690  10.518  21.090  0.00  0.00    +0.000 C 
ENDROOT
BRANCH   7   8
ATOM      8  C   UNL     1      -0.100  11.310  20.084  0.00  0.00    +0.000 A 
ATOM      9  N   UNL     1      -1.206  10.899  19.504  0.00  0.00    +0.000 NA
ATOM     10  C   UNL     1      -1.569  11.789  18.517  0.00  0.00    +0.000 A 
ATOM     11  C   UNL     1      -0.831  12.954  18.461  0.00  0.00    +0.000 A 
ATOM     12  S   UNL     1       0.436  12.882  19.613  0.00  0.00    +0.000 S 
BRANCH  10  13
ATOM     13  C   UNL     1      -2.603  11.404  17.601  0.00  0.00    +0.000 A 
ATOM     14  C   UNL     1      -4.005  11.624  17.914  0.00  0.00    +0.000 A 
ATOM     15  C   UNL     1      -4.959  11.325  17.023  0.00  0.00    +0.000 A 
ATOM     16  N   UNL     1      -4.622  10.792  15.808  0.00  0.00    +0.000 N 
ATOM     17  C   UNL     1      -3.328  10.531  15.418  0.00  0.00    +0.000 A 
ATOM     18  O   UNL     1      -3.052  10.066  14.320  0.00  0.00    +0.000 OA
ATOM     19  C   UNL     1      -2.280  10.866  16.403  0.00  0.00    +0.000 A 
ATOM     20  H   UNL     1      -5.337  10.564  15.133  0.00  0.00    +0.000 HD
ENDBRANCH  10  13
ENDBRANCH   7   8
BRANCH   1  21
ATOM     21  O   UNL     1       1.767   7.518  19.261  0.00  0.00    +0.000 OA
BRANCH  21  28
ATOM     22  C   UNL     1       4.772   4.715  17.880  0.00  0.00    +0.000 C 
ATOM     23  C   UNL     1       3.820   3.531  18.167  0.00  0.00    +0.000 C 
ATOM     24  C   UNL     1       2.483   4.041  18.722  0.00  0.00    +0.000 C 
ATOM     25  C   UNL     1       1.834   4.977  17.689  0.00  0.00    +0.000 C 
ATOM     26  C   UNL     1       2.751   6.184  17.405  0.00  0.00    +0.000 C 
ATOM     27  C   UNL     1       4.103   5.671  16.865  0.00  0.00    +0.000 C 
ATOM     28  C   UNL     1       2.996   6.985  18.706  0.00  0.00    +0.000 C 
ATOM     29  C   UNL     1       3.642   6.032  19.747  0.00  0.00    +0.000 C 
ATOM     30  C   UNL     1       2.727   4.823  20.021  0.00  0.00    +0.000 C 
ATOM     31  C   UNL     1       4.988   5.506  19.200  0.00  0.00    +0.000 C 
BRANCH  22  33
ATOM     32  N   UNL     1       7.161   4.171  18.187  0.00  0.00    +0.000 N 
ATOM     33  C   UNL     1       6.096   4.164  17.331  0.00  0.00    +0.000 C 
ATOM     34  O   UNL     1       6.248   3.768  16.180  0.00  0.00    +0.000 OA
ATOM     35  H   UNL     1       8.030   3.784  17.845  0.00  0.00    +0.000 HD
ATOM     36  H   UNL     1       7.072   4.315  19.184  0.00  0.00    +0.000 HD
ENDBRANCH  22  33
ENDBRANCH  21  28
ENDBRANCH   1  21
TORSDOF 5
ENDMDL
MODEL 4
REMARK VINA RESULT:      -9.6      0.829      1.178
REMARK  Name = 
REMARK  5 active torsions:
REMARK  status: ('A' for Active; 'I' for Inactive)
REMARK    1  A    between atoms: C_2  and  C_4
REMARK    2  A    between atoms: C_10  and  O_11
REMARK    3  A    between atoms: O_11  and  C_12
REMARK    4  A    between atoms: C_18  and  C_19
REMARK    5  A    between atoms: C_21  and  C_22
REMARK                            x       y       z     vdW  Elec       q    Type
REMARK                         _______ _______ _______ _____ _____    ______ ____
ROOT
ATOM      1  C   UNL     1       1.950   8.513  18.566  0.00  0.00    +0.000 C 
ATOM      2  O   UNL     1       2.436   9.416  17.893  0.00  0.00    +0.000 OA
ATOM      3  N   UNL     1       1.394   8.701  19.811  0.00  0.00    +0.000 N 
ATOM      4  C   UNL     1       1.153   7.644  20.766  0.00  0.00    +0.000 C 
ATOM      5  C   UNL     1       0.170   8.265  21.737  0.00  0.00    +0.000 C 
ATOM      6  C   UNL     1       0.644   9.715  21.832  0.00  0.00    +0.000 C 
ATOM      7  C   UNL     1       1.266  10.014  20.452  0.00  0.00    +0.000 C 
ENDROOT
BRANCH   7   8
ATOM      8  C   UNL     1       0.395  10.953  19.664  0.00  0.00    +0.000 A 
ATOM      9  N   UNL     1      -0.822  10.680  19.246  0.00  0.00    +0.000 NA
ATOM     10  C   UNL     1      -1.262  11.685  18.413  0.00  0.00    +0.000 A 
ATOM     11  C   UNL     1      -0.446  12.795  18.332  0.00  0.00    +0.000 A 
ATOM     12  S   UNL     1       0.979  12.523  19.245  0.00  0.00    +0.000 S 
BRANCH  10  13
ATOM     13  C   UNL     1      -2.459  11.465  17.655  0.00  0.00    +0.000 A 
ATOM     14  C   UNL     1      -2.403  11.032  16.269  0.00  0.00    +0.000 A 
ATOM     15  C   UNL     1      -3.527  10.762  15.592  0.00  0.00    +0.000 A 
ATOM     16  N   UNL     1      -4.746  10.906  16.198  0.00  0.00    +0.000 N 
ATOM     17  C   UNL     1      -4.910  11.322  17.500  0.00  0.00    +0.000 A 
ATOM     18  O   UNL     1      -6.011  11.430  18.023  0.00  0.00    +0.000 OA
ATOM     19  C   UNL     1      -3.668  11.615  18.243  0.00  0.00    +0.000 A 
ATOM     20  H   UNL     1      -5.596  10.705  15.693  0.00  0.00    +0.000 HD
ENDBRANCH  10  13
ENDBRANCH   7   8
BRANCH   1  21
ATOM     21  O   UNL     1       1.899   7.207  18.167  0.00  0.00    +0.000 OA
BRANCH  21  28
ATOM     22  C   UNL     1       3.608   3.484  19.586  0.00  0.00    +0.000 C 
ATOM     23  C   UNL     1       3.626   2.927  18.144  0.00  0.00    +0.000 C 
ATOM     24  C   UNL     1       3.071   3.966  17.161  0.00  0.00    +0.000 C 
ATOM     25  C   UNL     1       3.936   5.235  17.226  0.00  0.00    +0.000 C 
ATOM     26  C   UNL     1       3.913   5.829  18.649  0.00  0.00    +0.000 C 
ATOM     27  C   UNL     1       4.454   4.778  19.641  0.00  0.00    +0.000 C 
ATOM     28  C   UNL     1       2.466   6.204  19.046  0.00  0.00    +0.000 C 
ATOM     29  C   UNL     1       1.595   4.922  18.969  0.00  0.00    +0.000 C 
ATOM     30  C   UNL     1       1.628   4.325  17.548  0.00  0.00    +0.000 C 
ATOM     31  C   UNL     1       2.146   3.863  19.951  0.00  0.00    +0.000 C 
BRANCH  22  33
ATOM     32  N   UNL     1       5.213   1.672  20.070  0.00  0.00    +0.000 N 
ATOM     33  C   UNL     1       4.167   2.416  20.537  0.00  0.00    +0.000 C 
ATOM     34  O   UNL     1       3.704   2.180  21.648  0.00  0.00    +0.000 OA
ATOM     35  H   UNL     1       5.607   0.985  20.700  0.00  0.00    +0.000 HD
ATOM     36  H   UNL     1       5.751   1.921  19.252  0.00  0.00    +0.000 HD
ENDBRANCH  22  33
ENDBRANCH  21  28
ENDBRANCH   1  21
TORSDOF 5
ENDMDL
MODEL 5
REMARK VINA RESULT:      -9.5      1.348      1.812
REMARK  Name = 
REMARK  5 active torsions:
REMARK  status: ('A' for Active; 'I' for Inactive)
REMARK    1  A    between atoms: C_2  and  C_4
REMARK    2  A    between atoms: C_10  and  O_11
REMARK    3  A    between atoms: O_11  and  C_12
REMARK    4  A    between atoms: C_18  and  C_19
REMARK    5  A    between atoms: C_21  and  C_22
REMARK                            x       y       z     vdW  Elec       q    Type
REMARK                         _______ _______ _______ _____ _____    ______ ____
ROOT
ATOM      1  C   UNL     1       1.464   7.979  19.636  0.00  0.00    +0.000 C 
ATOM      2  O   UNL     1       2.146   8.571  18.806  0.00  0.00    +0.000 OA
ATOM      3  N   UNL     1       0.929   8.578  20.754  0.00  0.00    +0.000 N 
ATOM      4  C   UNL     1       0.445   7.862  21.911  0.00  0.00    +0.000 C 
ATOM      5  C   UNL     1      -0.409   8.887  22.629  0.00  0.00    +0.000 C 
ATOM      6  C   UNL     1       0.358  10.191  22.411  0.00  0.00    +0.000 C 
ATOM      7  C   UNL     1       1.065  10.008  21.052  0.00  0.00    +0.000 C 
ENDROOT
BRANCH   7   8
ATOM      8  C   UNL     1       0.433  10.875  19.998  0.00  0.00    +0.000 A 
ATOM      9  N   UNL     1      -0.815  10.779  19.593  0.00  0.00    +0.000 NA
ATOM     10  C   UNL     1      -1.012  11.600  18.505  0.00  0.00    +0.000 A 
ATOM     11  C   UNL     1       0.037  12.439  18.190  0.00  0.00    +0.000 A 
ATOM     12  S   UNL     1       1.363  12.107  19.225  0.00  0.00    +0.000 S 
BRANCH  10  13
ATOM     13  C   UNL     1      -2.229  11.460  17.760  0.00  0.00    +0.000 A 
ATOM     14  C   UNL     1      -2.222  10.968  16.393  0.00  0.00    +0.000 A 
ATOM     15  C   UNL     1      -3.370  10.775  15.730  0.00  0.00    +0.000 A 
ATOM     16  N   UNL     1      -4.567  11.056  16.332  0.00  0.00    +0.000 N 
ATOM     17  C   UNL     1      -4.684  11.539  17.616  0.00  0.00    +0.000 A 
ATOM     18  O   UNL     1      -5.767  11.770  18.136  0.00  0.00    +0.000 OA
ATOM     19  C   UNL     1      -3.416  11.746  18.343  0.00  0.00    +0.000 A 
ATOM     20  H   UNL     1      -5.435  10.913  15.837  0.00  0.00    +0.000 HD
ENDBRANCH  10  13
ENDBRANCH   7   8
BRANCH   1  21
ATOM     21  O   UNL     1       1.147   6.652  19.556  0.00  0.00    +0.000 OA
BRANCH  21  28
ATOM     22  C   UNL     1       3.329   2.906  19.571  0.00  0.00    +0.000 C 
ATOM     23  C   UNL     1       2.116   2.181  18.945  0.00  0.00    +0.000 C 
ATOM     24  C   UNL     1       0.963   3.167  18.713  0.00  0.00    +0.000 C 
ATOM     25  C   UNL     1       1.435   4.279  17.763  0.00  0.00    +0.000 C 
ATOM     26  C   UNL     1       2.629   5.039  18.376  0.00  0.00    +0.000 C 
ATOM     27  C   UNL     1       3.782   4.044  18.627  0.00  0.00    +0.000 C 
ATOM     28  C   UNL     1       2.216   5.687  19.719  0.00  0.00    +0.000 C 
ATOM     29  C   UNL     1       1.731   4.560  20.670  0.00  0.00    +0.000 C 
ATOM     30  C   UNL     1       0.544   3.796  20.051  0.00  0.00    +0.000 C 
ATOM     31  C   UNL     1       2.880   3.555  20.910  0.00  0.00    +0.000 C 
BRANCH  22  33
ATOM     32  N   UNL     1       4.540   0.866  18.885  0.00  0.00    +0.000 N 
ATOM     33  C   UNL     1       4.457   1.887  19.790  0.00  0.00    +0.000 C 
ATOM     34  O   UNL     1       5.237   1.923  20.735  0.00  0.00    +0.000 OA
ATOM     35  H   UNL     1       5.297   0.206  19.004  0.00  0.00    +0.000 HD
ATOM     36  H   UNL     1       4.054   0.868  17.999  0.00  0.00    +0.000 HD
ENDBRANCH  22  33
ENDBRANCH  21  28
ENDBRANCH   1  21
TORSDOF 5
ENDMDL
MODEL 6
REMARK VINA RESULT:      -9.4      1.715      2.267
REMARK  Name = 
REMARK  5 active torsions:
REMARK  status: ('A' for Active; 'I' for Inactive)
REMARK    1  A    between atoms: C_2  and  C_4
REMARK    2  A    between atoms: C_10  and  O_11
REMARK    3  A    between atoms: O_11  and  C_12
REMARK    4  A    between atoms: C_18  and  C_19
REMARK    5  A    between atoms: C_21  and  C_22
REMARK                            x       y       z     vdW  Elec       q    Type
REMARK                         _______ _______ _______ _____ _____    ______ ____
ROOT
ATOM      1  C   UNL     1       2.083   8.685  18.762  0.00  0.00    +0.000 C 
ATOM      2  O   UNL     1       2.544   9.658  18.175  0.00  0.00    +0.000 OA
ATOM      3  N   UNL     1       1.377   8.765  19.940  0.00  0.00    +0.000 N 
ATOM      4  C   UNL     1       1.142   7.652  20.830  0.00  0.00    +0.000 C 
ATOM      5  C   UNL     1      -0.000   8.131  21.701  0.00  0.00    +0.000 C 
ATOM      6  C   UNL     1       0.307   9.616  21.891  0.00  0.00    +0.000 C 
ATOM      7  C   UNL     1       1.044  10.032  20.601  0.00  0.00    +0.000 C 
ENDROOT
BRANCH   7   8
ATOM      8  C   UNL     1       0.172  10.911  19.746  0.00  0.00    +0.000 A 
ATOM      9  N   UNL     1      -0.980  10.551  19.225  0.00  0.00    +0.000 NA
ATOM     10  C   UNL     1      -1.424  11.529  18.363  0.00  0.00    +0.000 A 
ATOM     11  C   UNL     1      -0.692  12.699  18.358  0.00  0.00    +0.000 A 
ATOM     12  S   UNL     1       0.668  12.525  19.386  0.00  0.00    +0.000 S 
BRANCH  10  13
ATOM     13  C   UNL     1      -2.532  11.227  17.505  0.00  0.00    +0.000 A 
ATOM     14  C   UNL     1      -3.899  11.492  17.921  0.00  0.00    +0.000 A 
ATOM     15  C   UNL     1      -4.922  11.271  17.085  0.00  0.00    +0.000 A 
ATOM     16  N   UNL     1      -4.691  10.777  15.831  0.00  0.00    +0.000 N 
ATOM     17  C   UNL     1      -3.438  10.479  15.344  0.00  0.00    +0.000 A 
ATOM     18  O   UNL     1      -3.256  10.049  14.212  0.00  0.00    +0.000 OA
ATOM     19  C   UNL     1      -2.314  10.728  16.267  0.00  0.00    +0.000 A 
ATOM     20  H   UNL     1      -5.458  10.607  15.197  0.00  0.00    +0.000 HD
ENDBRANCH  10  13
ENDBRANCH   7   8
BRANCH   1  21
ATOM     21  O   UNL     1       2.211   7.397  18.320  0.00  0.00    +0.000 OA
BRANCH  21  28
ATOM     22  C   UNL     1       5.713   4.937  17.626  0.00  0.00    +0.000 C 
ATOM     23  C   UNL     1       5.037   3.747  18.344  0.00  0.00    +0.000 C 
ATOM     24  C   UNL     1       3.633   4.139  18.825  0.00  0.00    +0.000 C 
ATOM     25  C   UNL     1       2.782   4.551  17.612  0.00  0.00    +0.000 C 
ATOM     26  C   UNL     1       3.420   5.757  16.893  0.00  0.00    +0.000 C 
ATOM     27  C   UNL     1       4.839   5.370  16.426  0.00  0.00    +0.000 C 
ATOM     28  C   UNL     1       3.514   6.964  17.856  0.00  0.00    +0.000 C 
ATOM     29  C   UNL     1       4.366   6.538  19.082  0.00  0.00    +0.000 C 
ATOM     30  C   UNL     1       3.731   5.327  19.793  0.00  0.00    +0.000 C 
ATOM     31  C   UNL     1       5.782   6.135  18.614  0.00  0.00    +0.000 C 
BRANCH  22  33
ATOM     32  N   UNL     1       7.354   4.555  15.821  0.00  0.00    +0.000 N 
ATOM     33  C   UNL     1       7.114   4.507  17.165  0.00  0.00    +0.000 C 
ATOM     34  O   UNL     1       7.986   4.095  17.923  0.00  0.00    +0.000 OA
ATOM     35  H   UNL     1       8.282   4.301  15.510  0.00  0.00    +0.000 HD
ATOM     36  H   UNL     1       6.756   5.040  15.167  0.00  0.00    +0.000 HD
ENDBRANCH  22  33
ENDBRANCH  21  28
ENDBRANCH   1  21
TORSDOF 5
ENDMDL
MODEL 7
REMARK VINA RESULT:      -9.3      1.705      2.268
REMARK  Name = 
REMARK  5 active torsions:
REMARK  status: ('A' for Active; 'I' for Inactive)
REMARK    1  A    between atoms: C_2  and  C_4
REMARK    2  A    between atoms: C_10  and  O_11
REMARK    3  A    between atoms: O_11  and  C_12
REMARK    4  A    between atoms: C_18  and  C_19
REMARK    5  A    between atoms: C_21  and  C_22
REMARK                            x       y       z     vdW  Elec       q    Type
REMARK                         _______ _______ _______ _____ _____    ______ ____
ROOT
ATOM      1  C   UNL     1       1.673   8.861  19.420  0.00  0.00    +0.000 C 
ATOM      2  O   UNL     1       2.211   9.693  18.699  0.00  0.00    +0.000 OA
ATOM      3  N   UNL     1       0.969   9.176  20.560  0.00  0.00    +0.000 N 
ATOM      4  C   UNL     1       0.644   8.234  21.606  0.00  0.00    +0.000 C 
ATOM      5  C   UNL     1      -0.462   8.929  22.373  0.00  0.00    +0.000 C 
ATOM      6  C   UNL     1      -0.041  10.397  22.338  0.00  0.00    +0.000 C 
ATOM      7  C   UNL     1       0.732  10.551  21.012  0.00  0.00    +0.000 C 
ENDROOT
BRANCH   7   8
ATOM      8  C   UNL     1      -0.063  11.352  20.018  0.00  0.00    +0.000 A 
ATOM      9  N   UNL     1      -1.249  11.017  19.559  0.00  0.00    +0.000 NA
ATOM     10  C   UNL     1      -1.611  11.874  18.543  0.00  0.00    +0.000 A 
ATOM     11  C   UNL     1      -0.774  12.954  18.344  0.00  0.00    +0.000 A 
ATOM     12  S   UNL     1       0.575  12.830  19.394  0.00  0.00    +0.000 S 
BRANCH  10  13
ATOM     13  C   UNL     1      -2.752  11.537  17.743  0.00  0.00    +0.000 A 
ATOM     14  C   UNL     1      -2.604  11.127  16.357  0.00  0.00    +0.000 A 
ATOM     15  C   UNL     1      -3.670  10.747  15.639  0.00  0.00    +0.000 A 
ATOM     16  N   UNL     1      -4.917  10.756  16.203  0.00  0.00    +0.000 N 
ATOM     17  C   UNL     1      -5.167  11.139  17.501  0.00  0.00    +0.000 A 
ATOM     18  O   UNL     1      -6.291  11.126  17.986  0.00  0.00    +0.000 OA
ATOM     19  C   UNL     1      -3.990  11.553  18.289  0.00  0.00    +0.000 A 
ATOM     20  H   UNL     1      -5.723  10.472  15.667  0.00  0.00    +0.000 HD
ENDBRANCH  10  13
ENDBRANCH   7   8
BRANCH   1  21
ATOM     21  O   UNL     1       1.702   7.514  19.184  0.00  0.00    +0.000 OA
BRANCH  21  28
ATOM     22  C   UNL     1       4.714   4.610  18.047  0.00  0.00    +0.000 C 
ATOM     23  C   UNL     1       3.761   3.453  18.426  0.00  0.00    +0.000 C 
ATOM     24  C   UNL     1       2.421   4.006  18.932  0.00  0.00    +0.000 C 
ATOM     25  C   UNL     1       1.776   4.854  17.825  0.00  0.00    +0.000 C 
ATOM     26  C   UNL     1       2.694   6.034  17.447  0.00  0.00    +0.000 C 
ATOM     27  C   UNL     1       4.048   5.480  16.956  0.00  0.00    +0.000 C 
ATOM     28  C   UNL     1       2.934   6.939  18.680  0.00  0.00    +0.000 C 
ATOM     29  C   UNL     1       3.576   6.075  19.797  0.00  0.00    +0.000 C 
ATOM     30  C   UNL     1       2.660   4.891  20.165  0.00  0.00    +0.000 C 
ATOM     31  C   UNL     1       4.925   5.506  19.300  0.00  0.00    +0.000 C 
BRANCH  22  33
ATOM     32  N   UNL     1       6.015   3.407  16.328  0.00  0.00    +0.000 N 
ATOM     33  C   UNL     1       6.040   4.017  17.550  0.00  0.00    +0.000 C 
ATOM     34  O   UNL     1       7.081   4.029  18.200  0.00  0.00    +0.000 OA
ATOM     35  H   UNL     1       6.889   3.038  15.979  0.00  0.00    +0.000 HD
ATOM     36  H   UNL     1       5.254   3.510  15.671  0.00  0.00    +0.000 HD
ENDBRANCH  22  33
ENDBRANCH  21  28
ENDBRANCH   1  21
TORSDOF 5
ENDMDL
MODEL 8
REMARK VINA RESULT:      -9.3      1.477      1.930
REMARK  Name = 
REMARK  5 active torsions:
REMARK  status: ('A' for Active; 'I' for Inactive)
REMARK    1  A    between atoms: C_2  and  C_4
REMARK    2  A    between atoms: C_10  and  O_11
REMARK    3  A    between atoms: O_11  and  C_12
REMARK    4  A    between atoms: C_18  and  C_19
REMARK    5  A    between atoms: C_21  and  C_22
REMARK                            x       y       z     vdW  Elec       q    Type
REMARK                         _______ _______ _______ _____ _____    ______ ____
ROOT
ATOM      1  C   UNL     1       1.231   8.803  19.946  0.00  0.00    +0.000 C 
ATOM      2  O   UNL     1       1.867   9.406  19.088  0.00  0.00    +0.000 OA
ATOM      3  N   UNL     1       0.598   9.418  21.003  0.00  0.00    +0.000 N 
ATOM      4  C   UNL     1       0.164   8.739  22.201  0.00  0.00    +0.000 C 
ATOM      5  C   UNL     1      -0.822   9.710  22.818  0.00  0.00    +0.000 C 
ATOM      6  C   UNL     1      -0.201  11.074  22.517  0.00  0.00    +0.000 C 
ATOM      7  C   UNL     1       0.563  10.872  21.192  0.00  0.00    +0.000 C 
ENDROOT
BRANCH   7   8
ATOM      8  C   UNL     1      -0.131  11.579  20.060  0.00  0.00    +0.000 A 
ATOM      9  N   UNL     1      -1.319  11.265  19.591  0.00  0.00    +0.000 NA
ATOM     10  C   UNL     1      -1.575  11.996  18.452  0.00  0.00    +0.000 A 
ATOM     11  C   UNL     1      -0.655  12.980  18.153  0.00  0.00    +0.000 A 
ATOM     12  S   UNL     1       0.637  12.912  19.277  0.00  0.00    +0.000 S 
BRANCH  10  13
ATOM     13  C   UNL     1      -2.703  11.629  17.648  0.00  0.00    +0.000 A 
ATOM     14  C   UNL     1      -2.534  11.154  16.285  0.00  0.00    +0.000 A 
ATOM     15  C   UNL     1      -3.589  10.748  15.567  0.00  0.00    +0.000 A 
ATOM     16  N   UNL     1      -4.845  10.790  16.106  0.00  0.00    +0.000 N 
ATOM     17  C   UNL     1      -5.117  11.234  17.381  0.00  0.00    +0.000 A 
ATOM     18  O   UNL     1      -6.249  11.249  17.845  0.00  0.00    +0.000 OA
ATOM     19  C   UNL     1      -3.951  11.677  18.169  0.00  0.00    +0.000 A 
ATOM     20  H   UNL     1      -5.644  10.485  15.570  0.00  0.00    +0.000 HD
ENDBRANCH  10  13
ENDBRANCH   7   8
BRANCH   1  21
ATOM     21  O   UNL     1       1.069   7.446  19.963  0.00  0.00    +0.000 OA
BRANCH  21  28
ATOM     22  C   UNL     1       3.692   4.049  19.345  0.00  0.00    +0.000 C 
ATOM     23  C   UNL     1       2.532   3.251  18.708  0.00  0.00    +0.000 C 
ATOM     24  C   UNL     1       1.251   4.097  18.682  0.00  0.00    +0.000 C 
ATOM     25  C   UNL     1       1.505   5.369  17.858  0.00  0.00    +0.000 C 
ATOM     26  C   UNL     1       2.640   6.201  18.489  0.00  0.00    +0.000 C 
ATOM     27  C   UNL     1       3.924   5.345  18.533  0.00  0.00    +0.000 C 
ATOM     28  C   UNL     1       2.259   6.618  19.929  0.00  0.00    +0.000 C 
ATOM     29  C   UNL     1       1.995   5.329  20.752  0.00  0.00    +0.000 C 
ATOM     30  C   UNL     1       0.866   4.496  20.114  0.00  0.00    +0.000 C 
ATOM     31  C   UNL     1       3.275   4.464  20.784  0.00  0.00    +0.000 C 
BRANCH  22  33
ATOM     32  N   UNL     1       6.049   3.669  18.713  0.00  0.00    +0.000 N 
ATOM     33  C   UNL     1       4.951   3.170  19.356  0.00  0.00    +0.000 C 
ATOM     34  O   UNL     1       5.003   2.055  19.865  0.00  0.00    +0.000 OA
ATOM     35  H   UNL     1       6.891   3.111  18.739  0.00  0.00    +0.000 HD
ATOM     36  H   UNL     1       6.134   4.635  18.428  0.00  0.00    +0.000 HD
ENDBRANCH  22  33
ENDBRANCH  21  28
ENDBRANCH   1  21
TORSDOF 5
ENDMDL
MODEL 9
REMARK VINA RESULT:      -9.3      5.356      9.179
REMARK  Name = 
REMARK  5 active torsions:
REMARK  status: ('A' for Active; 'I' for Inactive)
REMARK    1  A    between atoms: C_2  and  C_4
REMARK    2  A    between atoms: C_10  and  O_11
REMARK    3  A    between atoms: O_11  and  C_12
REMARK    4  A    between atoms: C_18  and  C_19
REMARK    5  A    between atoms: C_21  and  C_22
REMARK                            x       y       z     vdW  Elec       q    Type
REMARK                         _______ _______ _______ _____ _____    ______ ____
ROOT
ATOM      1  C   UNL     1      -0.456  12.432  22.373  0.00  0.00    +0.000 C 
ATOM      2  O   UNL     1      -0.210  11.230  22.378  0.00  0.00    +0.000 OA
ATOM      3  N   UNL     1       0.104  13.324  21.486  0.00  0.00    +0.000 N 
ATOM      4  C   UNL     1       0.127  14.756  21.674  0.00  0.00    +0.000 C 
ATOM      5  C   UNL     1       0.432  15.287  20.288  0.00  0.00    +0.000 C 
ATOM      6  C   UNL     1       1.413  14.258  19.729  0.00  0.00    +0.000 C 
ATOM      7  C   UNL     1       1.016  12.930  20.407  0.00  0.00    +0.000 C 
ENDROOT
BRANCH   7   8
ATOM      8  C   UNL     1       0.367  11.998  19.421  0.00  0.00    +0.000 A 
ATOM      9  N   UNL     1      -0.720  12.268  18.733  0.00  0.00    +0.000 NA
ATOM     10  C   UNL     1      -1.136  11.139  18.061  0.00  0.00    +0.000 A 
ATOM     11  C   UNL     1      -0.273  10.063  18.110  0.00  0.00    +0.000 A 
ATOM     12  S   UNL     1       1.054  10.442  19.127  0.00  0.00    +0.000 S 
BRANCH  10  13
ATOM     13  C   UNL     1      -2.434  11.149  17.453  0.00  0.00    +0.000 A 
ATOM     14  C   UNL     1      -2.603  10.872  16.037  0.00  0.00    +0.000 A 
ATOM     15  C   UNL     1      -3.826  10.815  15.494  0.00  0.00    +0.000 A 
ATOM     16  N   UNL     1      -4.933  11.033  16.267  0.00  0.00    +0.000 N 
ATOM     17  C   UNL     1      -4.883  11.316  17.614  0.00  0.00    +0.000 A 
ATOM     18  O   UNL     1      -5.889  11.494  18.287  0.00  0.00    +0.000 OA
ATOM     19  C   UNL     1      -3.533  11.374  18.209  0.00  0.00    +0.000 A 
ATOM     20  H   UNL     1      -5.857  10.992  15.863  0.00  0.00    +0.000 HD
ENDBRANCH  10  13
ENDBRANCH   7   8
BRANCH   1  21
ATOM     21  O   UNL     1      -1.316  13.038  23.245  0.00  0.00    +0.000 OA
BRANCH  21  28
ATOM     22  C   UNL     1      -5.646  13.116  23.453  0.00  0.00    +0.000 C 
ATOM     23  C   UNL     1      -5.627  14.659  23.550  0.00  0.00    +0.000 C 
ATOM     24  C   UNL     1      -4.184  15.181  23.511  0.00  0.00    +0.000 C 
ATOM     25  C   UNL     1      -3.528  14.747  22.190  0.00  0.00    +0.000 C 
ATOM     26  C   UNL     1      -3.508  13.209  22.079  0.00  0.00    +0.000 C 
ATOM     27  C   UNL     1      -4.957  12.682  22.138  0.00  0.00    +0.000 C 
ATOM     28  C   UNL     1      -2.699  12.601  23.250  0.00  0.00    +0.000 C 
ATOM     29  C   UNL     1      -3.360  13.051  24.580  0.00  0.00    +0.000 C 
ATOM     30  C   UNL     1      -3.388  14.588  24.683  0.00  0.00    +0.000 C 
ATOM     31  C   UNL     1      -4.817  12.537  24.632  0.00  0.00    +0.000 C 
BRANCH  22  33
ATOM     32  N   UNL     1      -7.499  11.791  22.500  0.00  0.00    +0.000 N 
ATOM     33  C   UNL     1      -7.104  12.634  23.500  0.00  0.00    +0.000 C 
ATOM     34  O   UNL     1      -7.916  12.995  24.345  0.00  0.00    +0.000 OA
ATOM     35  H   UNL     1      -8.448  11.445  22.538  0.00  0.00    +0.000 HD
ATOM     36  H   UNL     1      -6.852  11.320  21.882  0.00  0.00    +0.000 HD
ENDBRANCH  22  33
ENDBRANCH  21  28
ENDBRANCH   1  21
TORSDOF 5
ENDMDL
