MODEL 1
REMARK VINA RESULT:      -8.1      0.000      0.000
REMARK  Name = 
REMARK  5 active torsions:
REMARK  status: ('A' for Active; 'I' for Inactive)
REMARK    1  A    between atoms: C_1  and  O_2
REMARK    2  A    between atoms: O_2  and  C_3
REMARK    3  A    between atoms: C_3  and  C_5
REMARK    4  A    between atoms: C_19  and  C_20
REMARK    5  A    between atoms: N_24  and  C_25
REMARK                            x       y       z     vdW  Elec       q    Type
REMARK                         _______ _______ _______ _____ _____    ______ ____
ROOT
ATOM      1  C   UNL     1       3.429   4.816  17.508  0.00  0.00    +0.000 C 
ATOM      2  C   UNL     1       3.074   6.298  17.367  0.00  0.00    +0.000 C 
ATOM      3  N   UNL     1       3.031   6.809  18.730  0.00  0.00    +0.000 N 
ATOM      4  C   UNL     1       2.138   7.769  19.160  0.00  0.00    +0.000 A 
ATOM      5  C   UNL     1       1.490   8.659  18.300  0.00  0.00    +0.000 A 
ATOM      6  N   UNL     1       0.632   9.633  18.697  0.00  0.00    +0.000 NA
ATOM      7  C   UNL     1       0.431   9.732  20.020  0.00  0.00    +0.000 A 
ATOM      8  C   UNL     1      -0.395  10.731  20.522  0.00  0.00    +0.000 A 
ATOM      9  C   UNL     1      -0.611  10.874  21.894  0.00  0.00    +0.000 A 
ATOM     10  C   UNL     1      -0.007   9.990  22.776  0.00  0.00    +0.000 A 
ATOM     11  C   UNL     1       0.819   8.979  22.280  0.00  0.00    +0.000 A 
ATOM     12  C   UNL     1       1.062   8.842  20.918  0.00  0.00    +0.000 A 
ATOM     13  N   UNL     1       1.900   7.876  20.485  0.00  0.00    +0.000 NA
ATOM     14  C   UNL     1       3.548   5.838  19.697  0.00  0.00    +0.000 C 
ATOM     15  C   UNL     1       4.181   4.711  18.845  0.00  0.00    +0.000 C 
ENDROOT
BRANCH  15  16
ATOM     16  C   UNL     1       5.674   4.846  18.667  0.00  0.00    +0.000 A 
ATOM     17  C   UNL     1       6.650   5.348  19.509  0.00  0.00    +0.000 A 
ATOM     18  N   UNL     1       7.897   5.244  18.949  0.00  0.00    +0.000 NA
ATOM     19  C   UNL     1       7.705   4.678  17.783  0.00  0.00    +0.000 A 
ATOM     20  N   UNL     1       6.379   4.433  17.554  0.00  0.00    +0.000 N 
ATOM     21  C   UNL     1       5.866   3.838  16.345  0.00  0.00    +0.000 C 
ENDBRANCH  15  16
BRANCH   1  22
ATOM     22  C   UNL     1       2.158   3.994  17.500  0.00  0.00    +0.000 C 
ATOM     23  O   UNL     1       1.038   4.421  17.257  0.00  0.00    +0.000 OA
BRANCH  22  25
ATOM     24  C   UNL     1       1.531   2.155  18.832  0.00  0.00    +0.000 C 
ATOM     25  O   UNL     1       2.435   2.710  17.874  0.00  0.00    +0.000 OA
ENDBRANCH  22  25
ENDBRANCH   1  22
TORSDOF 3
ENDMDL
MODEL 2
REMARK VINA RESULT:      -7.2      2.907      4.665
REMARK  Name = 
REMARK  5 active torsions:
REMARK  status: ('A' for Active; 'I' for Inactive)
REMARK    1  A    between atoms: C_1  and  O_2
REMARK    2  A    between atoms: O_2  and  C_3
REMARK    3  A    between atoms: C_3  and  C_5
REMARK    4  A    between atoms: C_19  and  C_20
REMARK    5  A    between atoms: N_24  and  C_25
REMARK                            x       y       z     vdW  Elec       q    Type
REMARK                         _______ _______ _______ _____ _____    ______ ____
ROOT
ATOM      1  C   UNL     1       6.659   4.581  16.788  0.00  0.00    +0.000 C 
ATOM      2  C   UNL     1       5.294   4.473  17.470  0.00  0.00    +0.000 C 
ATOM      3  N   UNL     1       4.563   5.660  17.047  0.00  0.00    +0.000 N 
ATOM      4  C   UNL     1       3.685   6.348  17.858  0.00  0.00    +0.000 A 
ATOM      5  C   UNL     1       3.065   5.784  18.976  0.00  0.00    +0.000 A 
ATOM      6  N   UNL     1       2.174   6.426  19.774  0.00  0.00    +0.000 NA
ATOM      7  C   UNL     1       1.875   7.686  19.420  0.00  0.00    +0.000 A 
ATOM      8  C   UNL     1       0.936   8.405  20.151  0.00  0.00    +0.000 A 
ATOM      9  C   UNL     1       0.587   9.711  19.800  0.00  0.00    +0.000 A 
ATOM     10  C   UNL     1       1.205  10.314  18.713  0.00  0.00    +0.000 A 
ATOM     11  C   UNL     1       2.154   9.601  17.978  0.00  0.00    +0.000 A 
ATOM     12  C   UNL     1       2.491   8.292  18.302  0.00  0.00    +0.000 A 
ATOM     13  N   UNL     1       3.384   7.626  17.539  0.00  0.00    +0.000 NA
ATOM     14  C   UNL     1       5.263   6.385  15.984  0.00  0.00    +0.000 C 
ATOM     15  C   UNL     1       6.416   5.451  15.543  0.00  0.00    +0.000 C 
ENDROOT
BRANCH  15  16
ATOM     16  C   UNL     1       6.096   4.619  14.325  0.00  0.00    +0.000 A 
ATOM     17  C   UNL     1       5.024   3.793  14.041  0.00  0.00    +0.000 A 
ATOM     18  N   UNL     1       5.123   3.254  12.785  0.00  0.00    +0.000 NA
ATOM     19  C   UNL     1       6.233   3.742  12.288  0.00  0.00    +0.000 A 
ATOM     20  N   UNL     1       6.869   4.558  13.182  0.00  0.00    +0.000 N 
ATOM     21  C   UNL     1       8.124   5.219  12.920  0.00  0.00    +0.000 C 
ENDBRANCH  15  16
BRANCH   1  22
ATOM     22  C   UNL     1       7.649   5.213  17.744  0.00  0.00    +0.000 C 
ATOM     23  O   UNL     1       8.008   4.736  18.811  0.00  0.00    +0.000 OA
BRANCH  22  25
ATOM     24  C   UNL     1       7.956   7.498  18.225  0.00  0.00    +0.000 C 
ATOM     25  O   UNL     1       8.032   6.436  17.272  0.00  0.00    +0.000 OA
ENDBRANCH  22  25
ENDBRANCH   1  22
TORSDOF 3
ENDMDL
MODEL 3
REMARK VINA RESULT:      -7.1      4.549      6.230
REMARK  Name = 
REMARK  5 active torsions:
REMARK  status: ('A' for Active; 'I' for Inactive)
REMARK    1  A    between atoms: C_1  and  O_2
REMARK    2  A    between atoms: O_2  and  C_3
REMARK    3  A    between atoms: C_3  and  C_5
REMARK    4  A    between atoms: C_19  and  C_20
REMARK    5  A    between atoms: N_24  and  C_25
REMARK                            x       y       z     vdW  Elec       q    Type
REMARK                         _______ _______ _______ _____ _____    ______ ____
ROOT
ATOM      1  C   UNL     1       6.916   5.600  15.945  0.00  0.00    +0.000 C 
ATOM      2  C   UNL     1       6.789   4.484  16.985  0.00  0.00    +0.000 C 
ATOM      3  N   UNL     1       5.373   4.141  17.003  0.00  0.00    +0.000 N 
ATOM      4  C   UNL     1       4.689   3.778  18.144  0.00  0.00    +0.000 A 
ATOM      5  C   UNL     1       5.311   3.279  19.291  0.00  0.00    +0.000 A 
ATOM      6  N   UNL     1       4.662   2.884  20.416  0.00  0.00    +0.000 NA
ATOM      7  C   UNL     1       3.323   2.975  20.380  0.00  0.00    +0.000 A 
ATOM      8  C   UNL     1       2.571   2.548  21.469  0.00  0.00    +0.000 A 
ATOM      9  C   UNL     1       1.176   2.611  21.458  0.00  0.00    +0.000 A 
ATOM     10  C   UNL     1       0.525   3.129  20.347  0.00  0.00    +0.000 A 
ATOM     11  C   UNL     1       1.273   3.565  19.252  0.00  0.00    +0.000 A 
ATOM     12  C   UNL     1       2.660   3.485  19.240  0.00  0.00    +0.000 A 
ATOM     13  N   UNL     1       3.342   3.881  18.144  0.00  0.00    +0.000 NA
ATOM     14  C   UNL     1       4.639   4.782  15.910  0.00  0.00    +0.000 C 
ATOM     15  C   UNL     1       5.726   5.395  14.993  0.00  0.00    +0.000 C 
ENDROOT
BRANCH  15  16
ATOM     16  C   UNL     1       6.088   4.527  13.812  0.00  0.00    +0.000 A 
ATOM     17  C   UNL     1       5.464   3.417  13.271  0.00  0.00    +0.000 A 
ATOM     18  N   UNL     1       6.129   2.956  12.165  0.00  0.00    +0.000 NA
ATOM     19  C   UNL     1       7.146   3.770  12.011  0.00  0.00    +0.000 A 
ATOM     20  N   UNL     1       7.179   4.725  12.989  0.00  0.00    +0.000 N 
ATOM     21  C   UNL     1       8.197   5.742  13.088  0.00  0.00    +0.000 C 
ENDBRANCH  15  16
BRANCH   1  22
ATOM     22  C   UNL     1       6.866   6.943  16.643  0.00  0.00    +0.000 C 
ATOM     23  O   UNL     1       5.850   7.579  16.885  0.00  0.00    +0.000 OA
BRANCH  22  25
ATOM     24  C   UNL     1       8.224   8.435  17.858  0.00  0.00    +0.000 C 
ATOM     25  O   UNL     1       8.135   7.376  16.903  0.00  0.00    +0.000 OA
ENDBRANCH  22  25
ENDBRANCH   1  22
TORSDOF 3
ENDMDL
MODEL 4
REMARK VINA RESULT:      -6.9      3.851      8.881
REMARK  Name = 
REMARK  5 active torsions:
REMARK  status: ('A' for Active; 'I' for Inactive)
REMARK    1  A    between atoms: C_1  and  O_2
REMARK    2  A    between atoms: O_2  and  C_3
REMARK    3  A    between atoms: C_3  and  C_5
REMARK    4  A    between atoms: C_19  and  C_20
REMARK    5  A    between atoms: N_24  and  C_25
REMARK                            x       y       z     vdW  Elec       q    Type
REMARK                         _______ _______ _______ _____ _____    ______ ____
ROOT
ATOM      1  C   UNL     1       0.361  12.969  20.073  0.00  0.00    +0.000 C 
ATOM      2  C   UNL     1       0.579  11.998  18.910  0.00  0.00    +0.000 C 
ATOM      3  N   UNL     1       0.468  10.670  19.499  0.00  0.00    +0.000 N 
ATOM      4  C   UNL     1       1.228   9.590  19.100  0.00  0.00    +0.000 A 
ATOM      5  C   UNL     1       1.849   9.504  17.852  0.00  0.00    +0.000 A 
ATOM      6  N   UNL     1       2.576   8.442  17.419  0.00  0.00    +0.000 NA
ATOM      7  C   UNL     1       2.665   7.409  18.272  0.00  0.00    +0.000 A 
ATOM      8  C   UNL     1       3.349   6.259  17.896  0.00  0.00    +0.000 A 
ATOM      9  C   UNL     1       3.446   5.159  18.751  0.00  0.00    +0.000 A 
ATOM     10  C   UNL     1       2.866   5.220  20.011  0.00  0.00    +0.000 A 
ATOM     11  C   UNL     1       2.183   6.374  20.398  0.00  0.00    +0.000 A 
ATOM     12  C   UNL     1       2.058   7.466  19.547  0.00  0.00    +0.000 A 
ATOM     13  N   UNL     1       1.354   8.546  19.948  0.00  0.00    +0.000 NA
ATOM     14  C   UNL     1      -0.022  10.721  20.878  0.00  0.00    +0.000 C 
ATOM     15  C   UNL     1      -0.476  12.185  21.097  0.00  0.00    +0.000 C 
ENDROOT
BRANCH  15  16
ATOM     16  C   UNL     1      -1.958  12.400  20.901  0.00  0.00    +0.000 A 
ATOM     17  C   UNL     1      -2.724  12.470  19.752  0.00  0.00    +0.000 A 
ATOM     18  N   UNL     1      -4.052  12.646  20.044  0.00  0.00    +0.000 NA
ATOM     19  C   UNL     1      -4.115  12.675  21.353  0.00  0.00    +0.000 A 
ATOM     20  N   UNL     1      -2.877  12.549  21.920  0.00  0.00    +0.000 N 
ATOM     21  C   UNL     1      -2.636  12.569  23.342  0.00  0.00    +0.000 C 
ENDBRANCH  15  16
BRANCH   1  22
ATOM     22  C   UNL     1       1.704  13.390  20.632  0.00  0.00    +0.000 C 
ATOM     23  O   UNL     1       1.907  13.772  21.776  0.00  0.00    +0.000 OA
BRANCH  22  25
ATOM     24  C   UNL     1       3.235  14.609  19.323  0.00  0.00    +0.000 C 
ATOM     25  O   UNL     1       2.650  13.346  19.648  0.00  0.00    +0.000 OA
ENDBRANCH  22  25
ENDBRANCH   1  22
TORSDOF 3
ENDMDL
MODEL 5
REMARK VINA RESULT:      -6.9      3.988      9.123
REMARK  Name = 
REMARK  5 active torsions:
REMARK  status: ('A' for Active; 'I' for Inactive)
REMARK    1  A    between atoms: C_1  and  O_2
REMARK    2  A    between atoms: O_2  and  C_3
REMARK    3  A    between atoms: C_3  and  C_5
REMARK    4  A    between atoms: C_19  and  C_20
REMARK    5  A    between atoms: N_24  and  C_25
REMARK                            x       y       z     vdW  Elec       q    Type
REMARK                         _______ _______ _______ _____ _____    ______ ____
ROOT
ATOM      1  C   UNL     1       0.082  13.165  20.313  0.00  0.00    +0.000 C 
ATOM      2  C   UNL     1       0.336  12.242  19.119  0.00  0.00    +0.000 C 
ATOM      3  N   UNL     1       0.249  10.891  19.658  0.00  0.00    +0.000 N 
ATOM      4  C   UNL     1       1.037   9.844  19.230  0.00  0.00    +0.000 A 
ATOM      5  C   UNL     1       1.675   9.817  17.988  0.00  0.00    +0.000 A 
ATOM      6  N   UNL     1       2.431   8.787  17.527  0.00  0.00    +0.000 NA
ATOM      7  C   UNL     1       2.534   7.727  18.344  0.00  0.00    +0.000 A 
ATOM      8  C   UNL     1       3.248   6.606  17.935  0.00  0.00    +0.000 A 
ATOM      9  C   UNL     1       3.360   5.479  18.751  0.00  0.00    +0.000 A 
ATOM     10  C   UNL     1       2.764   5.481  20.005  0.00  0.00    +0.000 A 
ATOM     11  C   UNL     1       2.050   6.605  20.425  0.00  0.00    +0.000 A 
ATOM     12  C   UNL     1       1.910   7.724  19.612  0.00  0.00    +0.000 A 
ATOM     13  N   UNL     1       1.177   8.773  20.042  0.00  0.00    +0.000 NA
ATOM     14  C   UNL     1      -0.260  10.881  21.032  0.00  0.00    +0.000 C 
ATOM     15  C   UNL     1      -0.749  12.325  21.297  0.00  0.00    +0.000 C 
ENDROOT
BRANCH  15  16
ATOM     16  C   UNL     1      -2.233  12.515  21.090  0.00  0.00    +0.000 A 
ATOM     17  C   UNL     1      -2.975  12.710  19.939  0.00  0.00    +0.000 A 
ATOM     18  N   UNL     1      -4.315  12.801  20.214  0.00  0.00    +0.000 NA
ATOM     19  C   UNL     1      -4.409  12.654  21.514  0.00  0.00    +0.000 A 
ATOM     20  N   UNL     1      -3.181  12.496  22.094  0.00  0.00    +0.000 N 
ATOM     21  C   UNL     1      -2.974  12.335  23.512  0.00  0.00    +0.000 C 
ENDBRANCH  15  16
BRANCH   1  22
ATOM     22  C   UNL     1       1.408  13.595  20.904  0.00  0.00    +0.000 C 
ATOM     23  O   UNL     1       2.504  13.414  20.394  0.00  0.00    +0.000 OA
BRANCH  22  25
ATOM     24  C   UNL     1       1.471  15.558  22.203  0.00  0.00    +0.000 C 
ATOM     25  O   UNL     1       1.205  14.156  22.133  0.00  0.00    +0.000 OA
ENDBRANCH  22  25
ENDBRANCH   1  22
TORSDOF 3
ENDMDL
MODEL 6
REMARK VINA RESULT:      -6.9      2.531      7.663
REMARK  Name = 
REMARK  5 active torsions:
REMARK  status: ('A' for Active; 'I' for Inactive)
REMARK    1  A    between atoms: C_1  and  O_2
REMARK    2  A    between atoms: O_2  and  C_3
REMARK    3  A    between atoms: C_3  and  C_5
REMARK    4  A    between atoms: C_19  and  C_20
REMARK    5  A    between atoms: N_24  and  C_25
REMARK                            x       y       z     vdW  Elec       q    Type
REMARK                         _______ _______ _______ _____ _____    ______ ____
ROOT
ATOM      1  C   UNL     1       4.301   5.733  19.317  0.00  0.00    +0.000 C 
ATOM      2  C   UNL     1       5.401   6.070  18.309  0.00  0.00    +0.000 C 
ATOM      3  N   UNL     1       4.812   5.806  17.003  0.00  0.00    +0.000 N 
ATOM      4  C   UNL     1       5.517   5.290  15.935  0.00  0.00    +0.000 A 
ATOM      5  C   UNL     1       6.907   5.364  15.821  0.00  0.00    +0.000 A 
ATOM      6  N   UNL     1       7.624   4.894  14.768  0.00  0.00    +0.000 NA
ATOM      7  C   UNL     1       6.910   4.342  13.775  0.00  0.00    +0.000 A 
ATOM      8  C   UNL     1       7.556   3.876  12.636  0.00  0.00    +0.000 A 
ATOM      9  C   UNL     1       6.843   3.312  11.575  0.00  0.00    +0.000 A 
ATOM     10  C   UNL     1       5.463   3.194  11.667  0.00  0.00    +0.000 A 
ATOM     11  C   UNL     1       4.808   3.654  12.811  0.00  0.00    +0.000 A 
ATOM     12  C   UNL     1       5.503   4.240  13.862  0.00  0.00    +0.000 A 
ATOM     13  N   UNL     1       4.825   4.707  14.932  0.00  0.00    +0.000 NA
ATOM     14  C   UNL     1       3.372   5.552  17.092  0.00  0.00    +0.000 C 
ATOM     15  C   UNL     1       2.983   5.911  18.546  0.00  0.00    +0.000 C 
ENDROOT
BRANCH  15  16
ATOM     16  C   UNL     1       2.421   7.305  18.700  0.00  0.00    +0.000 A 
ATOM     17  C   UNL     1       2.407   8.383  17.834  0.00  0.00    +0.000 A 
ATOM     18  N   UNL     1       1.752   9.456  18.379  0.00  0.00    +0.000 NA
ATOM     19  C   UNL     1       1.354   9.052  19.561  0.00  0.00    +0.000 A 
ATOM     20  N   UNL     1       1.747   7.767  19.813  0.00  0.00    +0.000 N 
ATOM     21  C   UNL     1       1.470   7.066  21.042  0.00  0.00    +0.000 C 
ENDBRANCH  15  16
BRANCH   1  22
ATOM     22  C   UNL     1       4.489   4.313  19.808  0.00  0.00    +0.000 C 
ATOM     23  O   UNL     1       5.504   3.643  19.672  0.00  0.00    +0.000 OA
BRANCH  22  25
ATOM     24  C   UNL     1       2.926   2.556  19.941  0.00  0.00    +0.000 C 
ATOM     25  O   UNL     1       3.328   3.859  20.368  0.00  0.00    +0.000 OA
ENDBRANCH  22  25
ENDBRANCH   1  22
TORSDOF 3
ENDMDL
MODEL 7
REMARK VINA RESULT:      -6.7      3.155      7.655
REMARK  Name = 
REMARK  5 active torsions:
REMARK  status: ('A' for Active; 'I' for Inactive)
REMARK    1  A    between atoms: C_1  and  O_2
REMARK    2  A    between atoms: O_2  and  C_3
REMARK    3  A    between atoms: C_3  and  C_5
REMARK    4  A    between atoms: C_19  and  C_20
REMARK    5  A    between atoms: N_24  and  C_25
REMARK                            x       y       z     vdW  Elec       q    Type
REMARK                         _______ _______ _______ _____ _____    ______ ____
ROOT
ATOM      1  C   UNL     1      -0.290  10.773  19.332  0.00  0.00    +0.000 C 
ATOM      2  C   UNL     1       0.388   9.544  19.940  0.00  0.00    +0.000 C 
ATOM      3  N   UNL     1       1.627   9.384  19.191  0.00  0.00    +0.000 N 
ATOM      4  C   UNL     1       2.173   8.159  18.867  0.00  0.00    +0.000 A 
ATOM      5  C   UNL     1       1.878   6.978  19.552  0.00  0.00    +0.000 A 
ATOM      6  N   UNL     1       2.423   5.766  19.275  0.00  0.00    +0.000 NA
ATOM      7  C   UNL     1       3.321   5.743  18.278  0.00  0.00    +0.000 A 
ATOM      8  C   UNL     1       3.967   4.554  17.956  0.00  0.00    +0.000 A 
ATOM      9  C   UNL     1       4.920   4.497  16.937  0.00  0.00    +0.000 A 
ATOM     10  C   UNL     1       5.216   5.645  16.215  0.00  0.00    +0.000 A 
ATOM     11  C   UNL     1       4.568   6.841  16.528  0.00  0.00    +0.000 A 
ATOM     12  C   UNL     1       3.635   6.916  17.557  0.00  0.00    +0.000 A 
ATOM     13  N   UNL     1       3.063   8.103  17.852  0.00  0.00    +0.000 NA
ATOM     14  C   UNL     1       1.895  10.533  18.323  0.00  0.00    +0.000 C 
ATOM     15  C   UNL     1       0.856  11.605  18.731  0.00  0.00    +0.000 C 
ENDROOT
BRANCH  15  16
ATOM     16  C   UNL     1       1.386  12.627  19.708  0.00  0.00    +0.000 A 
ATOM     17  C   UNL     1       1.089  12.855  21.039  0.00  0.00    +0.000 A 
ATOM     18  N   UNL     1       1.841  13.879  21.553  0.00  0.00    +0.000 NA
ATOM     19  C   UNL     1       2.603  14.277  20.563  0.00  0.00    +0.000 A 
ATOM     20  N   UNL     1       2.356  13.567  19.421  0.00  0.00    +0.000 N 
ATOM     21  C   UNL     1       3.028  13.800  18.166  0.00  0.00    +0.000 C 
ENDBRANCH  15  16
BRANCH   1  22
ATOM     22  C   UNL     1      -1.286  10.329  18.282  0.00  0.00    +0.000 C 
ATOM     23  O   UNL     1      -1.031   9.624  17.315  0.00  0.00    +0.000 OA
BRANCH  22  25
ATOM     24  C   UNL     1      -3.184  11.392  17.381  0.00  0.00    +0.000 C 
ATOM     25  O   UNL     1      -2.505  10.890  18.533  0.00  0.00    +0.000 OA
ENDBRANCH  22  25
ENDBRANCH   1  22
TORSDOF 3
ENDMDL
MODEL 8
REMARK VINA RESULT:      -6.7      2.334      7.338
REMARK  Name = 
REMARK  5 active torsions:
REMARK  status: ('A' for Active; 'I' for Inactive)
REMARK    1  A    between atoms: C_1  and  O_2
REMARK    2  A    between atoms: O_2  and  C_3
REMARK    3  A    between atoms: C_3  and  C_5
REMARK    4  A    between atoms: C_19  and  C_20
REMARK    5  A    between atoms: N_24  and  C_25
REMARK                            x       y       z     vdW  Elec       q    Type
REMARK                         _______ _______ _______ _____ _____    ______ ____
ROOT
ATOM      1  C   UNL     1       3.978   4.567  19.964  0.00  0.00    +0.000 C 
ATOM      2  C   UNL     1       5.160   5.073  19.136  0.00  0.00    +0.000 C 
ATOM      3  N   UNL     1       4.661   5.151  17.769  0.00  0.00    +0.000 N 
ATOM      4  C   UNL     1       5.425   4.862  16.658  0.00  0.00    +0.000 A 
ATOM      5  C   UNL     1       6.822   4.892  16.654  0.00  0.00    +0.000 A 
ATOM      6  N   UNL     1       7.599   4.644  15.568  0.00  0.00    +0.000 NA
ATOM      7  C   UNL     1       6.942   4.374  14.429  0.00  0.00    +0.000 A 
ATOM      8  C   UNL     1       7.654   4.154  13.256  0.00  0.00    +0.000 A 
ATOM      9  C   UNL     1       7.003   3.889  12.049  0.00  0.00    +0.000 A 
ATOM     10  C   UNL     1       5.617   3.823  12.022  0.00  0.00    +0.000 A 
ATOM     11  C   UNL     1       4.895   4.036  13.197  0.00  0.00    +0.000 A 
ATOM     12  C   UNL     1       5.530   4.325  14.399  0.00  0.00    +0.000 A 
ATOM     13  N   UNL     1       4.790   4.565  15.503  0.00  0.00    +0.000 NA
ATOM     14  C   UNL     1       3.211   4.955  17.704  0.00  0.00    +0.000 C 
ATOM     15  C   UNL     1       2.727   4.986  19.174  0.00  0.00    +0.000 C 
ENDROOT
BRANCH  15  16
ATOM     16  C   UNL     1       2.203   6.331  19.615  0.00  0.00    +0.000 A 
ATOM     17  C   UNL     1       1.534   6.716  20.763  0.00  0.00    +0.000 A 
ATOM     18  N   UNL     1       1.273   8.062  20.765  0.00  0.00    +0.000 NA
ATOM     19  C   UNL     1       1.780   8.512  19.643  0.00  0.00    +0.000 A 
ATOM     20  N   UNL     1       2.336   7.506  18.903  0.00  0.00    +0.000 N 
ATOM     21  C   UNL     1       2.949   7.700  17.611  0.00  0.00    +0.000 C 
ENDBRANCH  15  16
BRANCH   1  22
ATOM     22  C   UNL     1       4.081   3.064  20.118  0.00  0.00    +0.000 C 
ATOM     23  O   UNL     1       5.107   2.408  20.002  0.00  0.00    +0.000 OA
BRANCH  22  25
ATOM     24  C   UNL     1       2.343   2.699  21.665  0.00  0.00    +0.000 C 
ATOM     25  O   UNL     1       2.841   2.535  20.335  0.00  0.00    +0.000 OA
ENDBRANCH  22  25
ENDBRANCH   1  22
TORSDOF 3
ENDMDL
MODEL 9
REMARK VINA RESULT:      -6.6      3.423      8.027
REMARK  Name = 
REMARK  5 active torsions:
REMARK  status: ('A' for Active; 'I' for Inactive)
REMARK    1  A    between atoms: C_1  and  O_2
REMARK    2  A    between atoms: O_2  and  C_3
REMARK    3  A    between atoms: C_3  and  C_5
REMARK    4  A    between atoms: C_19  and  C_20
REMARK    5  A    between atoms: N_24  and  C_25
REMARK                            x       y       z     vdW  Elec       q    Type
REMARK                         _______ _______ _______ _____ _____    ______ ____
ROOT
ATOM      1  C   UNL     1      -0.618  11.673  19.794  0.00  0.00    +0.000 C 
ATOM      2  C   UNL     1       0.014  10.562  20.634  0.00  0.00    +0.000 C 
ATOM      3  N   UNL     1       1.128  10.069  19.836  0.00  0.00    +0.000 N 
ATOM      4  C   UNL     1       1.512   8.744  19.793  0.00  0.00    +0.000 A 
ATOM      5  C   UNL     1       1.198   7.818  20.790  0.00  0.00    +0.000 A 
ATOM      6  N   UNL     1       1.588   6.517  20.790  0.00  0.00    +0.000 NA
ATOM      7  C   UNL     1       2.346   6.135  19.751  0.00  0.00    +0.000 A 
ATOM      8  C   UNL     1       2.832   4.834  19.692  0.00  0.00    +0.000 A 
ATOM      9  C   UNL     1       3.639   4.407  18.635  0.00  0.00    +0.000 A 
ATOM     10  C   UNL     1       3.947   5.292  17.611  0.00  0.00    +0.000 A 
ATOM     11  C   UNL     1       3.458   6.599  17.660  0.00  0.00    +0.000 A 
ATOM     12  C   UNL     1       2.675   7.043  18.719  0.00  0.00    +0.000 A 
ATOM     13  N   UNL     1       2.257   8.326  18.746  0.00  0.00    +0.000 NA
ATOM     14  C   UNL     1       1.390  10.921  18.674  0.00  0.00    +0.000 C 
ATOM     15  C   UNL     1       0.515  12.180  18.886  0.00  0.00    +0.000 C 
ENDROOT
BRANCH  15  16
ATOM     16  C   UNL     1       1.258  13.342  19.502  0.00  0.00    +0.000 A 
ATOM     17  C   UNL     1       2.425  13.388  20.242  0.00  0.00    +0.000 A 
ATOM     18  N   UNL     1       2.758  14.675  20.575  0.00  0.00    +0.000 NA
ATOM     19  C   UNL     1       1.821  15.422  20.044  0.00  0.00    +0.000 A 
ATOM     20  N   UNL     1       0.880  14.666  19.400  0.00  0.00    +0.000 N 
ATOM     21  C   UNL     1      -0.280  15.214  18.741  0.00  0.00    +0.000 C 
ENDBRANCH  15  16
BRANCH   1  22
ATOM     22  C   UNL     1      -1.776  11.105  19.001  0.00  0.00    +0.000 C 
ATOM     23  O   UNL     1      -1.800  10.003  18.471  0.00  0.00    +0.000 OA
BRANCH  22  25
ATOM     24  C   UNL     1      -3.057  12.739  20.113  0.00  0.00    +0.000 C 
ATOM     25  O   UNL     1      -2.770  12.037  18.902  0.00  0.00    +0.000 OA
ENDBRANCH  22  25
ENDBRANCH   1  22
TORSDOF 3
ENDMDL
