MODEL 1
REMARK VINA RESULT:      -7.6      0.000      0.000
REMARK  Name = 
REMARK  6 active torsions:
REMARK  status: ('A' for Active; 'I' for Inactive)
REMARK    1  A    between atoms: C_1  and  C_2
REMARK    2  A    between atoms: N_4  and  C_5
REMARK    3  A    between atoms: C_7  and  N_8
REMARK    4  A    between atoms: C_10  and  C_11
REMARK    5  A    between atoms: C_18  and  C_19
REMARK    6  A    between atoms: C_19  and  O_20
REMARK                            x       y       z     vdW  Elec       q    Type
REMARK                         _______ _______ _______ _____ _____    ______ ____
ROOT
ATOM      1  C   UNL     1       3.447   5.289  18.779  0.00  0.00    +0.000 C 
ATOM      2  C   UNL     1       4.914   5.376  19.135  0.00  0.00    +0.000 C 
ATOM      3  C   UNL     1       5.538   4.251  18.324  0.00  0.00    +0.000 C 
ATOM      4  O   UNL     1       4.533   3.221  18.237  0.00  0.00    +0.000 OA
ATOM      5  C   UNL     1       3.246   3.782  18.607  0.00  0.00    +0.000 C 
ENDROOT
BRANCH   3   6
ATOM      6  N   UNL     1       6.004   4.637  16.988  0.00  0.00    +0.000 N 
ATOM      7  C   UNL     1       5.487   4.052  15.849  0.00  0.00    +0.000 A 
ATOM      8  C   UNL     1       5.983   4.271  14.626  0.00  0.00    +0.000 A 
ATOM      9  C   UNL     1       5.465   3.615  13.388  0.00  0.00    +0.000 C 
ATOM     10  C   UNL     1       7.139   5.183  14.500  0.00  0.00    +0.000 A 
ATOM     11  O   UNL     1       7.695   5.385  13.424  0.00  0.00    +0.000 OA
ATOM     12  N   UNL     1       7.561   5.768  15.657  0.00  0.00    +0.000 N 
ATOM     13  C   UNL     1       7.118   5.468  16.918  0.00  0.00    +0.000 A 
ATOM     14  O   UNL     1       7.707   5.916  17.901  0.00  0.00    +0.000 OA
ATOM     15  H   UNL     1       8.378   6.355  15.593  0.00  0.00    +0.000 HD
ENDBRANCH   3   6
BRANCH   1  19
ATOM     16  C   UNL     1       1.396   7.661  20.905  0.00  0.00    +0.000 C 
ATOM     17  C   UNL     1       2.207   7.213  19.720  0.00  0.00    +0.000 C 
ATOM     18  O   UNL     1       2.478   7.948  18.778  0.00  0.00    +0.000 OA
ATOM     19  N   UNL     1       2.623   5.905  19.806  0.00  0.00    +0.000 N 
ATOM     20  H   UNL     1       2.301   5.347  20.588  0.00  0.00    +0.000 HD
ENDBRANCH   1  19
BRANCH   5  21
ATOM     21  C   UNL     1       2.219   3.428  17.528  0.00  0.00    +0.000 C 
BRANCH  21  22
ATOM     22  O   UNL     1       1.166   4.394  17.506  0.00  0.00    +0.000 OA
ATOM     23  H   UNL     1       1.542   5.203  17.113  0.00  0.00    +0.000 HD
ENDBRANCH  21  22
ENDBRANCH   5  21
TORSDOF 4
ENDMDL
MODEL 2
REMARK VINA RESULT:      -7.4      1.669      6.092
REMARK  Name = 
REMARK  6 active torsions:
REMARK  status: ('A' for Active; 'I' for Inactive)
REMARK    1  A    between atoms: C_1  and  C_2
REMARK    2  A    between atoms: N_4  and  C_5
REMARK    3  A    between atoms: C_7  and  N_8
REMARK    4  A    between atoms: C_10  and  C_11
REMARK    5  A    between atoms: C_18  and  C_19
REMARK    6  A    between atoms: C_19  and  O_20
REMARK                            x       y       z     vdW  Elec       q    Type
REMARK                         _______ _______ _______ _____ _____    ______ ____
ROOT
ATOM      1  C   UNL     1       4.746   4.477  16.919  0.00  0.00    +0.000 C 
ATOM      2  C   UNL     1       3.429   3.855  17.324  0.00  0.00    +0.000 C 
ATOM      3  C   UNL     1       3.370   4.108  18.822  0.00  0.00    +0.000 C 
ATOM      4  O   UNL     1       4.735   4.080  19.283  0.00  0.00    +0.000 OA
ATOM      5  C   UNL     1       5.624   4.199  18.141  0.00  0.00    +0.000 C 
ENDROOT
BRANCH   3   6
ATOM      6  N   UNL     1       2.715   5.362  19.211  0.00  0.00    +0.000 N 
ATOM      7  C   UNL     1       2.721   6.465  18.380  0.00  0.00    +0.000 A 
ATOM      8  C   UNL     1       2.263   7.664  18.755  0.00  0.00    +0.000 A 
ATOM      9  C   UNL     1       2.301   8.878  17.886  0.00  0.00    +0.000 C 
ATOM     10  C   UNL     1       1.729   7.804  20.126  0.00  0.00    +0.000 A 
ATOM     11  O   UNL     1       1.351   8.885  20.570  0.00  0.00    +0.000 OA
ATOM     12  N   UNL     1       1.701   6.663  20.871  0.00  0.00    +0.000 N 
ATOM     13  C   UNL     1       2.260   5.462  20.523  0.00  0.00    +0.000 A 
ATOM     14  O   UNL     1       2.346   4.558  21.353  0.00  0.00    +0.000 OA
ATOM     15  H   UNL     1       1.383   6.753  21.823  0.00  0.00    +0.000 HD
ENDBRANCH   3   6
BRANCH   1  19
ATOM     16  C   UNL     1       6.295   3.880  13.512  0.00  0.00    +0.000 C 
ATOM     17  C   UNL     1       5.917   4.655  14.744  0.00  0.00    +0.000 C 
ATOM     18  O   UNL     1       6.185   5.841  14.899  0.00  0.00    +0.000 OA
ATOM     19  N   UNL     1       5.231   3.906  15.672  0.00  0.00    +0.000 N 
ATOM     20  H   UNL     1       5.108   2.916  15.496  0.00  0.00    +0.000 HD
ENDBRANCH   1  19
BRANCH   5  21
ATOM     21  C   UNL     1       6.644   5.307  18.417  0.00  0.00    +0.000 C 
BRANCH  21  22
ATOM     22  O   UNL     1       7.705   5.258  17.459  0.00  0.00    +0.000 OA
ATOM     23  H   UNL     1       7.347   5.630  16.633  0.00  0.00    +0.000 HD
ENDBRANCH  21  22
ENDBRANCH   5  21
TORSDOF 4
ENDMDL
MODEL 3
REMARK VINA RESULT:      -6.8      2.397      5.732
REMARK  Name = 
REMARK  6 active torsions:
REMARK  status: ('A' for Active; 'I' for Inactive)
REMARK    1  A    between atoms: C_1  and  C_2
REMARK    2  A    between atoms: N_4  and  C_5
REMARK    3  A    between atoms: C_7  and  N_8
REMARK    4  A    between atoms: C_10  and  C_11
REMARK    5  A    between atoms: C_18  and  C_19
REMARK    6  A    between atoms: C_19  and  O_20
REMARK                            x       y       z     vdW  Elec       q    Type
REMARK                         _______ _______ _______ _____ _____    ______ ____
ROOT
ATOM      1  C   UNL     1       6.127   6.479  17.498  0.00  0.00    +0.000 C 
ATOM      2  C   UNL     1       4.670   6.574  17.108  0.00  0.00    +0.000 C 
ATOM      3  C   UNL     1       4.267   5.122  16.905  0.00  0.00    +0.000 C 
ATOM      4  O   UNL     1       5.446   4.448  16.422  0.00  0.00    +0.000 OA
ATOM      5  C   UNL     1       6.606   5.286  16.668  0.00  0.00    +0.000 C 
ENDROOT
BRANCH   3   6
ATOM      6  N   UNL     1       3.739   4.454  18.100  0.00  0.00    +0.000 N 
ATOM      7  C   UNL     1       4.486   3.523  18.793  0.00  0.00    +0.000 A 
ATOM      8  C   UNL     1       3.992   2.790  19.797  0.00  0.00    +0.000 A 
ATOM      9  C   UNL     1       4.772   1.749  20.530  0.00  0.00    +0.000 C 
ATOM     10  C   UNL     1       2.577   2.994  20.172  0.00  0.00    +0.000 A 
ATOM     11  O   UNL     1       2.028   2.317  21.036  0.00  0.00    +0.000 OA
ATOM     12  N   UNL     1       1.916   3.968  19.483  0.00  0.00    +0.000 N 
ATOM     13  C   UNL     1       2.392   4.646  18.393  0.00  0.00    +0.000 A 
ATOM     14  O   UNL     1       1.638   5.361  17.733  0.00  0.00    +0.000 OA
ATOM     15  H   UNL     1       0.938   4.086  19.696  0.00  0.00    +0.000 HD
ENDBRANCH   3   6
BRANCH   1  19
ATOM     16  C   UNL     1       8.468   9.459  17.539  0.00  0.00    +0.000 C 
ATOM     17  C   UNL     1       7.927   8.118  17.952  0.00  0.00    +0.000 C 
ATOM     18  O   UNL     1       8.419   7.444  18.849  0.00  0.00    +0.000 OA
ATOM     19  N   UNL     1       6.821   7.729  17.232  0.00  0.00    +0.000 N 
ATOM     20  H   UNL     1       6.517   8.314  16.462  0.00  0.00    +0.000 HD
ENDBRANCH   1  19
BRANCH   5  21
ATOM     21  C   UNL     1       7.682   4.453  17.372  0.00  0.00    +0.000 C 
BRANCH  21  22
ATOM     22  O   UNL     1       7.751   4.796  18.758  0.00  0.00    +0.000 OA
ATOM     23  H   UNL     1       7.607   5.758  18.811  0.00  0.00    +0.000 HD
ENDBRANCH  21  22
ENDBRANCH   5  21
TORSDOF 4
ENDMDL
MODEL 4
REMARK VINA RESULT:      -6.6      1.783      6.072
REMARK  Name = 
REMARK  6 active torsions:
REMARK  status: ('A' for Active; 'I' for Inactive)
REMARK    1  A    between atoms: C_1  and  C_2
REMARK    2  A    between atoms: N_4  and  C_5
REMARK    3  A    between atoms: C_7  and  N_8
REMARK    4  A    between atoms: C_10  and  C_11
REMARK    5  A    between atoms: C_18  and  C_19
REMARK    6  A    between atoms: C_19  and  O_20
REMARK                            x       y       z     vdW  Elec       q    Type
REMARK                         _______ _______ _______ _____ _____    ______ ____
ROOT
ATOM      1  C   UNL     1       6.466   5.404  16.608  0.00  0.00    +0.000 C 
ATOM      2  C   UNL     1       5.301   4.455  16.441  0.00  0.00    +0.000 C 
ATOM      3  C   UNL     1       4.935   4.097  17.873  0.00  0.00    +0.000 C 
ATOM      4  O   UNL     1       6.168   4.132  18.618  0.00  0.00    +0.000 OA
ATOM      5  C   UNL     1       7.173   4.834  17.840  0.00  0.00    +0.000 C 
ENDROOT
BRANCH   3   6
ATOM      6  N   UNL     1       3.929   4.969  18.489  0.00  0.00    +0.000 N 
ATOM      7  C   UNL     1       3.625   6.206  17.955  0.00  0.00    +0.000 A 
ATOM      8  C   UNL     1       2.824   7.088  18.563  0.00  0.00    +0.000 A 
ATOM      9  C   UNL     1       2.518   8.445  18.022  0.00  0.00    +0.000 C 
ATOM     10  C   UNL     1       2.244   6.710  19.869  0.00  0.00    +0.000 A 
ATOM     11  O   UNL     1       1.553   7.486  20.523  0.00  0.00    +0.000 OA
ATOM     12  N   UNL     1       2.541   5.454  20.308  0.00  0.00    +0.000 N 
ATOM     13  C   UNL     1       3.438   4.593  19.735  0.00  0.00    +0.000 A 
ATOM     14  O   UNL     1       3.771   3.566  20.327  0.00  0.00    +0.000 OA
ATOM     15  H   UNL     1       2.190   5.201  21.219  0.00  0.00    +0.000 HD
ENDBRANCH   3   6
BRANCH   1  19
ATOM     16  C   UNL     1       7.870   5.009  13.110  0.00  0.00    +0.000 C 
ATOM     17  C   UNL     1       6.865   4.878  14.221  0.00  0.00    +0.000 C 
ATOM     18  O   UNL     1       5.790   4.307  14.088  0.00  0.00    +0.000 OA
ATOM     19  N   UNL     1       7.278   5.451  15.402  0.00  0.00    +0.000 N 
ATOM     20  H   UNL     1       8.154   5.961  15.410  0.00  0.00    +0.000 HD
ENDBRANCH   1  19
BRANCH   5  21
ATOM     21  C   UNL     1       7.820   5.910  18.716  0.00  0.00    +0.000 C 
BRANCH  21  22
ATOM     22  O   UNL     1       7.679   5.577  20.100  0.00  0.00    +0.000 OA
ATOM     23  H   UNL     1       7.413   4.640  20.132  0.00  0.00    +0.000 HD
ENDBRANCH  21  22
ENDBRANCH   5  21
TORSDOF 4
ENDMDL
MODEL 5
REMARK VINA RESULT:      -6.6      1.860      6.224
REMARK  Name = 
REMARK  6 active torsions:
REMARK  status: ('A' for Active; 'I' for Inactive)
REMARK    1  A    between atoms: C_1  and  C_2
REMARK    2  A    between atoms: N_4  and  C_5
REMARK    3  A    between atoms: C_7  and  N_8
REMARK    4  A    between atoms: C_10  and  C_11
REMARK    5  A    between atoms: C_18  and  C_19
REMARK    6  A    between atoms: C_19  and  O_20
REMARK                            x       y       z     vdW  Elec       q    Type
REMARK                         _______ _______ _______ _____ _____    ______ ____
ROOT
ATOM      1  C   UNL     1       6.676   5.571  16.436  0.00  0.00    +0.000 C 
ATOM      2  C   UNL     1       6.591   4.216  17.102  0.00  0.00    +0.000 C 
ATOM      3  C   UNL     1       6.372   4.560  18.567  0.00  0.00    +0.000 C 
ATOM      4  O   UNL     1       7.066   5.804  18.790  0.00  0.00    +0.000 OA
ATOM      5  C   UNL     1       7.369   6.415  17.509  0.00  0.00    +0.000 C 
ENDROOT
BRANCH   3   6
ATOM      6  N   UNL     1       4.966   4.670  18.973  0.00  0.00    +0.000 N 
ATOM      7  C   UNL     1       4.293   5.874  18.914  0.00  0.00    +0.000 A 
ATOM      8  C   UNL     1       3.061   6.047  19.407  0.00  0.00    +0.000 A 
ATOM      9  C   UNL     1       2.334   7.351  19.391  0.00  0.00    +0.000 C 
ATOM     10  C   UNL     1       2.401   4.887  20.043  0.00  0.00    +0.000 A 
ATOM     11  O   UNL     1       1.299   4.978  20.578  0.00  0.00    +0.000 OA
ATOM     12  N   UNL     1       3.100   3.718  20.014  0.00  0.00    +0.000 N 
ATOM     13  C   UNL     1       4.397   3.566  19.600  0.00  0.00    +0.000 A 
ATOM     14  O   UNL     1       4.989   2.506  19.803  0.00  0.00    +0.000 OA
ATOM     15  H   UNL     1       2.682   2.931  20.485  0.00  0.00    +0.000 HD
ENDBRANCH   3   6
BRANCH   1  19
ATOM     16  C   UNL     1       7.739   4.887  12.864  0.00  0.00    +0.000 C 
ATOM     17  C   UNL     1       6.824   4.901  14.058  0.00  0.00    +0.000 C 
ATOM     18  O   UNL     1       5.695   4.427  14.041  0.00  0.00    +0.000 OA
ATOM     19  N   UNL     1       7.384   5.487  15.169  0.00  0.00    +0.000 N 
ATOM     20  H   UNL     1       8.299   5.913  15.080  0.00  0.00    +0.000 HD
ENDBRANCH   1  19
BRANCH   5  21
ATOM     21  C   UNL     1       6.899   7.872  17.528  0.00  0.00    +0.000 C 
BRANCH  21  22
ATOM     22  O   UNL     1       8.004   8.749  17.764  0.00  0.00    +0.000 OA
ATOM     23  H   UNL     1       8.202   8.692  18.716  0.00  0.00    +0.000 HD
ENDBRANCH  21  22
ENDBRANCH   5  21
TORSDOF 4
ENDMDL
MODEL 6
REMARK VINA RESULT:      -6.4      1.072      1.072
REMARK  Name = 
REMARK  6 active torsions:
REMARK  status: ('A' for Active; 'I' for Inactive)
REMARK    1  A    between atoms: C_1  and  C_2
REMARK    2  A    between atoms: N_4  and  C_5
REMARK    3  A    between atoms: C_7  and  N_8
REMARK    4  A    between atoms: C_10  and  C_11
REMARK    5  A    between atoms: C_18  and  C_19
REMARK    6  A    between atoms: C_19  and  O_20
REMARK                            x       y       z     vdW  Elec       q    Type
REMARK                         _______ _______ _______ _____ _____    ______ ____
ROOT
ATOM      1  C   UNL     1       3.419   5.598  18.048  0.00  0.00    +0.000 C 
ATOM      2  C   UNL     1       4.871   5.799  18.417  0.00  0.00    +0.000 C 
ATOM      3  C   UNL     1       5.557   4.585  17.811  0.00  0.00    +0.000 C 
ATOM      4  O   UNL     1       4.593   3.516  17.868  0.00  0.00    +0.000 OA
ATOM      5  C   UNL     1       3.277   4.076  18.116  0.00  0.00    +0.000 C 
ENDROOT
BRANCH   3   6
ATOM      6  N   UNL     1       6.045   4.773  16.440  0.00  0.00    +0.000 N 
ATOM      7  C   UNL     1       5.492   4.085  15.379  0.00  0.00    +0.000 A 
ATOM      8  C   UNL     1       5.999   4.118  14.141  0.00  0.00    +0.000 A 
ATOM      9  C   UNL     1       5.439   3.347  12.991  0.00  0.00    +0.000 C 
ATOM     10  C   UNL     1       7.211   4.933  13.912  0.00  0.00    +0.000 A 
ATOM     11  O   UNL     1       7.777   4.964  12.823  0.00  0.00    +0.000 OA
ATOM     12  N   UNL     1       7.670   5.629  14.990  0.00  0.00    +0.000 N 
ATOM     13  C   UNL     1       7.210   5.516  16.275  0.00  0.00    +0.000 A 
ATOM     14  O   UNL     1       7.827   6.045  17.200  0.00  0.00    +0.000 OA
ATOM     15  H   UNL     1       8.522   6.151  14.860  0.00  0.00    +0.000 HD
ENDBRANCH   3   6
BRANCH   1  19
ATOM     16  C   UNL     1       1.313   6.789  20.965  0.00  0.00    +0.000 C 
ATOM     17  C   UNL     1       2.267   5.897  20.219  0.00  0.00    +0.000 C 
ATOM     18  O   UNL     1       2.740   4.874  20.698  0.00  0.00    +0.000 OA
ATOM     19  N   UNL     1       2.545   6.336  18.946  0.00  0.00    +0.000 N 
ATOM     20  H   UNL     1       2.163   7.227  18.649  0.00  0.00    +0.000 HD
ENDBRANCH   1  19
BRANCH   5  21
ATOM     21  C   UNL     1       2.294   3.514  17.085  0.00  0.00    +0.000 C 
BRANCH  21  22
ATOM     22  O   UNL     1       0.972   3.995  17.343  0.00  0.00    +0.000 OA
ATOM     23  H   UNL     1       1.044   4.961  17.437  0.00  0.00    +0.000 HD
ENDBRANCH  21  22
ENDBRANCH   5  21
TORSDOF 4
ENDMDL
MODEL 7
REMARK VINA RESULT:      -6.4      1.762      6.168
REMARK  Name = 
REMARK  6 active torsions:
REMARK  status: ('A' for Active; 'I' for Inactive)
REMARK    1  A    between atoms: C_1  and  C_2
REMARK    2  A    between atoms: N_4  and  C_5
REMARK    3  A    between atoms: C_7  and  N_8
REMARK    4  A    between atoms: C_10  and  C_11
REMARK    5  A    between atoms: C_18  and  C_19
REMARK    6  A    between atoms: C_19  and  O_20
REMARK                            x       y       z     vdW  Elec       q    Type
REMARK                         _______ _______ _______ _____ _____    ______ ____
ROOT
ATOM      1  C   UNL     1       5.941   5.672  16.028  0.00  0.00    +0.000 C 
ATOM      2  C   UNL     1       4.796   4.686  16.095  0.00  0.00    +0.000 C 
ATOM      3  C   UNL     1       4.656   4.412  17.584  0.00  0.00    +0.000 C 
ATOM      4  O   UNL     1       5.984   4.525  18.133  0.00  0.00    +0.000 OA
ATOM      5  C   UNL     1       6.839   5.199  17.173  0.00  0.00    +0.000 C 
ENDROOT
BRANCH   3   6
ATOM      6  N   UNL     1       3.724   5.298  18.290  0.00  0.00    +0.000 N 
ATOM      7  C   UNL     1       3.392   6.541  17.787  0.00  0.00    +0.000 A 
ATOM      8  C   UNL     1       2.663   7.433  18.467  0.00  0.00    +0.000 A 
ATOM      9  C   UNL     1       2.329   8.796  17.956  0.00  0.00    +0.000 C 
ATOM     10  C   UNL     1       2.199   7.061  19.819  0.00  0.00    +0.000 A 
ATOM     11  O   UNL     1       1.582   7.846  20.534  0.00  0.00    +0.000 OA
ATOM     12  N   UNL     1       2.515   5.800  20.229  0.00  0.00    +0.000 N 
ATOM     13  C   UNL     1       3.344   4.927  19.576  0.00  0.00    +0.000 A 
ATOM     14  O   UNL     1       3.714   3.894  20.134  0.00  0.00    +0.000 OA
ATOM     15  H   UNL     1       2.246   5.551  21.168  0.00  0.00    +0.000 HD
ENDBRANCH   3   6
BRANCH   1  19
ATOM     16  C   UNL     1       7.374   4.714  12.654  0.00  0.00    +0.000 C 
ATOM     17  C   UNL     1       6.663   4.513  13.963  0.00  0.00    +0.000 C 
ATOM     18  O   UNL     1       6.225   3.428  14.328  0.00  0.00    +0.000 OA
ATOM     19  N   UNL     1       6.564   5.660  14.715  0.00  0.00    +0.000 N 
ATOM     20  H   UNL     1       6.894   6.530  14.312  0.00  0.00    +0.000 HD
ENDBRANCH   1  19
BRANCH   5  21
ATOM     21  C   UNL     1       7.573   6.343  17.878  0.00  0.00    +0.000 C 
BRANCH  21  22
ATOM     22  O   UNL     1       7.580   7.513  17.055  0.00  0.00    +0.000 OA
ATOM     23  H   UNL     1       8.181   8.148  17.484  0.00  0.00    +0.000 HD
ENDBRANCH  21  22
ENDBRANCH   5  21
TORSDOF 4
ENDMDL
MODEL 8
REMARK VINA RESULT:      -6.3      2.207      3.345
REMARK  Name = 
REMARK  6 active torsions:
REMARK  status: ('A' for Active; 'I' for Inactive)
REMARK    1  A    between atoms: C_1  and  C_2
REMARK    2  A    between atoms: N_4  and  C_5
REMARK    3  A    between atoms: C_7  and  N_8
REMARK    4  A    between atoms: C_10  and  C_11
REMARK    5  A    between atoms: C_18  and  C_19
REMARK    6  A    between atoms: C_19  and  O_20
REMARK                            x       y       z     vdW  Elec       q    Type
REMARK                         _______ _______ _______ _____ _____    ______ ____
ROOT
ATOM      1  C   UNL     1       3.109   3.401  18.995  0.00  0.00    +0.000 C 
ATOM      2  C   UNL     1       4.141   2.505  18.347  0.00  0.00    +0.000 C 
ATOM      3  C   UNL     1       4.363   3.153  16.989  0.00  0.00    +0.000 C 
ATOM      4  O   UNL     1       3.101   3.746  16.622  0.00  0.00    +0.000 OA
ATOM      5  C   UNL     1       2.254   3.825  17.799  0.00  0.00    +0.000 C 
ENDROOT
BRANCH   3   6
ATOM      6  N   UNL     1       5.437   4.151  16.950  0.00  0.00    +0.000 N 
ATOM      7  C   UNL     1       6.111   4.529  18.095  0.00  0.00    +0.000 A 
ATOM      8  C   UNL     1       6.993   5.534  18.126  0.00  0.00    +0.000 A 
ATOM      9  C   UNL     1       7.698   5.984  19.363  0.00  0.00    +0.000 C 
ATOM     10  C   UNL     1       7.250   6.268  16.869  0.00  0.00    +0.000 A 
ATOM     11  O   UNL     1       7.994   7.244  16.827  0.00  0.00    +0.000 OA
ATOM     12  N   UNL     1       6.594   5.805  15.768  0.00  0.00    +0.000 N 
ATOM     13  C   UNL     1       5.619   4.844  15.757  0.00  0.00    +0.000 A 
ATOM     14  O   UNL     1       4.959   4.646  14.737  0.00  0.00    +0.000 OA
ATOM     15  H   UNL     1       6.724   6.326  14.914  0.00  0.00    +0.000 HD
ENDBRANCH   3   6
BRANCH   1  19
ATOM     16  C   UNL     1       1.320   2.391  22.179  0.00  0.00    +0.000 C 
ATOM     17  C   UNL     1       2.021   3.310  21.217  0.00  0.00    +0.000 C 
ATOM     18  O   UNL     1       2.250   4.488  21.462  0.00  0.00    +0.000 OA
ATOM     19  N   UNL     1       2.390   2.695  20.043  0.00  0.00    +0.000 N 
ATOM     20  H   UNL     1       2.105   1.734  19.892  0.00  0.00    +0.000 HD
ENDBRANCH   1  19
BRANCH   5  21
ATOM     21  C   UNL     1       1.706   5.250  17.923  0.00  0.00    +0.000 C 
BRANCH  21  22
ATOM     22  O   UNL     1       2.358   5.944  18.989  0.00  0.00    +0.000 OA
ATOM     23  H   UNL     1       2.094   5.495  19.812  0.00  0.00    +0.000 HD
ENDBRANCH  21  22
ENDBRANCH   5  21
TORSDOF 4
ENDMDL
MODEL 9
REMARK VINA RESULT:      -6.2      2.570      5.645
REMARK  Name = 
REMARK  6 active torsions:
REMARK  status: ('A' for Active; 'I' for Inactive)
REMARK    1  A    between atoms: C_1  and  C_2
REMARK    2  A    between atoms: N_4  and  C_5
REMARK    3  A    between atoms: C_7  and  N_8
REMARK    4  A    between atoms: C_10  and  C_11
REMARK    5  A    between atoms: C_18  and  C_19
REMARK    6  A    between atoms: C_19  and  O_20
REMARK                            x       y       z     vdW  Elec       q    Type
REMARK                         _______ _______ _______ _____ _____    ______ ____
ROOT
ATOM      1  C   UNL     1       6.062   6.505  17.377  0.00  0.00    +0.000 C 
ATOM      2  C   UNL     1       4.638   6.677  16.896  0.00  0.00    +0.000 C 
ATOM      3  C   UNL     1       4.206   5.256  16.568  0.00  0.00    +0.000 C 
ATOM      4  O   UNL     1       5.395   4.574  16.122  0.00  0.00    +0.000 OA
ATOM      5  C   UNL     1       6.560   5.352  16.503  0.00  0.00    +0.000 C 
ENDROOT
BRANCH   3   6
ATOM      6  N   UNL     1       3.575   4.532  17.676  0.00  0.00    +0.000 N 
ATOM      7  C   UNL     1       2.921   5.200  18.693  0.00  0.00    +0.000 A 
ATOM      8  C   UNL     1       2.459   4.589  19.790  0.00  0.00    +0.000 A 
ATOM      9  C   UNL     1       1.787   5.301  20.918  0.00  0.00    +0.000 C 
ATOM     10  C   UNL     1       2.667   3.131  19.910  0.00  0.00    +0.000 A 
ATOM     11  O   UNL     1       2.333   2.506  20.913  0.00  0.00    +0.000 OA
ATOM     12  N   UNL     1       3.269   2.528  18.845  0.00  0.00    +0.000 N 
ATOM     13  C   UNL     1       3.828   3.167  17.771  0.00  0.00    +0.000 A 
ATOM     14  O   UNL     1       4.516   2.536  16.968  0.00  0.00    +0.000 OA
ATOM     15  H   UNL     1       3.459   1.542  18.934  0.00  0.00    +0.000 HD
ENDBRANCH   3   6
BRANCH   1  19
ATOM     16  C   UNL     1       8.519   9.366  17.744  0.00  0.00    +0.000 C 
ATOM     17  C   UNL     1       7.916   8.016  18.017  0.00  0.00    +0.000 C 
ATOM     18  O   UNL     1       8.360   7.240  18.854  0.00  0.00    +0.000 OA
ATOM     19  N   UNL     1       6.811   7.744  17.244  0.00  0.00    +0.000 N 
ATOM     20  H   UNL     1       6.547   8.412  16.528  0.00  0.00    +0.000 HD
ENDBRANCH   1  19
BRANCH   5  21
ATOM     21  C   UNL     1       7.557   4.438  17.220  0.00  0.00    +0.000 C 
BRANCH  21  22
ATOM     22  O   UNL     1       7.227   4.330  18.607  0.00  0.00    +0.000 OA
ATOM     23  H   UNL     1       7.915   3.771  19.011  0.00  0.00    +0.000 HD
ENDBRANCH  21  22
ENDBRANCH   5  21
TORSDOF 4
ENDMDL
