MODEL 1
REMARK VINA RESULT:      -8.9      0.000      0.000
REMARK  Name = 
REMARK  5 active torsions:
REMARK  status: ('A' for Active; 'I' for Inactive)
REMARK    1  A    between atoms: C_1  and  O_2
REMARK    2  A    between atoms: O_2  and  C_3
REMARK    3  A    between atoms: C_6  and  C_7
REMARK    4  A    between atoms: C_10  and  C_11
REMARK    5  A    between atoms: C_21  and  N_22
REMARK                            x       y       z     vdW  Elec       q    Type
REMARK                         _______ _______ _______ _____ _____    ______ ____
ROOT
ATOM      1  C   UNL     1       2.824   7.428  18.169  0.00  0.00    +0.000 A 
ATOM      2  C   UNL     1       2.390   7.313  19.487  0.00  0.00    +0.000 A 
ATOM      3  C   UNL     1       1.515   8.262  20.008  0.00  0.00    +0.000 A 
ATOM      4  C   UNL     1       1.178   9.384  19.260  0.00  0.00    +0.000 A 
ATOM      5  C   UNL     1       1.652   9.433  17.959  0.00  0.00    +0.000 A 
ATOM      6  N   UNL     1       2.425   8.468  17.399  0.00  0.00    +0.000 NA
ENDROOT
BRANCH   4   7
ATOM      7  C   UNL     1       0.258  10.454  19.717  0.00  0.00    +0.000 C 
ATOM      8  O   UNL     1       0.508  10.968  20.808  0.00  0.00    +0.000 OA
ATOM      9  N   UNL     1      -0.814  10.878  18.929  0.00  0.00    +0.000 N 
ATOM     10  C   UNL     1      -1.386  12.192  19.217  0.00  0.00    +0.000 C 
ATOM     11  C   UNL     1      -2.901  12.123  19.345  0.00  0.00    +0.000 C 
ATOM     12  C   UNL     1      -3.521  11.489  18.104  0.00  0.00    +0.000 C 
ATOM     13  C   UNL     1      -2.918  10.114  17.858  0.00  0.00    +0.000 C 
ATOM     14  C   UNL     1      -1.396  10.170  17.787  0.00  0.00    +0.000 C 
ENDBRANCH   4   7
BRANCH   1  18
ATOM     15  C   UNL     1       5.504   4.594  16.307  0.00  0.00    +0.000 A 
ATOM     16  C   UNL     1       5.465   5.924  15.921  0.00  0.00    +0.000 A 
ATOM     17  C   UNL     1       4.561   6.799  16.514  0.00  0.00    +0.000 A 
ATOM     18  C   UNL     1       3.637   6.388  17.509  0.00  0.00    +0.000 A 
ATOM     19  C   UNL     1       3.670   5.018  17.871  0.00  0.00    +0.000 A 
ATOM     20  C   UNL     1       4.627   4.150  17.296  0.00  0.00    +0.000 A 
BRANCH  19  21
ATOM     21  N   UNL     1       2.772   4.431  18.815  0.00  0.00    +0.000 N 
ATOM     22  C   UNL     1       1.467   4.018  18.633  0.00  0.00    +0.000 A 
ATOM     23  C   UNL     1       0.985   3.647  19.866  0.00  0.00    +0.000 A 
ATOM     24  C   UNL     1       2.098   3.730  20.712  0.00  0.00    +0.000 A 
ATOM     25  N   UNL     1       3.207   4.095  20.065  0.00  0.00    +0.000 NA
ENDBRANCH  19  21
BRANCH  15  27
ATOM     26  C   UNL     1       6.512   3.995  14.245  0.00  0.00    +0.000 C 
ATOM     27  O   UNL     1       6.439   3.839  15.658  0.00  0.00    +0.000 OA
ENDBRANCH  15  27
ENDBRANCH   1  18
TORSDOF 4
ENDMDL
MODEL 2
REMARK VINA RESULT:      -8.7      0.994      1.331
REMARK  Name = 
REMARK  5 active torsions:
REMARK  status: ('A' for Active; 'I' for Inactive)
REMARK    1  A    between atoms: C_1  and  O_2
REMARK    2  A    between atoms: O_2  and  C_3
REMARK    3  A    between atoms: C_6  and  C_7
REMARK    4  A    between atoms: C_10  and  C_11
REMARK    5  A    between atoms: C_21  and  N_22
REMARK                            x       y       z     vdW  Elec       q    Type
REMARK                         _______ _______ _______ _____ _____    ______ ____
ROOT
ATOM      1  C   UNL     1       2.657   7.303  18.413  0.00  0.00    +0.000 A 
ATOM      2  C   UNL     1       2.216   8.465  17.785  0.00  0.00    +0.000 A 
ATOM      3  C   UNL     1       1.564   9.445  18.529  0.00  0.00    +0.000 A 
ATOM      4  C   UNL     1       1.243   9.209  19.861  0.00  0.00    +0.000 A 
ATOM      5  C   UNL     1       1.710   8.028  20.417  0.00  0.00    +0.000 A 
ATOM      6  N   UNL     1       2.433   7.105  19.734  0.00  0.00    +0.000 NA
ENDROOT
BRANCH   4   7
ATOM      7  C   UNL     1       0.551  10.179  20.743  0.00  0.00    +0.000 C 
ATOM      8  O   UNL     1       0.834  10.136  21.941  0.00  0.00    +0.000 OA
ATOM      9  N   UNL     1      -0.347  11.119  20.231  0.00  0.00    +0.000 N 
ATOM     10  C   UNL     1      -0.635  12.295  21.048  0.00  0.00    +0.000 C 
ATOM     11  C   UNL     1      -2.134  12.526  21.182  0.00  0.00    +0.000 C 
ATOM     12  C   UNL     1      -2.792  12.609  19.809  0.00  0.00    +0.000 C 
ATOM     13  C   UNL     1      -2.490  11.355  19.003  0.00  0.00    +0.000 C 
ATOM     14  C   UNL     1      -0.992  11.087  18.917  0.00  0.00    +0.000 C 
ENDBRANCH   4   7
BRANCH   1  18
ATOM     15  C   UNL     1       5.351   4.544  16.461  0.00  0.00    +0.000 A 
ATOM     16  C   UNL     1       5.306   5.886  16.118  0.00  0.00    +0.000 A 
ATOM     17  C   UNL     1       4.397   6.737  16.739  0.00  0.00    +0.000 A 
ATOM     18  C   UNL     1       3.474   6.289  17.720  0.00  0.00    +0.000 A 
ATOM     19  C   UNL     1       3.515   4.908  18.037  0.00  0.00    +0.000 A 
ATOM     20  C   UNL     1       4.476   4.064  17.435  0.00  0.00    +0.000 A 
BRANCH  19  21
ATOM     21  N   UNL     1       2.619   4.287  18.961  0.00  0.00    +0.000 N 
ATOM     22  C   UNL     1       1.336   3.822  18.751  0.00  0.00    +0.000 A 
ATOM     23  C   UNL     1       0.842   3.432  19.972  0.00  0.00    +0.000 A 
ATOM     24  C   UNL     1       1.932   3.559  20.844  0.00  0.00    +0.000 A 
ATOM     25  N   UNL     1       3.039   3.968  20.221  0.00  0.00    +0.000 NA
ENDBRANCH  19  21
BRANCH  15  27
ATOM     26  C   UNL     1       6.329   3.981  14.374  0.00  0.00    +0.000 C 
ATOM     27  O   UNL     1       6.290   3.815  15.788  0.00  0.00    +0.000 OA
ENDBRANCH  15  27
ENDBRANCH   1  18
TORSDOF 4
ENDMDL
MODEL 3
REMARK VINA RESULT:      -8.5      1.582      1.851
REMARK  Name = 
REMARK  5 active torsions:
REMARK  status: ('A' for Active; 'I' for Inactive)
REMARK    1  A    between atoms: C_1  and  O_2
REMARK    2  A    between atoms: O_2  and  C_3
REMARK    3  A    between atoms: C_6  and  C_7
REMARK    4  A    between atoms: C_10  and  C_11
REMARK    5  A    between atoms: C_21  and  N_22
REMARK                            x       y       z     vdW  Elec       q    Type
REMARK                         _______ _______ _______ _____ _____    ______ ____
ROOT
ATOM      1  C   UNL     1       2.521   7.410  18.465  0.00  0.00    +0.000 A 
ATOM      2  C   UNL     1       1.949   8.454  17.744  0.00  0.00    +0.000 A 
ATOM      3  C   UNL     1       1.227   9.439  18.414  0.00  0.00    +0.000 A 
ATOM      4  C   UNL     1       0.974   9.312  19.774  0.00  0.00    +0.000 A 
ATOM      5  C   UNL     1       1.571   8.244  20.425  0.00  0.00    +0.000 A 
ATOM      6  N   UNL     1       2.360   7.328  19.807  0.00  0.00    +0.000 NA
ENDROOT
BRANCH   4   7
ATOM      7  C   UNL     1       0.219  10.299  20.584  0.00  0.00    +0.000 C 
ATOM      8  O   UNL     1      -0.401   9.859  21.553  0.00  0.00    +0.000 OA
ATOM      9  N   UNL     1       0.242  11.662  20.280  0.00  0.00    +0.000 N 
ATOM     10  C   UNL     1      -0.132  12.597  21.338  0.00  0.00    +0.000 C 
ATOM     11  C   UNL     1      -1.166  13.603  20.851  0.00  0.00    +0.000 C 
ATOM     12  C   UNL     1      -0.673  14.323  19.601  0.00  0.00    +0.000 C 
ATOM     13  C   UNL     1      -0.321  13.315  18.517  0.00  0.00    +0.000 C 
ATOM     14  C   UNL     1       0.669  12.271  19.019  0.00  0.00    +0.000 C 
ENDBRANCH   4   7
BRANCH   1  18
ATOM     15  C   UNL     1       5.415   4.715  16.721  0.00  0.00    +0.000 A 
ATOM     16  C   UNL     1       5.320   6.038  16.325  0.00  0.00    +0.000 A 
ATOM     17  C   UNL     1       4.348   6.867  16.879  0.00  0.00    +0.000 A 
ATOM     18  C   UNL     1       3.411   6.412  17.843  0.00  0.00    +0.000 A 
ATOM     19  C   UNL     1       3.505   5.047  18.215  0.00  0.00    +0.000 A 
ATOM     20  C   UNL     1       4.527   4.229  17.681  0.00  0.00    +0.000 A 
BRANCH  19  21
ATOM     21  N   UNL     1       2.605   4.418  19.129  0.00  0.00    +0.000 N 
ATOM     22  C   UNL     1       1.345   3.904  18.895  0.00  0.00    +0.000 A 
ATOM     23  C   UNL     1       0.830   3.527  20.112  0.00  0.00    +0.000 A 
ATOM     24  C   UNL     1       1.889   3.714  21.010  0.00  0.00    +0.000 A 
ATOM     25  N   UNL     1       2.999   4.146  20.408  0.00  0.00    +0.000 NA
ENDBRANCH  19  21
BRANCH  15  27
ATOM     26  C   UNL     1       6.627   4.275  14.731  0.00  0.00    +0.000 C 
ATOM     27  O   UNL     1       6.412   4.007  16.112  0.00  0.00    +0.000 OA
ENDBRANCH  15  27
ENDBRANCH   1  18
TORSDOF 4
ENDMDL
MODEL 4
REMARK VINA RESULT:      -8.5      1.421      1.951
REMARK  Name = 
REMARK  5 active torsions:
REMARK  status: ('A' for Active; 'I' for Inactive)
REMARK    1  A    between atoms: C_1  and  O_2
REMARK    2  A    between atoms: O_2  and  C_3
REMARK    3  A    between atoms: C_6  and  C_7
REMARK    4  A    between atoms: C_10  and  C_11
REMARK    5  A    between atoms: C_21  and  N_22
REMARK                            x       y       z     vdW  Elec       q    Type
REMARK                         _______ _______ _______ _____ _____    ______ ____
ROOT
ATOM      1  C   UNL     1       2.872   7.472  18.146  0.00  0.00    +0.000 A 
ATOM      2  C   UNL     1       2.384   7.388  19.447  0.00  0.00    +0.000 A 
ATOM      3  C   UNL     1       1.601   8.420  19.957  0.00  0.00    +0.000 A 
ATOM      4  C   UNL     1       1.413   9.582  19.217  0.00  0.00    +0.000 A 
ATOM      5  C   UNL     1       1.932   9.595  17.932  0.00  0.00    +0.000 A 
ATOM      6  N   UNL     1       2.614   8.559  17.381  0.00  0.00    +0.000 NA
ENDROOT
BRANCH   4   7
ATOM      7  C   UNL     1       0.600  10.739  19.661  0.00  0.00    +0.000 C 
ATOM      8  O   UNL     1       0.743  11.789  19.033  0.00  0.00    +0.000 OA
ATOM      9  N   UNL     1      -0.308  10.630  20.718  0.00  0.00    +0.000 N 
ATOM     10  C   UNL     1      -1.365  11.634  20.807  0.00  0.00    +0.000 C 
ATOM     11  C   UNL     1      -1.454  12.225  22.208  0.00  0.00    +0.000 C 
ATOM     12  C   UNL     1      -1.623  11.124  23.249  0.00  0.00    +0.000 C 
ATOM     13  C   UNL     1      -0.488  10.116  23.138  0.00  0.00    +0.000 C 
ATOM     14  C   UNL     1      -0.358   9.567  21.723  0.00  0.00    +0.000 C 
ENDBRANCH   4   7
BRANCH   1  18
ATOM     15  C   UNL     1       5.285   4.408  16.284  0.00  0.00    +0.000 A 
ATOM     16  C   UNL     1       5.299   5.719  15.837  0.00  0.00    +0.000 A 
ATOM     17  C   UNL     1       4.478   6.670  16.434  0.00  0.00    +0.000 A 
ATOM     18  C   UNL     1       3.588   6.359  17.495  0.00  0.00    +0.000 A 
ATOM     19  C   UNL     1       3.566   5.007  17.920  0.00  0.00    +0.000 A 
ATOM     20  C   UNL     1       4.440   4.060  17.338  0.00  0.00    +0.000 A 
BRANCH  19  21
ATOM     21  N   UNL     1       2.690   4.516  18.937  0.00  0.00    +0.000 N 
ATOM     22  C   UNL     1       1.385   4.081  18.824  0.00  0.00    +0.000 A 
ATOM     23  C   UNL     1       0.930   3.835  20.098  0.00  0.00    +0.000 A 
ATOM     24  C   UNL     1       2.058   4.009  20.909  0.00  0.00    +0.000 A 
ATOM     25  N   UNL     1       3.152   4.311  20.206  0.00  0.00    +0.000 NA
ENDBRANCH  19  21
BRANCH  15  27
ATOM     26  C   UNL     1       6.520   3.962  14.309  0.00  0.00    +0.000 C 
ATOM     27  O   UNL     1       6.140   3.571  15.624  0.00  0.00    +0.000 OA
ENDBRANCH  15  27
ENDBRANCH   1  18
TORSDOF 4
ENDMDL
MODEL 5
REMARK VINA RESULT:      -8.4      1.460      2.006
REMARK  Name = 
REMARK  5 active torsions:
REMARK  status: ('A' for Active; 'I' for Inactive)
REMARK    1  A    between atoms: C_1  and  O_2
REMARK    2  A    between atoms: O_2  and  C_3
REMARK    3  A    between atoms: C_6  and  C_7
REMARK    4  A    between atoms: C_10  and  C_11
REMARK    5  A    between atoms: C_21  and  N_22
REMARK                            x       y       z     vdW  Elec       q    Type
REMARK                         _______ _______ _______ _____ _____    ______ ____
ROOT
ATOM      1  C   UNL     1       2.688   7.556  18.259  0.00  0.00    +0.000 A 
ATOM      2  C   UNL     1       2.302   7.537  19.597  0.00  0.00    +0.000 A 
ATOM      3  C   UNL     1       1.428   8.510  20.075  0.00  0.00    +0.000 A 
ATOM      4  C   UNL     1       1.045   9.565  19.254  0.00  0.00    +0.000 A 
ATOM      5  C   UNL     1       1.473   9.519  17.937  0.00  0.00    +0.000 A 
ATOM      6  N   UNL     1       2.244   8.526  17.426  0.00  0.00    +0.000 NA
ENDROOT
BRANCH   4   7
ATOM      7  C   UNL     1       0.122  10.652  19.659  0.00  0.00    +0.000 C 
ATOM      8  O   UNL     1      -1.048  10.332  19.875  0.00  0.00    +0.000 OA
ATOM      9  N   UNL     1       0.570  11.965  19.823  0.00  0.00    +0.000 N 
ATOM     10  C   UNL     1      -0.251  12.863  20.632  0.00  0.00    +0.000 C 
ATOM     11  C   UNL     1      -0.510  14.180  19.912  0.00  0.00    +0.000 C 
ATOM     12  C   UNL     1       0.802  14.831  19.488  0.00  0.00    +0.000 C 
ATOM     13  C   UNL     1       1.612  13.873  18.627  0.00  0.00    +0.000 C 
ATOM     14  C   UNL     1       1.822  12.532  19.320  0.00  0.00    +0.000 C 
ENDBRANCH   4   7
BRANCH   1  18
ATOM     15  C   UNL     1       5.357   4.622  16.540  0.00  0.00    +0.000 A 
ATOM     16  C   UNL     1       5.312   5.927  16.078  0.00  0.00    +0.000 A 
ATOM     17  C   UNL     1       4.411   6.834  16.628  0.00  0.00    +0.000 A 
ATOM     18  C   UNL     1       3.497   6.480  17.653  0.00  0.00    +0.000 A 
ATOM     19  C   UNL     1       3.536   5.133  18.093  0.00  0.00    +0.000 A 
ATOM     20  C   UNL     1       4.489   4.235  17.561  0.00  0.00    +0.000 A 
BRANCH  19  21
ATOM     21  N   UNL     1       2.647   4.601  19.078  0.00  0.00    +0.000 N 
ATOM     22  C   UNL     1       1.376   4.087  18.914  0.00  0.00    +0.000 A 
ATOM     23  C   UNL     1       0.881   3.827  20.170  0.00  0.00    +0.000 A 
ATOM     24  C   UNL     1       1.961   4.078  21.027  0.00  0.00    +0.000 A 
ATOM     25  N   UNL     1       3.064   4.438  20.368  0.00  0.00    +0.000 NA
ENDBRANCH  19  21
BRANCH  15  27
ATOM     26  C   UNL     1       6.483   4.047  14.534  0.00  0.00    +0.000 C 
ATOM     27  O   UNL     1       6.287   3.832  15.927  0.00  0.00    +0.000 OA
ENDBRANCH  15  27
ENDBRANCH   1  18
TORSDOF 4
ENDMDL
MODEL 6
REMARK VINA RESULT:      -8.3      1.672      1.947
REMARK  Name = 
REMARK  5 active torsions:
REMARK  status: ('A' for Active; 'I' for Inactive)
REMARK    1  A    between atoms: C_1  and  O_2
REMARK    2  A    between atoms: O_2  and  C_3
REMARK    3  A    between atoms: C_6  and  C_7
REMARK    4  A    between atoms: C_10  and  C_11
REMARK    5  A    between atoms: C_21  and  N_22
REMARK                            x       y       z     vdW  Elec       q    Type
REMARK                         _______ _______ _______ _____ _____    ______ ____
ROOT
ATOM      1  C   UNL     1       2.893   7.027  18.304  0.00  0.00    +0.000 A 
ATOM      2  C   UNL     1       2.658   6.810  19.659  0.00  0.00    +0.000 A 
ATOM      3  C   UNL     1       1.819   7.674  20.359  0.00  0.00    +0.000 A 
ATOM      4  C   UNL     1       1.322   8.815  19.740  0.00  0.00    +0.000 A 
ATOM      5  C   UNL     1       1.603   8.967  18.391  0.00  0.00    +0.000 A 
ATOM      6  N   UNL     1       2.336   8.084  17.667  0.00  0.00    +0.000 NA
ENDROOT
BRANCH   4   7
ATOM      7  C   UNL     1       0.424   9.800  20.390  0.00  0.00    +0.000 C 
ATOM      8  O   UNL     1      -0.492   9.343  21.075  0.00  0.00    +0.000 OA
ATOM      9  N   UNL     1       0.633  11.175  20.258  0.00  0.00    +0.000 N 
ATOM     10  C   UNL     1       0.016  12.050  21.252  0.00  0.00    +0.000 C 
ATOM     11  C   UNL     1      -0.747  13.190  20.592  0.00  0.00    +0.000 C 
ATOM     12  C   UNL     1       0.155  13.960  19.633  0.00  0.00    +0.000 C 
ATOM     13  C   UNL     1       0.754  13.017  18.601  0.00  0.00    +0.000 C 
ATOM     14  C   UNL     1       1.468  11.842  19.258  0.00  0.00    +0.000 C 
ENDBRANCH   4   7
BRANCH   1  18
ATOM     15  C   UNL     1       5.437   4.413  15.985  0.00  0.00    +0.000 A 
ATOM     16  C   UNL     1       5.519   5.791  15.880  0.00  0.00    +0.000 A 
ATOM     17  C   UNL     1       4.656   6.602  16.612  0.00  0.00    +0.000 A 
ATOM     18  C   UNL     1       3.655   6.078  17.471  0.00  0.00    +0.000 A 
ATOM     19  C   UNL     1       3.566   4.665  17.543  0.00  0.00    +0.000 A 
ATOM     20  C   UNL     1       4.480   3.854  16.833  0.00  0.00    +0.000 A 
BRANCH  19  21
ATOM     21  N   UNL     1       2.580   3.977  18.316  0.00  0.00    +0.000 N 
ATOM     22  C   UNL     1       2.664   3.507  19.612  0.00  0.00    +0.000 A 
ATOM     23  C   UNL     1       1.510   2.803  19.861  0.00  0.00    +0.000 A 
ATOM     24  C   UNL     1       0.723   3.013  18.722  0.00  0.00    +0.000 A 
ATOM     25  N   UNL     1       1.315   3.811  17.831  0.00  0.00    +0.000 NA
ENDBRANCH  19  21
BRANCH  15  27
ATOM     26  C   UNL     1       6.320   3.988  13.825  0.00  0.00    +0.000 C 
ATOM     27  O   UNL     1       6.342   3.728  15.225  0.00  0.00    +0.000 OA
ENDBRANCH  15  27
ENDBRANCH   1  18
TORSDOF 4
ENDMDL
MODEL 7
REMARK VINA RESULT:      -8.3      2.088      2.314
REMARK  Name = 
REMARK  5 active torsions:
REMARK  status: ('A' for Active; 'I' for Inactive)
REMARK    1  A    between atoms: C_1  and  O_2
REMARK    2  A    between atoms: O_2  and  C_3
REMARK    3  A    between atoms: C_6  and  C_7
REMARK    4  A    between atoms: C_10  and  C_11
REMARK    5  A    between atoms: C_21  and  N_22
REMARK                            x       y       z     vdW  Elec       q    Type
REMARK                         _______ _______ _______ _____ _____    ______ ____
ROOT
ATOM      1  C   UNL     1       2.836   6.728  18.820  0.00  0.00    +0.000 A 
ATOM      2  C   UNL     1       2.535   6.165  20.057  0.00  0.00    +0.000 A 
ATOM      3  C   UNL     1       1.611   6.789  20.891  0.00  0.00    +0.000 A 
ATOM      4  C   UNL     1       1.089   8.030  20.546  0.00  0.00    +0.000 A 
ATOM      5  C   UNL     1       1.438   8.531  19.302  0.00  0.00    +0.000 A 
ATOM      6  N   UNL     1       2.259   7.890  18.432  0.00  0.00    +0.000 NA
ENDROOT
BRANCH   4   7
ATOM      7  C   UNL     1       0.102   8.781  21.358  0.00  0.00    +0.000 C 
ATOM      8  O   UNL     1      -0.840   8.135  21.820  0.00  0.00    +0.000 OA
ATOM      9  N   UNL     1       0.256  10.146  21.614  0.00  0.00    +0.000 N 
ATOM     10  C   UNL     1      -0.471  10.706  22.751  0.00  0.00    +0.000 C 
ATOM     11  C   UNL     1      -1.236  11.963  22.357  0.00  0.00    +0.000 C 
ATOM     12  C   UNL     1      -0.303  12.984  21.714  0.00  0.00    +0.000 C 
ATOM     13  C   UNL     1       0.412  12.367  20.521  0.00  0.00    +0.000 C 
ATOM     14  C   UNL     1       1.130  11.077  20.899  0.00  0.00    +0.000 C 
ENDBRANCH   4   7
BRANCH   1  18
ATOM     15  C   UNL     1       5.648   4.908  16.089  0.00  0.00    +0.000 A 
ATOM     16  C   UNL     1       5.612   6.277  16.294  0.00  0.00    +0.000 A 
ATOM     17  C   UNL     1       4.666   6.832  17.150  0.00  0.00    +0.000 A 
ATOM     18  C   UNL     1       3.696   6.052  17.830  0.00  0.00    +0.000 A 
ATOM     19  C   UNL     1       3.728   4.656  17.585  0.00  0.00    +0.000 A 
ATOM     20  C   UNL     1       4.725   4.099  16.752  0.00  0.00    +0.000 A 
BRANCH  19  21
ATOM     21  N   UNL     1       2.788   3.738  18.147  0.00  0.00    +0.000 N 
ATOM     22  C   UNL     1       1.454   3.561  17.839  0.00  0.00    +0.000 A 
ATOM     23  C   UNL     1       0.947   2.655  18.739  0.00  0.00    +0.000 A 
ATOM     24  C   UNL     1       2.066   2.226  19.465  0.00  0.00    +0.000 A 
ATOM     25  N   UNL     1       3.198   2.791  19.041  0.00  0.00    +0.000 NA
ENDBRANCH  19  21
BRANCH  15  27
ATOM     26  C   UNL     1       6.201   4.063  13.942  0.00  0.00    +0.000 C 
ATOM     27  O   UNL     1       6.626   4.484  15.234  0.00  0.00    +0.000 OA
ENDBRANCH  15  27
ENDBRANCH   1  18
TORSDOF 4
ENDMDL
MODEL 8
REMARK VINA RESULT:      -8.1      1.474      2.256
REMARK  Name = 
REMARK  5 active torsions:
REMARK  status: ('A' for Active; 'I' for Inactive)
REMARK    1  A    between atoms: C_1  and  O_2
REMARK    2  A    between atoms: O_2  and  C_3
REMARK    3  A    between atoms: C_6  and  C_7
REMARK    4  A    between atoms: C_10  and  C_11
REMARK    5  A    between atoms: C_21  and  N_22
REMARK                            x       y       z     vdW  Elec       q    Type
REMARK                         _______ _______ _______ _____ _____    ______ ____
ROOT
ATOM      1  C   UNL     1       2.591   7.640  18.393  0.00  0.00    +0.000 A 
ATOM      2  C   UNL     1       2.211   7.647  19.732  0.00  0.00    +0.000 A 
ATOM      3  C   UNL     1       1.263   8.567  20.173  0.00  0.00    +0.000 A 
ATOM      4  C   UNL     1       0.796   9.552  19.311  0.00  0.00    +0.000 A 
ATOM      5  C   UNL     1       1.223   9.485  17.994  0.00  0.00    +0.000 A 
ATOM      6  N   UNL     1       2.070   8.535  17.522  0.00  0.00    +0.000 NA
ENDROOT
BRANCH   4   7
ATOM      7  C   UNL     1      -0.210  10.579  19.675  0.00  0.00    +0.000 C 
ATOM      8  O   UNL     1      -1.363  10.383  19.290  0.00  0.00    +0.000 OA
ATOM      9  N   UNL     1       0.131  11.692  20.447  0.00  0.00    +0.000 N 
ATOM     10  C   UNL     1      -0.951  12.399  21.129  0.00  0.00    +0.000 C 
ATOM     11  C   UNL     1      -0.883  13.898  20.874  0.00  0.00    +0.000 C 
ATOM     12  C   UNL     1       0.488  14.449  21.253  0.00  0.00    +0.000 C 
ATOM     13  C   UNL     1       1.581  13.705  20.501  0.00  0.00    +0.000 C 
ATOM     14  C   UNL     1       1.480  12.198  20.706  0.00  0.00    +0.000 C 
ENDBRANCH   4   7
BRANCH   1  18
ATOM     15  C   UNL     1       5.486   4.841  16.821  0.00  0.00    +0.000 A 
ATOM     16  C   UNL     1       5.429   6.154  16.383  0.00  0.00    +0.000 A 
ATOM     17  C   UNL     1       4.457   7.016  16.882  0.00  0.00    +0.000 A 
ATOM     18  C   UNL     1       3.482   6.607  17.828  0.00  0.00    +0.000 A 
ATOM     19  C   UNL     1       3.538   5.253  18.243  0.00  0.00    +0.000 A 
ATOM     20  C   UNL     1       4.560   4.401  17.766  0.00  0.00    +0.000 A 
BRANCH  19  21
ATOM     21  N   UNL     1       2.598   4.668  19.147  0.00  0.00    +0.000 N 
ATOM     22  C   UNL     1       2.656   4.577  20.524  0.00  0.00    +0.000 A 
ATOM     23  C   UNL     1       1.586   3.813  20.924  0.00  0.00    +0.000 A 
ATOM     24  C   UNL     1       0.854   3.600  19.749  0.00  0.00    +0.000 A 
ATOM     25  N   UNL     1       1.397   4.205  18.691  0.00  0.00    +0.000 NA
ENDBRANCH  19  21
BRANCH  15  27
ATOM     26  C   UNL     1       6.471   3.970  14.847  0.00  0.00    +0.000 C 
ATOM     27  O   UNL     1       6.488   4.098  16.265  0.00  0.00    +0.000 OA
ENDBRANCH  15  27
ENDBRANCH   1  18
TORSDOF 4
ENDMDL
MODEL 9
REMARK VINA RESULT:      -8.0      2.052      8.596
REMARK  Name = 
REMARK  5 active torsions:
REMARK  status: ('A' for Active; 'I' for Inactive)
REMARK    1  A    between atoms: C_1  and  O_2
REMARK    2  A    between atoms: O_2  and  C_3
REMARK    3  A    between atoms: C_6  and  C_7
REMARK    4  A    between atoms: C_10  and  C_11
REMARK    5  A    between atoms: C_21  and  N_22
REMARK                            x       y       z     vdW  Elec       q    Type
REMARK                         _______ _______ _______ _____ _____    ______ ____
ROOT
ATOM      1  C   UNL     1       0.644   9.760  19.722  0.00  0.00    +0.000 A 
ATOM      2  C   UNL     1       0.990   9.925  18.383  0.00  0.00    +0.000 A 
ATOM      3  C   UNL     1       1.812   8.986  17.765  0.00  0.00    +0.000 A 
ATOM      4  C   UNL     1       2.384   7.963  18.511  0.00  0.00    +0.000 A 
ATOM      5  C   UNL     1       1.997   7.865  19.838  0.00  0.00    +0.000 A 
ATOM      6  N   UNL     1       1.120   8.711  20.434  0.00  0.00    +0.000 NA
ENDROOT
BRANCH   4   7
ATOM      7  C   UNL     1       3.272   6.913  17.955  0.00  0.00    +0.000 C 
ATOM      8  O   UNL     1       4.233   7.299  17.288  0.00  0.00    +0.000 OA
ATOM      9  N   UNL     1       3.046   5.558  18.209  0.00  0.00    +0.000 N 
ATOM     10  C   UNL     1       4.168   4.640  18.024  0.00  0.00    +0.000 C 
ATOM     11  C   UNL     1       3.771   3.443  17.171  0.00  0.00    +0.000 C 
ATOM     12  C   UNL     1       2.550   2.743  17.757  0.00  0.00    +0.000 C 
ATOM     13  C   UNL     1       1.400   3.727  17.907  0.00  0.00    +0.000 C 
ATOM     14  C   UNL     1       1.810   4.955  18.710  0.00  0.00    +0.000 C 
ENDBRANCH   4   7
BRANCH   1  18
ATOM     15  C   UNL     1      -1.926  12.544  21.802  0.00  0.00    +0.000 A 
ATOM     16  C   UNL     1      -0.825  11.970  22.415  0.00  0.00    +0.000 A 
ATOM     17  C   UNL     1      -0.043  11.046  21.728  0.00  0.00    +0.000 A 
ATOM     18  C   UNL     1      -0.331  10.635  20.401  0.00  0.00    +0.000 A 
ATOM     19  C   UNL     1      -1.479  11.210  19.800  0.00  0.00    +0.000 A 
ATOM     20  C   UNL     1      -2.235  12.184  20.491  0.00  0.00    +0.000 A 
BRANCH  19  21
ATOM     21  N   UNL     1      -1.939  10.864  18.492  0.00  0.00    +0.000 N 
ATOM     22  C   UNL     1      -2.538   9.697  18.061  0.00  0.00    +0.000 A 
ATOM     23  C   UNL     1      -2.674   9.791  16.697  0.00  0.00    +0.000 A 
ATOM     24  C   UNL     1      -2.265  11.097  16.398  0.00  0.00    +0.000 A 
ATOM     25  N   UNL     1      -1.925  11.789  17.487  0.00  0.00    +0.000 NA
ENDBRANCH  19  21
BRANCH  15  27
ATOM     26  C   UNL     1      -3.875  13.021  23.066  0.00  0.00    +0.000 C 
ATOM     27  O   UNL     1      -2.606  13.441  22.576  0.00  0.00    +0.000 OA
ENDBRANCH  15  27
ENDBRANCH   1  18
TORSDOF 4
ENDMDL
