MODEL 1
REMARK VINA RESULT:      -6.8      0.000      0.000
REMARK  Name = 
REMARK  7 active torsions:
REMARK  status: ('A' for Active; 'I' for Inactive)
REMARK    1  A    between atoms: C_1  and  C_2
REMARK    2  A    between atoms: C_6  and  C_7
REMARK    3  A    between atoms: C_13  and  C_14
REMARK    4  A    between atoms: C_19  and  C_20
REMARK    5  A    between atoms: C_19  and  O_21
REMARK    6  A    between atoms: C_22  and  C_23
REMARK    7  A    between atoms: C_22  and  C_24
REMARK                            x       y       z     vdW  Elec       q    Type
REMARK                         _______ _______ _______ _____ _____    ______ ____
ROOT
ATOM      1  C   UNL     1       3.098   1.046  18.896  0.00  0.00    +0.000 C 
ATOM      2  C   UNL     1       2.500   2.258  19.492  0.00  0.00    +0.000 A 
ATOM      3  N   UNL     1       2.013   1.990  20.737  0.00  0.00    +0.000 NA
ATOM      4  C   UNL     1       1.523   3.003  21.445  0.00  0.00    +0.000 A 
ATOM      5  C   UNL     1       1.515   4.291  20.962  0.00  0.00    +0.000 A 
ATOM      6  C   UNL     1       2.019   4.598  19.669  0.00  0.00    +0.000 A 
ATOM      7  C   UNL     1       2.456   3.510  18.850  0.00  0.00    +0.000 A 
ENDROOT
BRANCH   7   8
ATOM      8  C   UNL     1       3.109   3.702  17.499  0.00  0.00    +0.000 C 
ATOM      9  O   UNL     1       2.365   3.519  16.530  0.00  0.00    +0.000 OA
ATOM     10  N   UNL     1       4.446   4.160  17.282  0.00  0.00    +0.000 N 
ATOM     11  C   UNL     1       4.843   4.352  15.885  0.00  0.00    +0.000 C 
ATOM     12  C   UNL     1       5.615   5.654  15.727  0.00  0.00    +0.000 C 
ATOM     13  C   UNL     1       6.903   5.686  16.574  0.00  0.00    +0.000 C 
ATOM     14  C   UNL     1       7.553   7.076  16.377  0.00  0.00    +0.000 C 
ATOM     15  C   UNL     1       6.622   5.316  18.080  0.00  0.00    +0.000 C 
ATOM     16  C   UNL     1       6.158   6.586  18.828  0.00  0.00    +0.000 C 
ATOM     17  C   UNL     1       7.915   4.885  18.822  0.00  0.00    +0.000 C 
ATOM     18  C   UNL     1       5.618   4.083  18.178  0.00  0.00    +0.000 C 
BRANCH  13  19
ATOM     19  O   UNL     1       7.806   4.718  16.025  0.00  0.00    +0.000 OA
ATOM     20  H   UNL     1       7.294   3.928  15.776  0.00  0.00    +0.000 HD
ENDBRANCH  13  19
ENDBRANCH   7   8
BRANCH   6  21
ATOM     21  C   UNL     1       2.073   6.062  19.360  0.00  0.00    +0.000 A 
ATOM     22  C   UNL     1       1.726   7.004  20.356  0.00  0.00    +0.000 A 
ATOM     23  C   UNL     1       1.627   8.375  20.085  0.00  0.00    +0.000 A 
ATOM     24  C   UNL     1       1.917   8.849  18.811  0.00  0.00    +0.000 A 
ATOM     25  C   UNL     1       2.296   7.944  17.816  0.00  0.00    +0.000 A 
ATOM     26  C   UNL     1       2.357   6.559  18.083  0.00  0.00    +0.000 A 
ENDBRANCH   6  21
TORSDOF 3
ENDMDL
MODEL 2
REMARK VINA RESULT:      -6.7      1.551      2.365
REMARK  Name = 
REMARK  7 active torsions:
REMARK  status: ('A' for Active; 'I' for Inactive)
REMARK    1  A    between atoms: C_1  and  C_2
REMARK    2  A    between atoms: C_6  and  C_7
REMARK    3  A    between atoms: C_13  and  C_14
REMARK    4  A    between atoms: C_19  and  C_20
REMARK    5  A    between atoms: C_19  and  O_21
REMARK    6  A    between atoms: C_22  and  C_23
REMARK    7  A    between atoms: C_22  and  C_24
REMARK                            x       y       z     vdW  Elec       q    Type
REMARK                         _______ _______ _______ _____ _____    ______ ____
ROOT
ATOM      1  C   UNL     1       3.859   0.884  18.837  0.00  0.00    +0.000 C 
ATOM      2  C   UNL     1       2.846   1.960  18.846  0.00  0.00    +0.000 A 
ATOM      3  N   UNL     1       1.588   1.434  18.812  0.00  0.00    +0.000 NA
ATOM      4  C   UNL     1       0.560   2.272  18.907  0.00  0.00    +0.000 A 
ATOM      5  C   UNL     1       0.740   3.628  19.054  0.00  0.00    +0.000 A 
ATOM      6  C   UNL     1       2.039   4.201  19.093  0.00  0.00    +0.000 A 
ATOM      7  C   UNL     1       3.156   3.331  18.891  0.00  0.00    +0.000 A 
ENDROOT
BRANCH   7   8
ATOM      8  C   UNL     1       4.593   3.789  19.011  0.00  0.00    +0.000 C 
ATOM      9  O   UNL     1       5.191   3.371  20.007  0.00  0.00    +0.000 OA
ATOM     10  N   UNL     1       5.301   4.561  18.038  0.00  0.00    +0.000 N 
ATOM     11  C   UNL     1       6.714   4.822  18.326  0.00  0.00    +0.000 C 
ATOM     12  C   UNL     1       7.556   4.624  17.074  0.00  0.00    +0.000 C 
ATOM     13  C   UNL     1       7.144   5.568  15.927  0.00  0.00    +0.000 C 
ATOM     14  C   UNL     1       8.024   5.223  14.702  0.00  0.00    +0.000 C 
ATOM     15  C   UNL     1       5.595   5.503  15.644  0.00  0.00    +0.000 C 
ATOM     16  C   UNL     1       5.310   4.313  14.699  0.00  0.00    +0.000 C 
ATOM     17  C   UNL     1       5.097   6.744  14.857  0.00  0.00    +0.000 C 
ATOM     18  C   UNL     1       4.774   5.480  17.008  0.00  0.00    +0.000 C 
BRANCH  13  19
ATOM     19  O   UNL     1       7.481   6.903  16.323  0.00  0.00    +0.000 OA
ATOM     20  H   UNL     1       6.719   7.285  16.793  0.00  0.00    +0.000 HD
ENDBRANCH  13  19
ENDBRANCH   7   8
BRANCH   6  21
ATOM     21  C   UNL     1       2.057   5.665  19.407  0.00  0.00    +0.000 A 
ATOM     22  C   UNL     1       1.672   6.115  20.690  0.00  0.00    +0.000 A 
ATOM     23  C   UNL     1       1.539   7.475  20.997  0.00  0.00    +0.000 A 
ATOM     24  C   UNL     1       1.832   8.432  20.032  0.00  0.00    +0.000 A 
ATOM     25  C   UNL     1       2.248   8.017  18.764  0.00  0.00    +0.000 A 
ATOM     26  C   UNL     1       2.344   6.644  18.447  0.00  0.00    +0.000 A 
ENDBRANCH   6  21
TORSDOF 3
ENDMDL
MODEL 3
REMARK VINA RESULT:      -6.6      6.840      9.617
REMARK  Name = 
REMARK  7 active torsions:
REMARK  status: ('A' for Active; 'I' for Inactive)
REMARK    1  A    between atoms: C_1  and  C_2
REMARK    2  A    between atoms: C_6  and  C_7
REMARK    3  A    between atoms: C_13  and  C_14
REMARK    4  A    between atoms: C_19  and  C_20
REMARK    5  A    between atoms: C_19  and  O_21
REMARK    6  A    between atoms: C_22  and  C_23
REMARK    7  A    between atoms: C_22  and  C_24
REMARK                            x       y       z     vdW  Elec       q    Type
REMARK                         _______ _______ _______ _____ _____    ______ ____
ROOT
ATOM      1  C   UNL     1       0.963   9.715  19.324  0.00  0.00    +0.000 C 
ATOM      2  C   UNL     1       0.269   9.918  20.612  0.00  0.00    +0.000 A 
ATOM      3  N   UNL     1       0.559   8.905  21.478  0.00  0.00    +0.000 NA
ATOM      4  C   UNL     1       0.082   8.989  22.717  0.00  0.00    +0.000 A 
ATOM      5  C   UNL     1      -0.668  10.063  23.135  0.00  0.00    +0.000 A 
ATOM      6  C   UNL     1      -0.983  11.132  22.254  0.00  0.00    +0.000 A 
ATOM      7  C   UNL     1      -0.567  11.015  20.890  0.00  0.00    +0.000 A 
ENDROOT
BRANCH   7   8
ATOM      8  C   UNL     1      -0.745  12.121  19.874  0.00  0.00    +0.000 C 
ATOM      9  O   UNL     1      -1.821  12.105  19.269  0.00  0.00    +0.000 OA
ATOM     10  N   UNL     1       0.173  13.194  19.648  0.00  0.00    +0.000 N 
ATOM     11  C   UNL     1      -0.241  14.202  18.669  0.00  0.00    +0.000 C 
ATOM     12  C   UNL     1       0.061  15.601  19.186  0.00  0.00    +0.000 C 
ATOM     13  C   UNL     1       1.563  15.821  19.457  0.00  0.00    +0.000 C 
ATOM     14  C   UNL     1       1.726  17.246  20.037  0.00  0.00    +0.000 C 
ATOM     15  C   UNL     1       2.166  14.684  20.367  0.00  0.00    +0.000 C 
ATOM     16  C   UNL     1       1.898  15.036  21.848  0.00  0.00    +0.000 C 
ATOM     17  C   UNL     1       3.712  14.617  20.262  0.00  0.00    +0.000 C 
ATOM     18  C   UNL     1       1.625  13.256  19.915  0.00  0.00    +0.000 C 
BRANCH  13  19
ATOM     19  O   UNL     1       2.238  15.801  18.193  0.00  0.00    +0.000 OA
ATOM     20  H   UNL     1       2.033  16.628  17.722  0.00  0.00    +0.000 HD
ENDBRANCH  13  19
ENDBRANCH   7   8
BRANCH   6  21
ATOM     21  C   UNL     1      -1.676  12.287  22.908  0.00  0.00    +0.000 A 
ATOM     22  C   UNL     1      -0.959  13.475  23.179  0.00  0.00    +0.000 A 
ATOM     23  C   UNL     1      -1.515  14.534  23.910  0.00  0.00    +0.000 A 
ATOM     24  C   UNL     1      -2.829  14.448  24.356  0.00  0.00    +0.000 A 
ATOM     25  C   UNL     1      -3.573  13.300  24.073  0.00  0.00    +0.000 A 
ATOM     26  C   UNL     1      -2.996  12.219  23.370  0.00  0.00    +0.000 A 
ENDBRANCH   6  21
TORSDOF 3
ENDMDL
MODEL 4
REMARK VINA RESULT:      -6.5      5.885      8.768
REMARK  Name = 
REMARK  7 active torsions:
REMARK  status: ('A' for Active; 'I' for Inactive)
REMARK    1  A    between atoms: C_1  and  C_2
REMARK    2  A    between atoms: C_6  and  C_7
REMARK    3  A    between atoms: C_13  and  C_14
REMARK    4  A    between atoms: C_19  and  C_20
REMARK    5  A    between atoms: C_19  and  O_21
REMARK    6  A    between atoms: C_22  and  C_23
REMARK    7  A    between atoms: C_22  and  C_24
REMARK                            x       y       z     vdW  Elec       q    Type
REMARK                         _______ _______ _______ _____ _____    ______ ____
ROOT
ATOM      1  C   UNL     1      -1.621  12.443  22.494  0.00  0.00    +0.000 C 
ATOM      2  C   UNL     1      -0.752  11.259  22.331  0.00  0.00    +0.000 A 
ATOM      3  N   UNL     1      -0.772  10.490  23.457  0.00  0.00    +0.000 NA
ATOM      4  C   UNL     1      -0.110   9.338  23.436  0.00  0.00    +0.000 A 
ATOM      5  C   UNL     1       0.564   8.908  22.317  0.00  0.00    +0.000 A 
ATOM      6  C   UNL     1       0.599   9.688  21.131  0.00  0.00    +0.000 A 
ATOM      7  C   UNL     1      -0.019  10.978  21.164  0.00  0.00    +0.000 A 
ENDROOT
BRANCH   7   8
ATOM      8  C   UNL     1      -0.146  11.866  19.945  0.00  0.00    +0.000 C 
ATOM      9  O   UNL     1      -1.110  11.614  19.215  0.00  0.00    +0.000 OA
ATOM     10  N   UNL     1       0.685  12.991  19.650  0.00  0.00    +0.000 N 
ATOM     11  C   UNL     1       0.329  13.759  18.454  0.00  0.00    +0.000 C 
ATOM     12  C   UNL     1       0.409  15.252  18.739  0.00  0.00    +0.000 C 
ATOM     13  C   UNL     1       1.822  15.700  19.163  0.00  0.00    +0.000 C 
ATOM     14  C   UNL     1       1.752  17.211  19.485  0.00  0.00    +0.000 C 
ATOM     15  C   UNL     1       2.386  14.818  20.340  0.00  0.00    +0.000 C 
ATOM     16  C   UNL     1       1.860  15.379  21.682  0.00  0.00    +0.000 C 
ATOM     17  C   UNL     1       3.929  14.927  20.459  0.00  0.00    +0.000 C 
ATOM     18  C   UNL     1       2.065  13.277  20.093  0.00  0.00    +0.000 C 
BRANCH  13  19
ATOM     19  O   UNL     1       2.682  15.551  18.027  0.00  0.00    +0.000 OA
ATOM     20  H   UNL     1       3.249  14.773  18.171  0.00  0.00    +0.000 HD
ENDBRANCH  13  19
ENDBRANCH   7   8
BRANCH   6  21
ATOM     21  C   UNL     1       1.248   9.009  19.964  0.00  0.00    +0.000 A 
ATOM     22  C   UNL     1       1.804   7.719  20.122  0.00  0.00    +0.000 A 
ATOM     23  C   UNL     1       2.541   7.093  19.108  0.00  0.00    +0.000 A 
ATOM     24  C   UNL     1       2.706   7.729  17.883  0.00  0.00    +0.000 A 
ATOM     25  C   UNL     1       2.138   8.990  17.687  0.00  0.00    +0.000 A 
ATOM     26  C   UNL     1       1.429   9.634  18.725  0.00  0.00    +0.000 A 
ENDBRANCH   6  21
TORSDOF 3
ENDMDL
MODEL 5
REMARK VINA RESULT:      -6.5      1.701      3.873
REMARK  Name = 
REMARK  7 active torsions:
REMARK  status: ('A' for Active; 'I' for Inactive)
REMARK    1  A    between atoms: C_1  and  C_2
REMARK    2  A    between atoms: C_6  and  C_7
REMARK    3  A    between atoms: C_13  and  C_14
REMARK    4  A    between atoms: C_19  and  C_20
REMARK    5  A    between atoms: C_19  and  O_21
REMARK    6  A    between atoms: C_22  and  C_23
REMARK    7  A    between atoms: C_22  and  C_24
REMARK                            x       y       z     vdW  Elec       q    Type
REMARK                         _______ _______ _______ _____ _____    ______ ____
ROOT
ATOM      1  C   UNL     1       2.436   8.686  17.464  0.00  0.00    +0.000 C 
ATOM      2  C   UNL     1       2.148   8.048  18.765  0.00  0.00    +0.000 A 
ATOM      3  N   UNL     1       1.692   8.970  19.660  0.00  0.00    +0.000 NA
ATOM      4  C   UNL     1       1.301   8.537  20.855  0.00  0.00    +0.000 A 
ATOM      5  C   UNL     1       1.332   7.204  21.190  0.00  0.00    +0.000 A 
ATOM      6  C   UNL     1       1.800   6.223  20.276  0.00  0.00    +0.000 A 
ATOM      7  C   UNL     1       2.321   6.676  19.023  0.00  0.00    +0.000 A 
ENDROOT
BRANCH   7   8
ATOM      8  C   UNL     1       2.755   5.736  17.920  0.00  0.00    +0.000 C 
ATOM      9  O   UNL     1       1.836   5.287  17.227  0.00  0.00    +0.000 OA
ATOM     10  N   UNL     1       4.109   5.426  17.580  0.00  0.00    +0.000 N 
ATOM     11  C   UNL     1       4.298   4.552  16.419  0.00  0.00    +0.000 C 
ATOM     12  C   UNL     1       5.425   5.075  15.540  0.00  0.00    +0.000 C 
ATOM     13  C   UNL     1       6.774   5.143  16.283  0.00  0.00    +0.000 C 
ATOM     14  C   UNL     1       7.812   5.747  15.308  0.00  0.00    +0.000 C 
ATOM     15  C   UNL     1       6.651   5.916  17.650  0.00  0.00    +0.000 C 
ATOM     16  C   UNL     1       6.781   7.433  17.379  0.00  0.00    +0.000 C 
ATOM     17  C   UNL     1       7.830   5.596  18.607  0.00  0.00    +0.000 C 
ATOM     18  C   UNL     1       5.323   5.491  18.420  0.00  0.00    +0.000 C 
BRANCH  13  19
ATOM     19  O   UNL     1       7.186   3.797  16.554  0.00  0.00    +0.000 OA
ATOM     20  H   UNL     1       8.108   3.693  16.259  0.00  0.00    +0.000 HD
ENDBRANCH  13  19
ENDBRANCH   7   8
BRANCH   6  21
ATOM     21  C   UNL     1       1.626   4.811  20.744  0.00  0.00    +0.000 A 
ATOM     22  C   UNL     1       2.513   4.274  21.705  0.00  0.00    +0.000 A 
ATOM     23  C   UNL     1       2.484   2.923  22.077  0.00  0.00    +0.000 A 
ATOM     24  C   UNL     1       1.530   2.076  21.524  0.00  0.00    +0.000 A 
ATOM     25  C   UNL     1       0.618   2.588  20.597  0.00  0.00    +0.000 A 
ATOM     26  C   UNL     1       0.676   3.941  20.196  0.00  0.00    +0.000 A 
ENDBRANCH   6  21
TORSDOF 3
ENDMDL
MODEL 6
REMARK VINA RESULT:      -6.2      9.197     10.840
REMARK  Name = 
REMARK  7 active torsions:
REMARK  status: ('A' for Active; 'I' for Inactive)
REMARK    1  A    between atoms: C_1  and  C_2
REMARK    2  A    between atoms: C_6  and  C_7
REMARK    3  A    between atoms: C_13  and  C_14
REMARK    4  A    between atoms: C_19  and  C_20
REMARK    5  A    between atoms: C_19  and  O_21
REMARK    6  A    between atoms: C_22  and  C_23
REMARK    7  A    between atoms: C_22  and  C_24
REMARK                            x       y       z     vdW  Elec       q    Type
REMARK                         _______ _______ _______ _____ _____    ______ ____
ROOT
ATOM      1  C   UNL     1       5.702  16.095  18.734  0.00  0.00    +0.000 C 
ATOM      2  C   UNL     1       5.433  15.383  20.000  0.00  0.00    +0.000 A 
ATOM      3  N   UNL     1       4.118  15.032  20.082  0.00  0.00    +0.000 NA
ATOM      4  C   UNL     1       3.732  14.302  21.124  0.00  0.00    +0.000 A 
ATOM      5  C   UNL     1       4.619  13.888  22.089  0.00  0.00    +0.000 A 
ATOM      6  C   UNL     1       5.994  14.237  22.027  0.00  0.00    +0.000 A 
ATOM      7  C   UNL     1       6.412  15.107  20.971  0.00  0.00    +0.000 A 
ENDROOT
BRANCH   7   8
ATOM      8  C   UNL     1       7.860  15.474  20.726  0.00  0.00    +0.000 C 
ATOM      9  O   UNL     1       8.211  16.556  21.205  0.00  0.00    +0.000 OA
ATOM     10  N   UNL     1       8.830  14.639  20.088  0.00  0.00    +0.000 N 
ATOM     11  C   UNL     1      10.196  15.165  20.031  0.00  0.00    +0.000 C 
ATOM     12  C   UNL     1      11.200  14.075  20.378  0.00  0.00    +0.000 C 
ATOM     13  C   UNL     1      11.133  12.878  19.409  0.00  0.00    +0.000 C 
ATOM     14  C   UNL     1      12.147  11.821  19.907  0.00  0.00    +0.000 C 
ATOM     15  C   UNL     1       9.663  12.333  19.253  0.00  0.00    +0.000 C 
ATOM     16  C   UNL     1       9.368  11.350  20.409  0.00  0.00    +0.000 C 
ATOM     17  C   UNL     1       9.495  11.476  17.970  0.00  0.00    +0.000 C 
ATOM     18  C   UNL     1       8.627  13.537  19.125  0.00  0.00    +0.000 C 
BRANCH  13  19
ATOM     19  O   UNL     1      11.592  13.330  18.129  0.00  0.00    +0.000 OA
ATOM     20  H   UNL     1      12.208  14.070  18.269  0.00  0.00    +0.000 HD
ENDBRANCH  13  19
ENDBRANCH   7   8
BRANCH   6  21
ATOM     21  C   UNL     1       6.845  13.583  23.071  0.00  0.00    +0.000 A 
ATOM     22  C   UNL     1       7.484  14.373  24.054  0.00  0.00    +0.000 A 
ATOM     23  C   UNL     1       8.398  13.833  24.969  0.00  0.00    +0.000 A 
ATOM     24  C   UNL     1       8.666  12.469  24.952  0.00  0.00    +0.000 A 
ATOM     25  C   UNL     1       8.022  11.658  24.014  0.00  0.00    +0.000 A 
ATOM     26  C   UNL     1       7.132  12.212  23.068  0.00  0.00    +0.000 A 
ENDBRANCH   6  21
TORSDOF 3
ENDMDL
MODEL 7
REMARK VINA RESULT:      -6.2      8.439     11.617
REMARK  Name = 
REMARK  7 active torsions:
REMARK  status: ('A' for Active; 'I' for Inactive)
REMARK    1  A    between atoms: C_1  and  C_2
REMARK    2  A    between atoms: C_6  and  C_7
REMARK    3  A    between atoms: C_13  and  C_14
REMARK    4  A    between atoms: C_19  and  C_20
REMARK    5  A    between atoms: C_19  and  O_21
REMARK    6  A    between atoms: C_22  and  C_23
REMARK    7  A    between atoms: C_22  and  C_24
REMARK                            x       y       z     vdW  Elec       q    Type
REMARK                         _______ _______ _______ _____ _____    ______ ____
ROOT
ATOM      1  C   UNL     1      -2.693  15.347  24.256  0.00  0.00    +0.000 C 
ATOM      2  C   UNL     1      -3.821  15.082  23.341  0.00  0.00    +0.000 A 
ATOM      3  N   UNL     1      -4.534  16.223  23.116  0.00  0.00    +0.000 NA
ATOM      4  C   UNL     1      -5.532  16.171  22.239  0.00  0.00    +0.000 A 
ATOM      5  C   UNL     1      -5.839  15.018  21.556  0.00  0.00    +0.000 A 
ATOM      6  C   UNL     1      -5.112  13.817  21.769  0.00  0.00    +0.000 A 
ATOM      7  C   UNL     1      -4.101  13.822  22.782  0.00  0.00    +0.000 A 
ENDROOT
BRANCH   7   8
ATOM      8  C   UNL     1      -3.184  12.647  23.040  0.00  0.00    +0.000 C 
ATOM      9  O   UNL     1      -3.598  11.836  23.874  0.00  0.00    +0.000 OA
ATOM     10  N   UNL     1      -1.967  12.376  22.340  0.00  0.00    +0.000 N 
ATOM     11  C   UNL     1      -1.278  11.135  22.700  0.00  0.00    +0.000 C 
ATOM     12  C   UNL     1      -0.791  10.415  21.450  0.00  0.00    +0.000 C 
ATOM     13  C   UNL     1       0.199  11.262  20.627  0.00  0.00    +0.000 C 
ATOM     14  C   UNL     1       0.562  10.452  19.360  0.00  0.00    +0.000 C 
ATOM     15  C   UNL     1      -0.369  12.701  20.328  0.00  0.00    +0.000 C 
ATOM     16  C   UNL     1      -1.272  12.631  19.075  0.00  0.00    +0.000 C 
ATOM     17  C   UNL     1       0.753  13.698  19.935  0.00  0.00    +0.000 C 
ATOM     18  C   UNL     1      -1.074  13.308  21.621  0.00  0.00    +0.000 C 
BRANCH  13  19
ATOM     19  O   UNL     1       1.399  11.396  21.399  0.00  0.00    +0.000 OA
ATOM     20  H   UNL     1       1.302  10.868  22.211  0.00  0.00    +0.000 HD
ENDBRANCH  13  19
ENDBRANCH   7   8
BRANCH   6  21
ATOM     21  C   UNL     1      -5.477  12.701  20.839  0.00  0.00    +0.000 A 
ATOM     22  C   UNL     1      -4.734  12.503  19.653  0.00  0.00    +0.000 A 
ATOM     23  C   UNL     1      -5.113  11.566  18.682  0.00  0.00    +0.000 A 
ATOM     24  C   UNL     1      -6.229  10.765  18.894  0.00  0.00    +0.000 A 
ATOM     25  C   UNL     1      -6.962  10.916  20.074  0.00  0.00    +0.000 A 
ATOM     26  C   UNL     1      -6.600  11.888  21.032  0.00  0.00    +0.000 A 
ENDBRANCH   6  21
TORSDOF 3
ENDMDL
MODEL 8
REMARK VINA RESULT:      -6.2      2.527      5.906
REMARK  Name = 
REMARK  7 active torsions:
REMARK  status: ('A' for Active; 'I' for Inactive)
REMARK    1  A    between atoms: C_1  and  C_2
REMARK    2  A    between atoms: C_6  and  C_7
REMARK    3  A    between atoms: C_13  and  C_14
REMARK    4  A    between atoms: C_19  and  C_20
REMARK    5  A    between atoms: C_19  and  O_21
REMARK    6  A    between atoms: C_22  and  C_23
REMARK    7  A    between atoms: C_22  and  C_24
REMARK                            x       y       z     vdW  Elec       q    Type
REMARK                         _______ _______ _______ _____ _____    ______ ____
ROOT
ATOM      1  C   UNL     1       0.392   5.079  20.324  0.00  0.00    +0.000 C 
ATOM      2  C   UNL     1       1.754   4.514  20.234  0.00  0.00    +0.000 A 
ATOM      3  N   UNL     1       1.824   3.325  20.897  0.00  0.00    +0.000 NA
ATOM      4  C   UNL     1       2.964   2.643  20.833  0.00  0.00    +0.000 A 
ATOM      5  C   UNL     1       4.043   3.098  20.112  0.00  0.00    +0.000 A 
ATOM      6  C   UNL     1       3.996   4.333  19.412  0.00  0.00    +0.000 A 
ATOM      7  C   UNL     1       2.817   5.131  19.550  0.00  0.00    +0.000 A 
ENDROOT
BRANCH   7   8
ATOM      8  C   UNL     1       2.592   6.414  18.779  0.00  0.00    +0.000 C 
ATOM      9  O   UNL     1       2.809   6.337  17.566  0.00  0.00    +0.000 OA
ATOM     10  N   UNL     1       2.072   7.628  19.326  0.00  0.00    +0.000 N 
ATOM     11  C   UNL     1       1.859   8.723  18.376  0.00  0.00    +0.000 C 
ATOM     12  C   UNL     1       0.522   9.402  18.638  0.00  0.00    +0.000 C 
ATOM     13  C   UNL     1       0.431  10.004  20.054  0.00  0.00    +0.000 C 
ATOM     14  C   UNL     1      -0.988  10.599  20.216  0.00  0.00    +0.000 C 
ATOM     15  C   UNL     1       0.816   8.953  21.163  0.00  0.00    +0.000 C 
ATOM     16  C   UNL     1      -0.430   8.102  21.499  0.00  0.00    +0.000 C 
ATOM     17  C   UNL     1       1.187   9.635  22.506  0.00  0.00    +0.000 C 
ATOM     18  C   UNL     1       2.095   8.112  20.722  0.00  0.00    +0.000 C 
BRANCH  13  19
ATOM     19  O   UNL     1       1.355  11.097  20.120  0.00  0.00    +0.000 OA
ATOM     20  H   UNL     1       2.085  10.920  19.501  0.00  0.00    +0.000 HD
ENDBRANCH  13  19
ENDBRANCH   7   8
BRANCH   6  21
ATOM     21  C   UNL     1       5.197   4.605  18.560  0.00  0.00    +0.000 A 
ATOM     22  C   UNL     1       5.243   4.120  17.233  0.00  0.00    +0.000 A 
ATOM     23  C   UNL     1       6.392   4.225  16.437  0.00  0.00    +0.000 A 
ATOM     24  C   UNL     1       7.520   4.863  16.938  0.00  0.00    +0.000 A 
ATOM     25  C   UNL     1       7.492   5.384  18.235  0.00  0.00    +0.000 A 
ATOM     26  C   UNL     1       6.346   5.241  19.046  0.00  0.00    +0.000 A 
ENDBRANCH   6  21
TORSDOF 3
ENDMDL
MODEL 9
REMARK VINA RESULT:      -6.1      9.597     11.826
REMARK  Name = 
REMARK  7 active torsions:
REMARK  status: ('A' for Active; 'I' for Inactive)
REMARK    1  A    between atoms: C_1  and  C_2
REMARK    2  A    between atoms: C_6  and  C_7
REMARK    3  A    between atoms: C_13  and  C_14
REMARK    4  A    between atoms: C_19  and  C_20
REMARK    5  A    between atoms: C_19  and  O_21
REMARK    6  A    between atoms: C_22  and  C_23
REMARK    7  A    between atoms: C_22  and  C_24
REMARK                            x       y       z     vdW  Elec       q    Type
REMARK                         _______ _______ _______ _____ _____    ______ ____
ROOT
ATOM      1  C   UNL     1       7.361  15.464  24.335  0.00  0.00    +0.000 C 
ATOM      2  C   UNL     1       7.739  14.137  23.807  0.00  0.00    +0.000 A 
ATOM      3  N   UNL     1       6.929  13.168  24.321  0.00  0.00    +0.000 NA
ATOM      4  C   UNL     1       7.082  11.926  23.872  0.00  0.00    +0.000 A 
ATOM      5  C   UNL     1       8.010  11.611  22.908  0.00  0.00    +0.000 A 
ATOM      6  C   UNL     1       8.865  12.601  22.355  0.00  0.00    +0.000 A 
ATOM      7  C   UNL     1       8.788  13.924  22.895  0.00  0.00    +0.000 A 
ENDROOT
BRANCH   7   8
ATOM      8  C   UNL     1       9.563  15.094  22.330  0.00  0.00    +0.000 C 
ATOM      9  O   UNL     1      10.467  15.519  23.056  0.00  0.00    +0.000 OA
ATOM     10  N   UNL     1       9.389  15.651  21.024  0.00  0.00    +0.000 N 
ATOM     11  C   UNL     1      10.307  16.731  20.656  0.00  0.00    +0.000 C 
ATOM     12  C   UNL     1      10.812  16.538  19.233  0.00  0.00    +0.000 C 
ATOM     13  C   UNL     1       9.671  16.537  18.195  0.00  0.00    +0.000 C 
ATOM     14  C   UNL     1      10.304  16.268  16.810  0.00  0.00    +0.000 C 
ATOM     15  C   UNL     1       8.526  15.528  18.586  0.00  0.00    +0.000 C 
ATOM     16  C   UNL     1       8.912  14.117  18.087  0.00  0.00    +0.000 C 
ATOM     17  C   UNL     1       7.198  15.844  17.848  0.00  0.00    +0.000 C 
ATOM     18  C   UNL     1       8.203  15.617  20.143  0.00  0.00    +0.000 C 
BRANCH  13  19
ATOM     19  O   UNL     1       9.121  17.860  18.157  0.00  0.00    +0.000 OA
ATOM     20  H   UNL     1       9.730  18.460  18.622  0.00  0.00    +0.000 HD
ENDBRANCH  13  19
ENDBRANCH   7   8
BRANCH   6  21
ATOM     21  C   UNL     1       9.709  12.120  21.215  0.00  0.00    +0.000 A 
ATOM     22  C   UNL     1      10.966  12.718  20.969  0.00  0.00    +0.000 A 
ATOM     23  C   UNL     1      11.735  12.405  19.841  0.00  0.00    +0.000 A 
ATOM     24  C   UNL     1      11.283  11.445  18.943  0.00  0.00    +0.000 A 
ATOM     25  C   UNL     1      10.059  10.813  19.178  0.00  0.00    +0.000 A 
ATOM     26  C   UNL     1       9.269  11.160  20.296  0.00  0.00    +0.000 A 
ENDBRANCH   6  21
TORSDOF 3
ENDMDL
