MODEL 1
REMARK VINA RESULT:      -7.4      0.000      0.000
REMARK  Name = 
REMARK  6 active torsions:
REMARK  status: ('A' for Active; 'I' for Inactive)
REMARK    1  A    between atoms: C_1  and  C_2
REMARK    2  A    between atoms: C_2  and  C_3
REMARK    3  A    between atoms: C_7  and  C_8
REMARK    4  A    between atoms: C_8  and  C_10
REMARK    5  A    between atoms: C_18  and  C_19
REMARK    6  A    between atoms: C_18  and  C_20
REMARK                            x       y       z     vdW  Elec       q    Type
REMARK                         _______ _______ _______ _____ _____    ______ ____
ROOT
ATOM      1  C   UNL     1       7.604   4.495  16.877  0.00  0.00    +0.000 C 
ATOM      2  C   UNL     1       6.542   5.081  17.795  0.00  0.00    +0.000 C 
ATOM      3  C   UNL     1       7.204   6.132  18.709  0.00  0.00    +0.000 C 
ATOM      4  O   UNL     1       5.519   5.692  17.005  0.00  0.00    +0.000 OA
ATOM      5  C   UNL     1       4.463   5.855  17.944  0.00  0.00    +0.000 C 
ATOM      6  O   UNL     1       3.191   5.982  17.310  0.00  0.00    +0.000 OA
ATOM      7  C   UNL     1       2.146   5.899  18.302  0.00  0.00    +0.000 C 
ATOM      8  C   UNL     1       2.081   4.410  18.644  0.00  0.00    +0.000 C 
ATOM      9  O   UNL     1       1.210   3.989  19.690  0.00  0.00    +0.000 OA
ATOM     10  C   UNL     1       1.799   2.763  20.158  0.00  0.00    +0.000 C 
ATOM     11  C   UNL     1       1.367   1.580  19.273  0.00  0.00    +0.000 C 
ATOM     12  C   UNL     1       1.352   2.484  21.588  0.00  0.00    +0.000 C 
ATOM     13  O   UNL     1       3.225   2.933  20.063  0.00  0.00    +0.000 OA
ATOM     14  C   UNL     1       3.427   3.717  18.862  0.00  0.00    +0.000 C 
ATOM     15  C   UNL     1       4.607   4.682  18.932  0.00  0.00    +0.000 C 
ATOM     16  O   UNL     1       5.887   4.084  18.593  0.00  0.00    +0.000 OA
ENDROOT
BRANCH   7  17
ATOM     17  C   UNL     1       2.395   6.967  19.399  0.00  0.00    +0.000 C 
ATOM     18  O   UNL     1       3.089   6.746  20.388  0.00  0.00    +0.000 OA
BRANCH  17  19
ATOM     19  C   UNL     1       1.905   8.380  19.136  0.00  0.00    +0.000 A 
ATOM     20  C   UNL     1       2.320   9.107  18.010  0.00  0.00    +0.000 A 
ATOM     21  C   UNL     1       1.912  10.434  17.812  0.00  0.00    +0.000 A 
ATOM     22  C   UNL     1       1.081  11.048  18.740  0.00  0.00    +0.000 A 
ATOM     23  C   UNL     1       0.673  10.348  19.874  0.00  0.00    +0.000 A 
ATOM     24  C   UNL     1       1.084   9.018  20.076  0.00  0.00    +0.000 A 
ENDBRANCH  17  19
ENDBRANCH   7  17
TORSDOF 2
ENDMDL
MODEL 2
REMARK VINA RESULT:      -7.1      3.870      7.903
REMARK  Name = 
REMARK  6 active torsions:
REMARK  status: ('A' for Active; 'I' for Inactive)
REMARK    1  A    between atoms: C_1  and  C_2
REMARK    2  A    between atoms: C_2  and  C_3
REMARK    3  A    between atoms: C_7  and  C_8
REMARK    4  A    between atoms: C_8  and  C_10
REMARK    5  A    between atoms: C_18  and  C_19
REMARK    6  A    between atoms: C_18  and  C_20
REMARK                            x       y       z     vdW  Elec       q    Type
REMARK                         _______ _______ _______ _____ _____    ______ ____
ROOT
ATOM      1  C   UNL     1       1.730  15.039  21.265  0.00  0.00    +0.000 C 
ATOM      2  C   UNL     1       1.787  13.876  20.287  0.00  0.00    +0.000 C 
ATOM      3  C   UNL     1       3.112  13.955  19.502  0.00  0.00    +0.000 C 
ATOM      4  O   UNL     1       1.717  12.645  21.011  0.00  0.00    +0.000 OA
ATOM      5  C   UNL     1       1.417  11.704  19.988  0.00  0.00    +0.000 C 
ATOM      6  O   UNL     1       0.822  10.514  20.506  0.00  0.00    +0.000 OA
ATOM      7  C   UNL     1       0.321   9.712  19.416  0.00  0.00    +0.000 C 
ATOM      8  C   UNL     1      -0.955  10.433  18.983  0.00  0.00    +0.000 C 
ATOM      9  O   UNL     1      -1.654   9.954  17.837  0.00  0.00    +0.000 OA
ATOM     10  C   UNL     1      -2.362  11.110  17.357  0.00  0.00    +0.000 C 
ATOM     11  C   UNL     1      -3.682  11.298  18.127  0.00  0.00    +0.000 C 
ATOM     12  C   UNL     1      -2.688  10.943  15.877  0.00  0.00    +0.000 C 
ATOM     13  O   UNL     1      -1.507  12.243  17.596  0.00  0.00    +0.000 OA
ATOM     14  C   UNL     1      -0.850  11.953  18.853  0.00  0.00    +0.000 C 
ATOM     15  C   UNL     1       0.580  12.478  18.951  0.00  0.00    +0.000 C 
ATOM     16  O   UNL     1       0.679  13.864  19.374  0.00  0.00    +0.000 OA
ENDROOT
BRANCH   7  17
ATOM     17  C   UNL     1       1.470   9.437  18.412  0.00  0.00    +0.000 C 
ATOM     18  O   UNL     1       1.869  10.285  17.617  0.00  0.00    +0.000 OA
BRANCH  17  19
ATOM     19  C   UNL     1       2.235   8.132  18.550  0.00  0.00    +0.000 A 
ATOM     20  C   UNL     1       2.092   7.309  19.677  0.00  0.00    +0.000 A 
ATOM     21  C   UNL     1       2.852   6.139  19.824  0.00  0.00    +0.000 A 
ATOM     22  C   UNL     1       3.764   5.780  18.840  0.00  0.00    +0.000 A 
ATOM     23  C   UNL     1       3.934   6.593  17.722  0.00  0.00    +0.000 A 
ATOM     24  C   UNL     1       3.174   7.769  17.575  0.00  0.00    +0.000 A 
ENDBRANCH  17  19
ENDBRANCH   7  17
TORSDOF 2
ENDMDL
MODEL 3
REMARK VINA RESULT:      -6.9      1.243      4.291
REMARK  Name = 
REMARK  6 active torsions:
REMARK  status: ('A' for Active; 'I' for Inactive)
REMARK    1  A    between atoms: C_1  and  C_2
REMARK    2  A    between atoms: C_2  and  C_3
REMARK    3  A    between atoms: C_7  and  C_8
REMARK    4  A    between atoms: C_8  and  C_10
REMARK    5  A    between atoms: C_18  and  C_19
REMARK    6  A    between atoms: C_18  and  C_20
REMARK                            x       y       z     vdW  Elec       q    Type
REMARK                         _______ _______ _______ _____ _____    ______ ____
ROOT
ATOM      1  C   UNL     1       2.396   1.861  21.588  0.00  0.00    +0.000 C 
ATOM      2  C   UNL     1       2.216   2.956  20.548  0.00  0.00    +0.000 C 
ATOM      3  C   UNL     1       0.713   3.095  20.233  0.00  0.00    +0.000 C 
ATOM      4  O   UNL     1       2.726   4.188  21.065  0.00  0.00    +0.000 OA
ATOM      5  C   UNL     1       2.826   4.994  19.897  0.00  0.00    +0.000 C 
ATOM      6  O   UNL     1       3.748   6.070  20.060  0.00  0.00    +0.000 OA
ATOM      7  C   UNL     1       3.989   6.696  18.783  0.00  0.00    +0.000 C 
ATOM      8  C   UNL     1       4.911   5.715  18.059  0.00  0.00    +0.000 C 
ATOM      9  O   UNL     1       5.263   5.983  16.704  0.00  0.00    +0.000 OA
ATOM     10  C   UNL     1       5.569   4.685  16.164  0.00  0.00    +0.000 C 
ATOM     11  C   UNL     1       7.018   4.286  16.498  0.00  0.00    +0.000 C 
ATOM     12  C   UNL     1       5.412   4.703  14.648  0.00  0.00    +0.000 C 
ATOM     13  O   UNL     1       4.663   3.758  16.789  0.00  0.00    +0.000 OA
ATOM     14  C   UNL     1       4.516   4.241  18.147  0.00  0.00    +0.000 C 
ATOM     15  C   UNL     1       3.132   4.014  18.748  0.00  0.00    +0.000 C 
ATOM     16  O   UNL     1       2.946   2.699  19.339  0.00  0.00    +0.000 OA
ENDROOT
BRANCH   7  17
ATOM     17  C   UNL     1       2.636   7.135  18.164  0.00  0.00    +0.000 C 
ATOM     18  O   UNL     1       2.031   6.446  17.346  0.00  0.00    +0.000 OA
BRANCH  17  19
ATOM     19  C   UNL     1       1.966   8.374  18.732  0.00  0.00    +0.000 A 
ATOM     20  C   UNL     1       1.449   8.401  20.036  0.00  0.00    +0.000 A 
ATOM     21  C   UNL     1       0.775   9.529  20.527  0.00  0.00    +0.000 A 
ATOM     22  C   UNL     1       0.612  10.644  19.715  0.00  0.00    +0.000 A 
ATOM     23  C   UNL     1       1.102  10.630  18.411  0.00  0.00    +0.000 A 
ATOM     24  C   UNL     1       1.776   9.498  17.916  0.00  0.00    +0.000 A 
ENDBRANCH  17  19
ENDBRANCH   7  17
TORSDOF 2
ENDMDL
MODEL 4
REMARK VINA RESULT:      -6.8      3.152      5.649
REMARK  Name = 
REMARK  6 active torsions:
REMARK  status: ('A' for Active; 'I' for Inactive)
REMARK    1  A    between atoms: C_1  and  C_2
REMARK    2  A    between atoms: C_2  and  C_3
REMARK    3  A    between atoms: C_7  and  C_8
REMARK    4  A    between atoms: C_8  and  C_10
REMARK    5  A    between atoms: C_18  and  C_19
REMARK    6  A    between atoms: C_18  and  C_20
REMARK                            x       y       z     vdW  Elec       q    Type
REMARK                         _______ _______ _______ _____ _____    ______ ____
ROOT
ATOM      1  C   UNL     1       8.714   5.510  20.524  0.00  0.00    +0.000 C 
ATOM      2  C   UNL     1       7.775   5.638  19.334  0.00  0.00    +0.000 C 
ATOM      3  C   UNL     1       8.048   6.983  18.632  0.00  0.00    +0.000 C 
ATOM      4  O   UNL     1       8.008   4.555  18.430  0.00  0.00    +0.000 OA
ATOM      5  C   UNL     1       6.856   4.598  17.596  0.00  0.00    +0.000 C 
ATOM      6  O   UNL     1       6.611   3.351  16.947  0.00  0.00    +0.000 OA
ATOM      7  C   UNL     1       5.313   3.381  16.318  0.00  0.00    +0.000 C 
ATOM      8  C   UNL     1       4.335   3.226  17.483  0.00  0.00    +0.000 C 
ATOM      9  O   UNL     1       2.939   3.324  17.218  0.00  0.00    +0.000 OA
ATOM     10  C   UNL     1       2.378   3.744  18.474  0.00  0.00    +0.000 C 
ATOM     11  C   UNL     1       2.154   2.535  19.401  0.00  0.00    +0.000 C 
ATOM     12  C   UNL     1       1.036   4.428  18.242  0.00  0.00    +0.000 C 
ATOM     13  O   UNL     1       3.339   4.632  19.074  0.00  0.00    +0.000 OA
ATOM     14  C   UNL     1       4.629   4.080  18.717  0.00  0.00    +0.000 C 
ATOM     15  C   UNL     1       5.720   5.124  18.493  0.00  0.00    +0.000 C 
ATOM     16  O   UNL     1       6.391   5.554  19.707  0.00  0.00    +0.000 OA
ENDROOT
BRANCH   7  17
ATOM     17  C   UNL     1       5.236   4.598  15.359  0.00  0.00    +0.000 C 
ATOM     18  O   UNL     1       4.712   5.661  15.684  0.00  0.00    +0.000 OA
BRANCH  17  19
ATOM     19  C   UNL     1       5.996   4.515  14.047  0.00  0.00    +0.000 A 
ATOM     20  C   UNL     1       5.613   3.631  13.028  0.00  0.00    +0.000 A 
ATOM     21  C   UNL     1       6.361   3.517  11.846  0.00  0.00    +0.000 A 
ATOM     22  C   UNL     1       7.502   4.290  11.673  0.00  0.00    +0.000 A 
ATOM     23  C   UNL     1       7.908   5.161  12.681  0.00  0.00    +0.000 A 
ATOM     24  C   UNL     1       7.161   5.274  13.868  0.00  0.00    +0.000 A 
ENDBRANCH  17  19
ENDBRANCH   7  17
TORSDOF 2
ENDMDL
MODEL 5
REMARK VINA RESULT:      -6.5      4.074      8.451
REMARK  Name = 
REMARK  6 active torsions:
REMARK  status: ('A' for Active; 'I' for Inactive)
REMARK    1  A    between atoms: C_1  and  C_2
REMARK    2  A    between atoms: C_2  and  C_3
REMARK    3  A    between atoms: C_7  and  C_8
REMARK    4  A    between atoms: C_8  and  C_10
REMARK    5  A    between atoms: C_18  and  C_19
REMARK    6  A    between atoms: C_18  and  C_20
REMARK                            x       y       z     vdW  Elec       q    Type
REMARK                         _______ _______ _______ _____ _____    ______ ____
ROOT
ATOM      1  C   UNL     1      -3.854  10.840  16.053  0.00  0.00    +0.000 C 
ATOM      2  C   UNL     1      -2.969  10.521  17.249  0.00  0.00    +0.000 C 
ATOM      3  C   UNL     1      -3.626   9.386  18.060  0.00  0.00    +0.000 C 
ATOM      4  O   UNL     1      -1.679  10.112  16.787  0.00  0.00    +0.000 OA
ATOM      5  C   UNL     1      -0.887  10.206  17.965  0.00  0.00    +0.000 C 
ATOM      6  O   UNL     1       0.504  10.327  17.673  0.00  0.00    +0.000 OA
ATOM      7  C   UNL     1       1.223  10.661  18.879  0.00  0.00    +0.000 C 
ATOM      8  C   UNL     1       0.908  12.140  19.098  0.00  0.00    +0.000 C 
ATOM      9  O   UNL     1       1.383  12.770  20.285  0.00  0.00    +0.000 OA
ATOM     10  C   UNL     1       0.467  13.860  20.488  0.00  0.00    +0.000 C 
ATOM     11  C   UNL     1       0.873  15.077  19.638  0.00  0.00    +0.000 C 
ATOM     12  C   UNL     1       0.471  14.275  21.955  0.00  0.00    +0.000 C 
ATOM     13  O   UNL     1      -0.826  13.392  20.064  0.00  0.00    +0.000 OA
ATOM     14  C   UNL     1      -0.557  12.543  18.922  0.00  0.00    +0.000 C 
ATOM     15  C   UNL     1      -1.505  11.355  18.784  0.00  0.00    +0.000 C 
ATOM     16  O   UNL     1      -2.747  11.660  18.094  0.00  0.00    +0.000 OA
ENDROOT
BRANCH   7  17
ATOM     17  C   UNL     1       0.914   9.602  19.969  0.00  0.00    +0.000 C 
ATOM     18  O   UNL     1       0.082   9.789  20.853  0.00  0.00    +0.000 OA
BRANCH  17  19
ATOM     19  C   UNL     1       1.540   8.226  19.818  0.00  0.00    +0.000 A 
ATOM     20  C   UNL     1       2.291   7.878  18.686  0.00  0.00    +0.000 A 
ATOM     21  C   UNL     1       2.810   6.584  18.528  0.00  0.00    +0.000 A 
ATOM     22  C   UNL     1       2.582   5.625  19.505  0.00  0.00    +0.000 A 
ATOM     23  C   UNL     1       1.824   5.946  20.629  0.00  0.00    +0.000 A 
ATOM     24  C   UNL     1       1.300   7.242  20.787  0.00  0.00    +0.000 A 
ENDBRANCH  17  19
ENDBRANCH   7  17
TORSDOF 2
ENDMDL
MODEL 6
REMARK VINA RESULT:      -6.3      1.831      4.915
REMARK  Name = 
REMARK  6 active torsions:
REMARK  status: ('A' for Active; 'I' for Inactive)
REMARK    1  A    between atoms: C_1  and  C_2
REMARK    2  A    between atoms: C_2  and  C_3
REMARK    3  A    between atoms: C_7  and  C_8
REMARK    4  A    between atoms: C_8  and  C_10
REMARK    5  A    between atoms: C_18  and  C_19
REMARK    6  A    between atoms: C_18  and  C_20
REMARK                            x       y       z     vdW  Elec       q    Type
REMARK                         _______ _______ _______ _____ _____    ______ ____
ROOT
ATOM      1  C   UNL     1       7.624   5.482  13.736  0.00  0.00    +0.000 C 
ATOM      2  C   UNL     1       6.708   4.957  14.831  0.00  0.00    +0.000 C 
ATOM      3  C   UNL     1       6.353   3.490  14.517  0.00  0.00    +0.000 C 
ATOM      4  O   UNL     1       7.380   5.041  16.091  0.00  0.00    +0.000 OA
ATOM      5  C   UNL     1       6.315   4.875  17.019  0.00  0.00    +0.000 C 
ATOM      6  O   UNL     1       6.634   5.400  18.307  0.00  0.00    +0.000 OA
ATOM      7  C   UNL     1       5.446   5.425  19.125  0.00  0.00    +0.000 C 
ATOM      8  C   UNL     1       4.651   6.615  18.586  0.00  0.00    +0.000 C 
ATOM      9  O   UNL     1       3.350   6.860  19.111  0.00  0.00    +0.000 OA
ATOM     10  C   UNL     1       2.679   7.569  18.055  0.00  0.00    +0.000 C 
ATOM     11  C   UNL     1       3.021   9.070  18.105  0.00  0.00    +0.000 C 
ATOM     12  C   UNL     1       1.170   7.414  18.202  0.00  0.00    +0.000 C 
ATOM     13  O   UNL     1       3.160   7.012  16.818  0.00  0.00    +0.000 OA
ATOM     14  C   UNL     1       4.557   6.717  17.063  0.00  0.00    +0.000 C 
ATOM     15  C   UNL     1       5.076   5.481  16.333  0.00  0.00    +0.000 C 
ATOM     16  O   UNL     1       5.507   5.731  14.969  0.00  0.00    +0.000 OA
ENDROOT
BRANCH   7  17
ATOM     17  C   UNL     1       4.829   4.003  19.176  0.00  0.00    +0.000 C 
ATOM     18  O   UNL     1       5.517   2.987  19.244  0.00  0.00    +0.000 OA
BRANCH  17  19
ATOM     19  C   UNL     1       3.321   3.889  19.328  0.00  0.00    +0.000 A 
ATOM     20  C   UNL     1       2.698   3.976  20.581  0.00  0.00    +0.000 A 
ATOM     21  C   UNL     1       1.312   3.805  20.716  0.00  0.00    +0.000 A 
ATOM     22  C   UNL     1       0.535   3.546  19.594  0.00  0.00    +0.000 A 
ATOM     23  C   UNL     1       1.139   3.437  18.343  0.00  0.00    +0.000 A 
ATOM     24  C   UNL     1       2.529   3.606  18.207  0.00  0.00    +0.000 A 
ENDBRANCH  17  19
ENDBRANCH   7  17
TORSDOF 2
ENDMDL
MODEL 7
REMARK VINA RESULT:      -6.3      4.275      8.284
REMARK  Name = 
REMARK  6 active torsions:
REMARK  status: ('A' for Active; 'I' for Inactive)
REMARK    1  A    between atoms: C_1  and  C_2
REMARK    2  A    between atoms: C_2  and  C_3
REMARK    3  A    between atoms: C_7  and  C_8
REMARK    4  A    between atoms: C_8  and  C_10
REMARK    5  A    between atoms: C_18  and  C_19
REMARK    6  A    between atoms: C_18  and  C_20
REMARK                            x       y       z     vdW  Elec       q    Type
REMARK                         _______ _______ _______ _____ _____    ______ ____
ROOT
ATOM      1  C   UNL     1      -0.406  15.459  21.376  0.00  0.00    +0.000 C 
ATOM      2  C   UNL     1       0.091  14.329  20.489  0.00  0.00    +0.000 C 
ATOM      3  C   UNL     1       1.497  14.690  19.970  0.00  0.00    +0.000 C 
ATOM      4  O   UNL     1       0.142  13.119  21.248  0.00  0.00    +0.000 OA
ATOM      5  C   UNL     1       0.259  12.126  20.237  0.00  0.00    +0.000 C 
ATOM      6  O   UNL     1      -0.159  10.839  20.691  0.00  0.00    +0.000 OA
ATOM      7  C   UNL     1      -0.251   9.937  19.569  0.00  0.00    +0.000 C 
ATOM      8  C   UNL     1      -1.539  10.358  18.862  0.00  0.00    +0.000 C 
ATOM      9  O   UNL     1      -1.877   9.728  17.629  0.00  0.00    +0.000 OA
ATOM     10  C   UNL     1      -2.706  10.696  16.963  0.00  0.00    +0.000 C 
ATOM     11  C   UNL     1      -4.162  10.596  17.454  0.00  0.00    +0.000 C 
ATOM     12  C   UNL     1      -2.688  10.448  15.459  0.00  0.00    +0.000 C 
ATOM     13  O   UNL     1      -2.177  11.990  17.303  0.00  0.00    +0.000 OA
ATOM     14  C   UNL     1      -1.737  11.862  18.676  0.00  0.00    +0.000 C 
ATOM     15  C   UNL     1      -0.500  12.689  19.020  0.00  0.00    +0.000 C 
ATOM     16  O   UNL     1      -0.785  14.066  19.382  0.00  0.00    +0.000 OA
ENDROOT
BRANCH   7  17
ATOM     17  C   UNL     1       1.107   9.912  18.819  0.00  0.00    +0.000 C 
ATOM     18  O   UNL     1       1.613  10.923  18.337  0.00  0.00    +0.000 OA
BRANCH  17  19
ATOM     19  C   UNL     1       1.909   8.622  18.848  0.00  0.00    +0.000 A 
ATOM     20  C   UNL     1       2.698   8.221  17.760  0.00  0.00    +0.000 A 
ATOM     21  C   UNL     1       3.383   6.997  17.772  0.00  0.00    +0.000 A 
ATOM     22  C   UNL     1       3.284   6.161  18.877  0.00  0.00    +0.000 A 
ATOM     23  C   UNL     1       2.490   6.534  19.959  0.00  0.00    +0.000 A 
ATOM     24  C   UNL     1       1.801   7.760  19.947  0.00  0.00    +0.000 A 
ENDBRANCH  17  19
ENDBRANCH   7  17
TORSDOF 2
ENDMDL
MODEL 8
REMARK VINA RESULT:      -6.3      5.294      9.070
REMARK  Name = 
REMARK  6 active torsions:
REMARK  status: ('A' for Active; 'I' for Inactive)
REMARK    1  A    between atoms: C_1  and  C_2
REMARK    2  A    between atoms: C_2  and  C_3
REMARK    3  A    between atoms: C_7  and  C_8
REMARK    4  A    between atoms: C_8  and  C_10
REMARK    5  A    between atoms: C_18  and  C_19
REMARK    6  A    between atoms: C_18  and  C_20
REMARK                            x       y       z     vdW  Elec       q    Type
REMARK                         _______ _______ _______ _____ _____    ______ ____
ROOT
ATOM      1  C   UNL     1       2.694  16.028  20.900  0.00  0.00    +0.000 C 
ATOM      2  C   UNL     1       1.765  14.911  20.450  0.00  0.00    +0.000 C 
ATOM      3  C   UNL     1       1.907  14.734  18.925  0.00  0.00    +0.000 C 
ATOM      4  O   UNL     1       2.122  13.699  21.121  0.00  0.00    +0.000 OA
ATOM      5  C   UNL     1       0.985  12.875  20.894  0.00  0.00    +0.000 C 
ATOM      6  O   UNL     1       0.881  11.822  21.851  0.00  0.00    +0.000 OA
ATOM      7  C   UNL     1      -0.403  11.178  21.723  0.00  0.00    +0.000 C 
ATOM      8  C   UNL     1      -1.377  12.166  22.366  0.00  0.00    +0.000 C 
ATOM      9  O   UNL     1      -2.772  11.882  22.311  0.00  0.00    +0.000 OA
ATOM     10  C   UNL     1      -3.392  13.176  22.412  0.00  0.00    +0.000 C 
ATOM     11  C   UNL     1      -3.503  13.613  23.884  0.00  0.00    +0.000 C 
ATOM     12  C   UNL     1      -4.795  13.128  21.818  0.00  0.00    +0.000 C 
ATOM     13  O   UNL     1      -2.538  14.095  21.706  0.00  0.00    +0.000 OA
ATOM     14  C   UNL     1      -1.192  13.633  21.976  0.00  0.00    +0.000 C 
ATOM     15  C   UNL     1      -0.213  13.841  20.824  0.00  0.00    +0.000 C 
ATOM     16  O   UNL     1       0.392  15.161  20.787  0.00  0.00    +0.000 OA
ENDROOT
BRANCH   7  17
ATOM     17  C   UNL     1      -0.593  10.700  20.259  0.00  0.00    +0.000 C 
ATOM     18  O   UNL     1      -1.468  11.153  19.525  0.00  0.00    +0.000 OA
BRANCH  17  19
ATOM     19  C   UNL     1       0.458   9.771  19.676  0.00  0.00    +0.000 A 
ATOM     20  C   UNL     1       0.860   9.862  18.335  0.00  0.00    +0.000 A 
ATOM     21  C   UNL     1       1.783   8.958  17.791  0.00  0.00    +0.000 A 
ATOM     22  C   UNL     1       2.316   7.952  18.586  0.00  0.00    +0.000 A 
ATOM     23  C   UNL     1       1.916   7.834  19.915  0.00  0.00    +0.000 A 
ATOM     24  C   UNL     1       0.988   8.739  20.462  0.00  0.00    +0.000 A 
ENDBRANCH  17  19
ENDBRANCH   7  17
TORSDOF 2
ENDMDL
MODEL 9
REMARK VINA RESULT:      -6.3      6.665      9.087
REMARK  Name = 
REMARK  6 active torsions:
REMARK  status: ('A' for Active; 'I' for Inactive)
REMARK    1  A    between atoms: C_1  and  C_2
REMARK    2  A    between atoms: C_2  and  C_3
REMARK    3  A    between atoms: C_7  and  C_8
REMARK    4  A    between atoms: C_8  and  C_10
REMARK    5  A    between atoms: C_18  and  C_19
REMARK    6  A    between atoms: C_18  and  C_20
REMARK                            x       y       z     vdW  Elec       q    Type
REMARK                         _______ _______ _______ _____ _____    ______ ____
ROOT
ATOM      1  C   UNL     1      -2.667  10.124  15.316  0.00  0.00    +0.000 C 
ATOM      2  C   UNL     1      -2.499  10.441  16.794  0.00  0.00    +0.000 C 
ATOM      3  C   UNL     1      -3.778  10.011  17.540  0.00  0.00    +0.000 C 
ATOM      4  O   UNL     1      -1.369   9.729  17.305  0.00  0.00    +0.000 OA
ATOM      5  C   UNL     1      -1.126  10.386  18.543  0.00  0.00    +0.000 C 
ATOM      6  O   UNL     1       0.212  10.198  19.001  0.00  0.00    +0.000 OA
ATOM      7  C   UNL     1       0.468  11.076  20.118  0.00  0.00    +0.000 C 
ATOM      8  C   UNL     1       0.641  12.451  19.473  0.00  0.00    +0.000 C 
ATOM      9  O   UNL     1       0.802  13.585  20.320  0.00  0.00    +0.000 OA
ATOM     10  C   UNL     1       0.333  14.684  19.519  0.00  0.00    +0.000 C 
ATOM     11  C   UNL     1       1.444  15.184  18.577  0.00  0.00    +0.000 C 
ATOM     12  C   UNL     1      -0.091  15.839  20.418  0.00  0.00    +0.000 C 
ATOM     13  O   UNL     1      -0.763  14.180  18.735  0.00  0.00    +0.000 OA
ATOM     14  C   UNL     1      -0.389  12.820  18.405  0.00  0.00    +0.000 C 
ATOM     15  C   UNL     1      -1.563  11.847  18.324  0.00  0.00    +0.000 C 
ATOM     16  O   UNL     1      -2.237  11.831  17.037  0.00  0.00    +0.000 OA
ENDROOT
BRANCH   7  17
ATOM     17  C   UNL     1      -0.599  10.831  21.217  0.00  0.00    +0.000 C 
ATOM     18  O   UNL     1      -0.779   9.728  21.728  0.00  0.00    +0.000 OA
BRANCH  17  19
ATOM     19  C   UNL     1      -1.312  12.042  21.795  0.00  0.00    +0.000 A 
ATOM     20  C   UNL     1      -0.792  12.750  22.889  0.00  0.00    +0.000 A 
ATOM     21  C   UNL     1      -1.490  13.827  23.455  0.00  0.00    +0.000 A 
ATOM     22  C   UNL     1      -2.719  14.206  22.929  0.00  0.00    +0.000 A 
ATOM     23  C   UNL     1      -3.260  13.503  21.855  0.00  0.00    +0.000 A 
ATOM     24  C   UNL     1      -2.562  12.422  21.288  0.00  0.00    +0.000 A 
ENDBRANCH  17  19
ENDBRANCH   7  17
TORSDOF 2
ENDMDL
