MODEL 1
REMARK VINA RESULT:      -8.3      0.000      0.000
REMARK  Name = 
REMARK  6 active torsions:
REMARK  status: ('A' for Active; 'I' for Inactive)
REMARK    1  A    between atoms: C_1  and  O_2
REMARK    2  A    between atoms: O_2  and  C_3
REMARK    3  A    between atoms: N_5  and  C_6
REMARK    4  A    between atoms: N_15  and  C_16
REMARK    5  A    between atoms: C_19  and  C_20
REMARK    6  A    between atoms: C_20  and  O_22
REMARK                            x       y       z     vdW  Elec       q    Type
REMARK                         _______ _______ _______ _____ _____    ______ ____
ROOT
ATOM      1  C   UNL     1       3.103   3.882  20.286  0.00  0.00    +0.000 A 
ATOM      2  N   UNL     1       3.938   3.484  19.334  0.00  0.00    +0.000 NA
ATOM      3  N   UNL     1       4.112   4.587  18.549  0.00  0.00    +0.000 N 
ATOM      4  C   UNL     1       3.318   5.649  18.983  0.00  0.00    +0.000 A 
ATOM      5  N   UNL     1       3.171   6.877  18.439  0.00  0.00    +0.000 NA
ATOM      6  C   UNL     1       2.316   7.669  19.103  0.00  0.00    +0.000 A 
ATOM      7  N   UNL     1       2.080   8.934  18.549  0.00  0.00    +0.000 N 
ATOM      8  N   UNL     1       1.668   7.329  20.239  0.00  0.00    +0.000 NA
ATOM      9  C   UNL     1       1.846   6.101  20.770  0.00  0.00    +0.000 A 
ATOM     10  C   UNL     1       2.677   5.204  20.127  0.00  0.00    +0.000 A 
ATOM     11  H   UNL     1       2.538   8.962  17.645  0.00  0.00    +0.000 HD
ENDROOT
BRANCH   3  12
ATOM     12  C   UNL     1       5.035   4.523  17.465  0.00  0.00    +0.000 A 
ATOM     13  C   UNL     1       6.407   4.693  17.723  0.00  0.00    +0.000 A 
ATOM     14  C   UNL     1       7.334   4.663  16.680  0.00  0.00    +0.000 A 
ATOM     15  C   UNL     1       6.901   4.468  15.372  0.00  0.00    +0.000 A 
ATOM     16  C   UNL     1       5.545   4.298  15.106  0.00  0.00    +0.000 A 
ATOM     17  C   UNL     1       4.612   4.323  16.146  0.00  0.00    +0.000 A 
ENDBRANCH   3  12
BRANCH   7  18
ATOM     18  C   UNL     1       0.847   9.615  18.560  0.00  0.00    +0.000 A 
ATOM     19  C   UNL     1       0.631  10.624  19.506  0.00  0.00    +0.000 A 
ATOM     20  C   UNL     1      -0.580  11.327  19.533  0.00  0.00    +0.000 A 
ATOM     21  C   UNL     1      -1.582  11.048  18.595  0.00  0.00    +0.000 A 
ATOM     22  C   UNL     1      -1.354  10.081  17.613  0.00  0.00    +0.000 A 
ATOM     23  C   UNL     1      -0.148   9.373  17.603  0.00  0.00    +0.000 A 
BRANCH  21  24
ATOM     24  C   UNL     1      -2.834  11.846  18.644  0.00  0.00    +0.000 C 
ATOM     25  O   UNL     1      -3.287  12.295  19.682  0.00  0.00    +0.000 OA
BRANCH  24  26
ATOM     26  O   UNL     1      -3.438  12.009  17.448  0.00  0.00    +0.000 OA
ATOM     27  H   UNL     1      -3.454  11.221  16.877  0.00  0.00    +0.000 HD
ENDBRANCH  24  26
ENDBRANCH  21  24
ENDBRANCH   7  18
BRANCH   1  29
ATOM     28  C   UNL     1       1.367   2.624  21.194  0.00  0.00    +0.000 C 
ATOM     29  O   UNL     1       2.730   3.036  21.273  0.00  0.00    +0.000 OA
ENDBRANCH   1  29
TORSDOF 5
ENDMDL
MODEL 2
REMARK VINA RESULT:      -8.2      0.202      1.326
REMARK  Name = 
REMARK  6 active torsions:
REMARK  status: ('A' for Active; 'I' for Inactive)
REMARK    1  A    between atoms: C_1  and  O_2
REMARK    2  A    between atoms: O_2  and  C_3
REMARK    3  A    between atoms: N_5  and  C_6
REMARK    4  A    between atoms: N_15  and  C_16
REMARK    5  A    between atoms: C_19  and  C_20
REMARK    6  A    between atoms: C_20  and  O_22
REMARK                            x       y       z     vdW  Elec       q    Type
REMARK                         _______ _______ _______ _____ _____    ______ ____
ROOT
ATOM      1  C   UNL     1       3.013   4.044  20.254  0.00  0.00    +0.000 A 
ATOM      2  N   UNL     1       3.858   3.628  19.319  0.00  0.00    +0.000 NA
ATOM      3  N   UNL     1       4.061   4.724  18.531  0.00  0.00    +0.000 N 
ATOM      4  C   UNL     1       3.275   5.799  18.945  0.00  0.00    +0.000 A 
ATOM      5  N   UNL     1       3.155   7.027  18.391  0.00  0.00    +0.000 NA
ATOM      6  C   UNL     1       2.300   7.834  19.036  0.00  0.00    +0.000 A 
ATOM      7  N   UNL     1       2.092   9.099  18.470  0.00  0.00    +0.000 N 
ATOM      8  N   UNL     1       1.628   7.511  20.162  0.00  0.00    +0.000 NA
ATOM      9  C   UNL     1       1.779   6.283  20.703  0.00  0.00    +0.000 A 
ATOM     10  C   UNL     1       2.608   5.370  20.080  0.00  0.00    +0.000 A 
ATOM     11  H   UNL     1       2.566   9.116  17.575  0.00  0.00    +0.000 HD
ENDROOT
BRANCH   3  12
ATOM     12  C   UNL     1       5.002   4.641  17.463  0.00  0.00    +0.000 A 
ATOM     13  C   UNL     1       4.534   4.435  16.153  0.00  0.00    +0.000 A 
ATOM     14  C   UNL     1       5.430   4.322  15.089  0.00  0.00    +0.000 A 
ATOM     15  C   UNL     1       6.799   4.411  15.322  0.00  0.00    +0.000 A 
ATOM     16  C   UNL     1       7.272   4.615  16.616  0.00  0.00    +0.000 A 
ATOM     17  C   UNL     1       6.381   4.733  17.685  0.00  0.00    +0.000 A 
ENDBRANCH   3  12
BRANCH   7  18
ATOM     18  C   UNL     1       0.869   9.798  18.457  0.00  0.00    +0.000 A 
ATOM     19  C   UNL     1      -0.161   9.361  17.617  0.00  0.00    +0.000 A 
ATOM     20  C   UNL     1      -1.391  10.028  17.591  0.00  0.00    +0.000 A 
ATOM     21  C   UNL     1      -1.618  11.128  18.428  0.00  0.00    +0.000 A 
ATOM     22  C   UNL     1      -0.615  11.538  19.310  0.00  0.00    +0.000 A 
ATOM     23  C   UNL     1       0.616  10.876  19.318  0.00  0.00    +0.000 A 
BRANCH  21  24
ATOM     24  C   UNL     1      -2.953  11.779  18.389  0.00  0.00    +0.000 C 
ATOM     25  O   UNL     1      -3.536  12.143  19.395  0.00  0.00    +0.000 OA
BRANCH  24  26
ATOM     26  O   UNL     1      -3.472  11.911  17.150  0.00  0.00    +0.000 OA
ATOM     27  H   UNL     1      -2.869  12.280  16.482  0.00  0.00    +0.000 HD
ENDBRANCH  24  26
ENDBRANCH  21  24
ENDBRANCH   7  18
BRANCH   1  29
ATOM     28  C   UNL     1       1.270   2.743  21.088  0.00  0.00    +0.000 C 
ATOM     29  O   UNL     1       2.610   3.209  21.239  0.00  0.00    +0.000 OA
ENDBRANCH   1  29
TORSDOF 5
ENDMDL
MODEL 3
REMARK VINA RESULT:      -8.2      0.217      1.107
REMARK  Name = 
REMARK  6 active torsions:
REMARK  status: ('A' for Active; 'I' for Inactive)
REMARK    1  A    between atoms: C_1  and  O_2
REMARK    2  A    between atoms: O_2  and  C_3
REMARK    3  A    between atoms: N_5  and  C_6
REMARK    4  A    between atoms: N_15  and  C_16
REMARK    5  A    between atoms: C_19  and  C_20
REMARK    6  A    between atoms: C_20  and  O_22
REMARK                            x       y       z     vdW  Elec       q    Type
REMARK                         _______ _______ _______ _____ _____    ______ ____
ROOT
ATOM      1  C   UNL     1       3.044   4.004  20.327  0.00  0.00    +0.000 A 
ATOM      2  N   UNL     1       3.884   3.580  19.391  0.00  0.00    +0.000 NA
ATOM      3  N   UNL     1       4.079   4.669  18.590  0.00  0.00    +0.000 N 
ATOM      4  C   UNL     1       3.292   5.747  18.999  0.00  0.00    +0.000 A 
ATOM      5  N   UNL     1       3.166   6.968  18.433  0.00  0.00    +0.000 NA
ATOM      6  C   UNL     1       2.312   7.780  19.075  0.00  0.00    +0.000 A 
ATOM      7  N   UNL     1       2.097   9.038  18.498  0.00  0.00    +0.000 N 
ATOM      8  N   UNL     1       1.649   7.465  20.209  0.00  0.00    +0.000 NA
ATOM      9  C   UNL     1       1.807   6.244  20.762  0.00  0.00    +0.000 A 
ATOM     10  C   UNL     1       2.635   5.327  20.142  0.00  0.00    +0.000 A 
ATOM     11  H   UNL     1       2.565   9.047  17.600  0.00  0.00    +0.000 HD
ENDROOT
BRANCH   3  12
ATOM     12  C   UNL     1       5.013   4.578  17.517  0.00  0.00    +0.000 A 
ATOM     13  C   UNL     1       6.386   4.705  17.791  0.00  0.00    +0.000 A 
ATOM     14  C   UNL     1       7.324   4.648  16.760  0.00  0.00    +0.000 A 
ATOM     15  C   UNL     1       6.902   4.466  15.447  0.00  0.00    +0.000 A 
ATOM     16  C   UNL     1       5.544   4.338  15.164  0.00  0.00    +0.000 A 
ATOM     17  C   UNL     1       4.600   4.390  16.193  0.00  0.00    +0.000 A 
ENDBRANCH   3  12
BRANCH   7  18
ATOM     18  C   UNL     1       0.872   9.733  18.486  0.00  0.00    +0.000 A 
ATOM     19  C   UNL     1      -0.135   9.333  17.601  0.00  0.00    +0.000 A 
ATOM     20  C   UNL     1      -1.367   9.997  17.575  0.00  0.00    +0.000 A 
ATOM     21  C   UNL     1      -1.619  11.056  18.456  0.00  0.00    +0.000 A 
ATOM     22  C   UNL     1      -0.640  11.429  19.381  0.00  0.00    +0.000 A 
ATOM     23  C   UNL     1       0.593  10.769  19.389  0.00  0.00    +0.000 A 
BRANCH  21  24
ATOM     24  C   UNL     1      -2.954  11.705  18.414  0.00  0.00    +0.000 C 
ATOM     25  O   UNL     1      -3.811  11.394  17.606  0.00  0.00    +0.000 OA
BRANCH  24  26
ATOM     26  O   UNL     1      -3.127  12.684  19.327  0.00  0.00    +0.000 OA
ATOM     27  H   UNL     1      -2.324  13.177  19.568  0.00  0.00    +0.000 HD
ENDBRANCH  24  26
ENDBRANCH  21  24
ENDBRANCH   7  18
BRANCH   1  29
ATOM     28  C   UNL     1       1.334   2.655  21.153  0.00  0.00    +0.000 C 
ATOM     29  O   UNL     1       2.650   3.178  21.323  0.00  0.00    +0.000 OA
ENDBRANCH   1  29
TORSDOF 5
ENDMDL
MODEL 4
REMARK VINA RESULT:      -8.1      0.227      1.112
REMARK  Name = 
REMARK  6 active torsions:
REMARK  status: ('A' for Active; 'I' for Inactive)
REMARK    1  A    between atoms: C_1  and  O_2
REMARK    2  A    between atoms: O_2  and  C_3
REMARK    3  A    between atoms: N_5  and  C_6
REMARK    4  A    between atoms: N_15  and  C_16
REMARK    5  A    between atoms: C_19  and  C_20
REMARK    6  A    between atoms: C_20  and  O_22
REMARK                            x       y       z     vdW  Elec       q    Type
REMARK                         _______ _______ _______ _____ _____    ______ ____
ROOT
ATOM      1  C   UNL     1       3.027   4.000  20.405  0.00  0.00    +0.000 A 
ATOM      2  N   UNL     1       3.887   3.599  19.475  0.00  0.00    +0.000 NA
ATOM      3  N   UNL     1       4.064   4.694  18.679  0.00  0.00    +0.000 N 
ATOM      4  C   UNL     1       3.248   5.751  19.082  0.00  0.00    +0.000 A 
ATOM      5  N   UNL     1       3.098   6.971  18.518  0.00  0.00    +0.000 NA
ATOM      6  C   UNL     1       2.219   7.761  19.153  0.00  0.00    +0.000 A 
ATOM      7  N   UNL     1       1.980   9.015  18.577  0.00  0.00    +0.000 N 
ATOM      8  N   UNL     1       1.552   7.428  20.280  0.00  0.00    +0.000 NA
ATOM      9  C   UNL     1       1.734   6.210  20.832  0.00  0.00    +0.000 A 
ATOM     10  C   UNL     1       2.589   5.314  20.218  0.00  0.00    +0.000 A 
ATOM     11  H   UNL     1       2.457   9.037  17.683  0.00  0.00    +0.000 HD
ENDROOT
BRANCH   3  12
ATOM     12  C   UNL     1       5.010   4.627  17.615  0.00  0.00    +0.000 A 
ATOM     13  C   UNL     1       4.549   4.435  16.300  0.00  0.00    +0.000 A 
ATOM     14  C   UNL     1       5.450   4.339  15.239  0.00  0.00    +0.000 A 
ATOM     15  C   UNL     1       6.818   4.429  15.480  0.00  0.00    +0.000 A 
ATOM     16  C   UNL     1       7.284   4.620  16.779  0.00  0.00    +0.000 A 
ATOM     17  C   UNL     1       6.387   4.722  17.845  0.00  0.00    +0.000 A 
ENDBRANCH   3  12
BRANCH   7  18
ATOM     18  C   UNL     1       0.739   9.681  18.554  0.00  0.00    +0.000 A 
ATOM     19  C   UNL     1       0.497  10.711  19.470  0.00  0.00    +0.000 A 
ATOM     20  C   UNL     1      -0.722  11.399  19.462  0.00  0.00    +0.000 A 
ATOM     21  C   UNL     1      -1.707  11.084  18.518  0.00  0.00    +0.000 A 
ATOM     22  C   UNL     1      -1.454  10.095  17.565  0.00  0.00    +0.000 A 
ATOM     23  C   UNL     1      -0.240   9.402  17.589  0.00  0.00    +0.000 A 
BRANCH  21  24
ATOM     24  C   UNL     1      -2.970  11.868  18.529  0.00  0.00    +0.000 C 
ATOM     25  O   UNL     1      -3.871  11.673  17.733  0.00  0.00    +0.000 OA
BRANCH  24  26
ATOM     26  O   UNL     1      -3.021  12.828  19.477  0.00  0.00    +0.000 OA
ATOM     27  H   UNL     1      -2.355  12.753  20.183  0.00  0.00    +0.000 HD
ENDBRANCH  24  26
ENDBRANCH  21  24
ENDBRANCH   7  18
BRANCH   1  29
ATOM     28  C   UNL     1       1.352   2.590  21.198  0.00  0.00    +0.000 C 
ATOM     29  O   UNL     1       2.644   3.163  21.394  0.00  0.00    +0.000 OA
ENDBRANCH   1  29
TORSDOF 5
ENDMDL
MODEL 5
REMARK VINA RESULT:      -7.8      0.919      1.040
REMARK  Name = 
REMARK  6 active torsions:
REMARK  status: ('A' for Active; 'I' for Inactive)
REMARK    1  A    between atoms: C_1  and  O_2
REMARK    2  A    between atoms: O_2  and  C_3
REMARK    3  A    between atoms: N_5  and  C_6
REMARK    4  A    between atoms: N_15  and  C_16
REMARK    5  A    between atoms: C_19  and  C_20
REMARK    6  A    between atoms: C_20  and  O_22
REMARK                            x       y       z     vdW  Elec       q    Type
REMARK                         _______ _______ _______ _____ _____    ______ ____
ROOT
ATOM      1  C   UNL     1       2.844   4.409  20.212  0.00  0.00    +0.000 A 
ATOM      2  N   UNL     1       3.570   4.021  19.170  0.00  0.00    +0.000 NA
ATOM      3  N   UNL     1       3.639   5.127  18.372  0.00  0.00    +0.000 N 
ATOM      4  C   UNL     1       2.886   6.178  18.896  0.00  0.00    +0.000 A 
ATOM      5  N   UNL     1       2.663   7.405  18.374  0.00  0.00    +0.000 NA
ATOM      6  C   UNL     1       1.879   8.185  19.132  0.00  0.00    +0.000 A 
ATOM      7  N   UNL     1       1.566   9.447  18.611  0.00  0.00    +0.000 N 
ATOM      8  N   UNL     1       1.370   7.837  20.334  0.00  0.00    +0.000 NA
ATOM      9  C   UNL     1       1.623   6.611  20.840  0.00  0.00    +0.000 A 
ATOM     10  C   UNL     1       2.387   5.725  20.104  0.00  0.00    +0.000 A 
ATOM     11  H   UNL     1       1.918   9.482  17.661  0.00  0.00    +0.000 HD
ENDROOT
BRANCH   3  12
ATOM     12  C   UNL     1       4.433   5.075  17.189  0.00  0.00    +0.000 A 
ATOM     13  C   UNL     1       4.906   3.831  16.736  0.00  0.00    +0.000 A 
ATOM     14  C   UNL     1       5.708   3.749  15.596  0.00  0.00    +0.000 A 
ATOM     15  C   UNL     1       6.048   4.906  14.902  0.00  0.00    +0.000 A 
ATOM     16  C   UNL     1       5.584   6.143  15.343  0.00  0.00    +0.000 A 
ATOM     17  C   UNL     1       4.778   6.232  16.480  0.00  0.00    +0.000 A 
ENDBRANCH   3  12
BRANCH   7  18
ATOM     18  C   UNL     1       0.334  10.113  18.765  0.00  0.00    +0.000 A 
ATOM     19  C   UNL     1       0.192  11.068  19.777  0.00  0.00    +0.000 A 
ATOM     20  C   UNL     1      -1.016  11.755  19.945  0.00  0.00    +0.000 A 
ATOM     21  C   UNL     1      -2.093  11.514  19.083  0.00  0.00    +0.000 A 
ATOM     22  C   UNL     1      -1.944  10.601  18.036  0.00  0.00    +0.000 A 
ATOM     23  C   UNL     1      -0.739   9.909  17.884  0.00  0.00    +0.000 A 
BRANCH  21  24
ATOM     24  C   UNL     1      -3.342  12.294  19.282  0.00  0.00    +0.000 C 
ATOM     25  O   UNL     1      -3.604  12.861  20.327  0.00  0.00    +0.000 OA
BRANCH  24  26
ATOM     26  O   UNL     1      -4.171  12.299  18.216  0.00  0.00    +0.000 OA
ATOM     27  H   UNL     1      -3.981  11.628  17.537  0.00  0.00    +0.000 HD
ENDBRANCH  24  26
ENDBRANCH  21  24
ENDBRANCH   7  18
BRANCH   1  29
ATOM     28  C   UNL     1       1.372   2.838  21.100  0.00  0.00    +0.000 C 
ATOM     29  O   UNL     1       2.597   3.558  21.233  0.00  0.00    +0.000 OA
ENDBRANCH   1  29
TORSDOF 5
ENDMDL
MODEL 6
REMARK VINA RESULT:      -7.8      0.889      1.318
REMARK  Name = 
REMARK  6 active torsions:
REMARK  status: ('A' for Active; 'I' for Inactive)
REMARK    1  A    between atoms: C_1  and  O_2
REMARK    2  A    between atoms: O_2  and  C_3
REMARK    3  A    between atoms: N_5  and  C_6
REMARK    4  A    between atoms: N_15  and  C_16
REMARK    5  A    between atoms: C_19  and  C_20
REMARK    6  A    between atoms: C_20  and  O_22
REMARK                            x       y       z     vdW  Elec       q    Type
REMARK                         _______ _______ _______ _____ _____    ______ ____
ROOT
ATOM      1  C   UNL     1       3.481   3.815  19.217  0.00  0.00    +0.000 A 
ATOM      2  N   UNL     1       4.268   3.511  18.192  0.00  0.00    +0.000 NA
ATOM      3  N   UNL     1       4.428   4.691  17.524  0.00  0.00    +0.000 N 
ATOM      4  C   UNL     1       3.671   5.710  18.105  0.00  0.00    +0.000 A 
ATOM      5  N   UNL     1       3.523   6.992  17.703  0.00  0.00    +0.000 NA
ATOM      6  C   UNL     1       2.710   7.717  18.485  0.00  0.00    +0.000 A 
ATOM      7  N   UNL     1       2.474   9.038  18.082  0.00  0.00    +0.000 N 
ATOM      8  N   UNL     1       2.105   7.264  19.604  0.00  0.00    +0.000 NA
ATOM      9  C   UNL     1       2.283   5.984  19.992  0.00  0.00    +0.000 A 
ATOM     10  C   UNL     1       3.071   5.151  19.220  0.00  0.00    +0.000 A 
ATOM     11  H   UNL     1       2.894   9.158  17.168  0.00  0.00    +0.000 HD
ENDROOT
BRANCH   3  12
ATOM     12  C   UNL     1       5.304   4.734  16.400  0.00  0.00    +0.000 A 
ATOM     13  C   UNL     1       4.874   4.191  15.176  0.00  0.00    +0.000 A 
ATOM     14  C   UNL     1       5.718   4.193  14.064  0.00  0.00    +0.000 A 
ATOM     15  C   UNL     1       6.996   4.734  14.163  0.00  0.00    +0.000 A 
ATOM     16  C   UNL     1       7.431   5.275  15.371  0.00  0.00    +0.000 A 
ATOM     17  C   UNL     1       6.590   5.279  16.487  0.00  0.00    +0.000 A 
ENDBRANCH   3  12
BRANCH   7  18
ATOM     18  C   UNL     1       1.254   9.729  18.220  0.00  0.00    +0.000 A 
ATOM     19  C   UNL     1       1.228  10.938  18.925  0.00  0.00    +0.000 A 
ATOM     20  C   UNL     1       0.033  11.653  19.068  0.00  0.00    +0.000 A 
ATOM     21  C   UNL     1      -1.149  11.182  18.483  0.00  0.00    +0.000 A 
ATOM     22  C   UNL     1      -1.122  10.005  17.732  0.00  0.00    +0.000 A 
ATOM     23  C   UNL     1       0.073   9.289  17.607  0.00  0.00    +0.000 A 
BRANCH  21  24
ATOM     24  C   UNL     1      -2.382  11.997  18.634  0.00  0.00    +0.000 C 
ATOM     25  O   UNL     1      -2.653  12.596  19.659  0.00  0.00    +0.000 OA
BRANCH  24  26
ATOM     26  O   UNL     1      -3.188  11.994  17.550  0.00  0.00    +0.000 OA
ATOM     27  H   UNL     1      -4.057  11.574  17.677  0.00  0.00    +0.000 HD
ENDBRANCH  24  26
ENDBRANCH  21  24
ENDBRANCH   7  18
BRANCH   1  29
ATOM     28  C   UNL     1       1.965   2.134  19.767  0.00  0.00    +0.000 C 
ATOM     29  O   UNL     1       3.134   2.871  20.121  0.00  0.00    +0.000 OA
ENDBRANCH   1  29
TORSDOF 5
ENDMDL
MODEL 7
REMARK VINA RESULT:      -7.8      1.163      1.355
REMARK  Name = 
REMARK  6 active torsions:
REMARK  status: ('A' for Active; 'I' for Inactive)
REMARK    1  A    between atoms: C_1  and  O_2
REMARK    2  A    between atoms: O_2  and  C_3
REMARK    3  A    between atoms: N_5  and  C_6
REMARK    4  A    between atoms: N_15  and  C_16
REMARK    5  A    between atoms: C_19  and  C_20
REMARK    6  A    between atoms: C_20  and  O_22
REMARK                            x       y       z     vdW  Elec       q    Type
REMARK                         _______ _______ _______ _____ _____    ______ ____
ROOT
ATOM      1  C   UNL     1       2.570   4.710  20.544  0.00  0.00    +0.000 A 
ATOM      2  N   UNL     1       3.286   4.304  19.503  0.00  0.00    +0.000 NA
ATOM      3  N   UNL     1       3.353   5.397  18.687  0.00  0.00    +0.000 N 
ATOM      4  C   UNL     1       2.608   6.459  19.201  0.00  0.00    +0.000 A 
ATOM      5  N   UNL     1       2.385   7.679  18.662  0.00  0.00    +0.000 NA
ATOM      6  C   UNL     1       1.610   8.473  19.414  0.00  0.00    +0.000 A 
ATOM      7  N   UNL     1       1.297   9.728  18.876  0.00  0.00    +0.000 N 
ATOM      8  N   UNL     1       1.108   8.145  20.625  0.00  0.00    +0.000 NA
ATOM      9  C   UNL     1       1.361   6.927  21.148  0.00  0.00    +0.000 A 
ATOM     10  C   UNL     1       2.116   6.026  20.420  0.00  0.00    +0.000 A 
ATOM     11  H   UNL     1       1.641   9.747  17.924  0.00  0.00    +0.000 HD
ENDROOT
BRANCH   3  12
ATOM     12  C   UNL     1       4.137   5.325  17.499  0.00  0.00    +0.000 A 
ATOM     13  C   UNL     1       4.572   6.516  16.893  0.00  0.00    +0.000 A 
ATOM     14  C   UNL     1       5.318   6.481  15.714  0.00  0.00    +0.000 A 
ATOM     15  C   UNL     1       5.635   5.259  15.129  0.00  0.00    +0.000 A 
ATOM     16  C   UNL     1       5.210   4.073  15.723  0.00  0.00    +0.000 A 
ATOM     17  C   UNL     1       4.466   4.101  16.905  0.00  0.00    +0.000 A 
ENDBRANCH   3  12
BRANCH   7  18
ATOM     18  C   UNL     1       0.068  10.401  19.029  0.00  0.00    +0.000 A 
ATOM     19  C   UNL     1      -0.082  11.326  20.068  0.00  0.00    +0.000 A 
ATOM     20  C   UNL     1      -1.286  12.019  20.237  0.00  0.00    +0.000 A 
ATOM     21  C   UNL     1      -2.351  11.815  19.350  0.00  0.00    +0.000 A 
ATOM     22  C   UNL     1      -2.192  10.933  18.277  0.00  0.00    +0.000 A 
ATOM     23  C   UNL     1      -0.991  10.235  18.125  0.00  0.00    +0.000 A 
BRANCH  21  24
ATOM     24  C   UNL     1      -3.596  12.600  19.551  0.00  0.00    +0.000 C 
ATOM     25  O   UNL     1      -3.778  13.305  20.528  0.00  0.00    +0.000 OA
BRANCH  24  26
ATOM     26  O   UNL     1      -4.515  12.447  18.574  0.00  0.00    +0.000 OA
ATOM     27  H   UNL     1      -4.375  12.992  17.780  0.00  0.00    +0.000 HD
ENDBRANCH  24  26
ENDBRANCH  21  24
ENDBRANCH   7  18
BRANCH   1  29
ATOM     28  C   UNL     1       1.394   2.839  21.279  0.00  0.00    +0.000 C 
ATOM     29  O   UNL     1       2.327   3.876  21.580  0.00  0.00    +0.000 OA
ENDBRANCH   1  29
TORSDOF 5
ENDMDL
MODEL 8
REMARK VINA RESULT:      -7.8      1.240      1.801
REMARK  Name = 
REMARK  6 active torsions:
REMARK  status: ('A' for Active; 'I' for Inactive)
REMARK    1  A    between atoms: C_1  and  O_2
REMARK    2  A    between atoms: O_2  and  C_3
REMARK    3  A    between atoms: N_5  and  C_6
REMARK    4  A    between atoms: N_15  and  C_16
REMARK    5  A    between atoms: C_19  and  C_20
REMARK    6  A    between atoms: C_20  and  O_22
REMARK                            x       y       z     vdW  Elec       q    Type
REMARK                         _______ _______ _______ _____ _____    ______ ____
ROOT
ATOM      1  C   UNL     1       2.463   4.902  20.500  0.00  0.00    +0.000 A 
ATOM      2  N   UNL     1       3.180   4.492  19.461  0.00  0.00    +0.000 NA
ATOM      3  N   UNL     1       3.259   5.586  18.647  0.00  0.00    +0.000 N 
ATOM      4  C   UNL     1       2.519   6.653  19.160  0.00  0.00    +0.000 A 
ATOM      5  N   UNL     1       2.307   7.875  18.621  0.00  0.00    +0.000 NA
ATOM      6  C   UNL     1       1.534   8.674  19.372  0.00  0.00    +0.000 A 
ATOM      7  N   UNL     1       1.233   9.932  18.835  0.00  0.00    +0.000 N 
ATOM      8  N   UNL     1       1.026   8.348  20.581  0.00  0.00    +0.000 NA
ATOM      9  C   UNL     1       1.267   7.126  21.102  0.00  0.00    +0.000 A 
ATOM     10  C   UNL     1       2.019   6.221  20.376  0.00  0.00    +0.000 A 
ATOM     11  H   UNL     1       1.581   9.950  17.884  0.00  0.00    +0.000 HD
ENDROOT
BRANCH   3  12
ATOM     12  C   UNL     1       4.047   5.510  17.463  0.00  0.00    +0.000 A 
ATOM     13  C   UNL     1       4.330   4.249  16.909  0.00  0.00    +0.000 A 
ATOM     14  C   UNL     1       5.122   4.138  15.764  0.00  0.00    +0.000 A 
ATOM     15  C   UNL     1       5.640   5.282  15.166  0.00  0.00    +0.000 A 
ATOM     16  C   UNL     1       5.366   6.536  15.707  0.00  0.00    +0.000 A 
ATOM     17  C   UNL     1       4.571   6.654  16.850  0.00  0.00    +0.000 A 
ENDBRANCH   3  12
BRANCH   7  18
ATOM     18  C   UNL     1       0.009  10.613  18.984  0.00  0.00    +0.000 A 
ATOM     19  C   UNL     1      -1.066  10.281  18.152  0.00  0.00    +0.000 A 
ATOM     20  C   UNL     1      -2.298  10.932  18.285  0.00  0.00    +0.000 A 
ATOM     21  C   UNL     1      -2.480  11.908  19.274  0.00  0.00    +0.000 A 
ATOM     22  C   UNL     1      -1.430  12.208  20.145  0.00  0.00    +0.000 A 
ATOM     23  C   UNL     1      -0.198  11.563  19.995  0.00  0.00    +0.000 A 
BRANCH  21  24
ATOM     24  C   UNL     1      -3.817  12.544  19.398  0.00  0.00    +0.000 C 
ATOM     25  O   UNL     1      -4.173  13.135  20.401  0.00  0.00    +0.000 OA
BRANCH  24  26
ATOM     26  O   UNL     1      -4.610  12.389  18.316  0.00  0.00    +0.000 OA
ATOM     27  H   UNL     1      -4.504  11.548  17.838  0.00  0.00    +0.000 HD
ENDBRANCH  24  26
ENDBRANCH  21  24
ENDBRANCH   7  18
BRANCH   1  29
ATOM     28  C   UNL     1       2.730   2.752  21.353  0.00  0.00    +0.000 C 
ATOM     29  O   UNL     1       2.210   4.068  21.533  0.00  0.00    +0.000 OA
ENDBRANCH   1  29
TORSDOF 5
ENDMDL
MODEL 9
REMARK VINA RESULT:      -7.5      0.994      1.479
REMARK  Name = 
REMARK  6 active torsions:
REMARK  status: ('A' for Active; 'I' for Inactive)
REMARK    1  A    between atoms: C_1  and  O_2
REMARK    2  A    between atoms: O_2  and  C_3
REMARK    3  A    between atoms: N_5  and  C_6
REMARK    4  A    between atoms: N_15  and  C_16
REMARK    5  A    between atoms: C_19  and  C_20
REMARK    6  A    between atoms: C_20  and  O_22
REMARK                            x       y       z     vdW  Elec       q    Type
REMARK                         _______ _______ _______ _____ _____    ______ ____
ROOT
ATOM      1  C   UNL     1       3.397   3.825  19.234  0.00  0.00    +0.000 A 
ATOM      2  N   UNL     1       4.191   3.502  18.220  0.00  0.00    +0.000 NA
ATOM      3  N   UNL     1       4.384   4.676  17.550  0.00  0.00    +0.000 N 
ATOM      4  C   UNL     1       3.641   5.712  18.118  0.00  0.00    +0.000 A 
ATOM      5  N   UNL     1       3.524   6.995  17.709  0.00  0.00    +0.000 NA
ATOM      6  C   UNL     1       2.716   7.740  18.478  0.00  0.00    +0.000 A 
ATOM      7  N   UNL     1       2.512   9.063  18.068  0.00  0.00    +0.000 N 
ATOM      8  N   UNL     1       2.087   7.303  19.591  0.00  0.00    +0.000 NA
ATOM      9  C   UNL     1       2.234   6.021  19.986  0.00  0.00    +0.000 A 
ATOM     10  C   UNL     1       3.015   5.169  19.227  0.00  0.00    +0.000 A 
ATOM     11  H   UNL     1       2.947   9.172  17.159  0.00  0.00    +0.000 HD
ENDROOT
BRANCH   3  12
ATOM     12  C   UNL     1       5.275   4.697  16.438  0.00  0.00    +0.000 A 
ATOM     13  C   UNL     1       6.577   5.199  16.613  0.00  0.00    +0.000 A 
ATOM     14  C   UNL     1       7.465   5.259  15.538  0.00  0.00    +0.000 A 
ATOM     15  C   UNL     1       7.063   4.822  14.280  0.00  0.00    +0.000 A 
ATOM     16  C   UNL     1       5.776   4.322  14.097  0.00  0.00    +0.000 A 
ATOM     17  C   UNL     1       4.883   4.256  15.169  0.00  0.00    +0.000 A 
ENDBRANCH   3  12
BRANCH   7  18
ATOM     18  C   UNL     1       1.305   9.780  18.188  0.00  0.00    +0.000 A 
ATOM     19  C   UNL     1       0.149   9.285  17.576  0.00  0.00    +0.000 A 
ATOM     20  C   UNL     1      -1.067   9.969  17.689  0.00  0.00    +0.000 A 
ATOM     21  C   UNL     1      -1.149  11.147  18.441  0.00  0.00    +0.000 A 
ATOM     22  C   UNL     1      -0.012  11.621  19.102  0.00  0.00    +0.000 A 
ATOM     23  C   UNL     1       1.201  10.940  18.971  0.00  0.00    +0.000 A 
BRANCH  21  24
ATOM     24  C   UNL     1      -2.470  11.817  18.560  0.00  0.00    +0.000 C 
ATOM     25  O   UNL     1      -3.459  11.430  17.964  0.00  0.00    +0.000 OA
BRANCH  24  26
ATOM     26  O   UNL     1      -2.474  12.903  19.362  0.00  0.00    +0.000 OA
ATOM     27  H   UNL     1      -3.339  13.334  19.476  0.00  0.00    +0.000 HD
ENDBRANCH  24  26
ENDBRANCH  21  24
ENDBRANCH   7  18
BRANCH   1  29
ATOM     28  C   UNL     1       4.111   2.244  20.787  0.00  0.00    +0.000 C 
ATOM     29  O   UNL     1       3.019   2.892  20.137  0.00  0.00    +0.000 OA
ENDBRANCH   1  29
TORSDOF 5
ENDMDL
