MODEL 1
REMARK VINA RESULT:      -8.1      0.000      0.000
REMARK  Name = 
REMARK  11 active torsions:
REMARK  status: ('A' for Active; 'I' for Inactive)
REMARK    1  A    between atoms: C_1  and  C_2
REMARK    2  A    between atoms: C_2  and  O_3
REMARK    3  A    between atoms: O_3  and  C_4
REMARK    4  A    between atoms: C_9  and  N_10
REMARK    5  A    between atoms: C_11  and  C_13
REMARK    6  A    between atoms: C_13  and  O_14
REMARK    7  A    between atoms: O_14  and  C_15
REMARK    8  A    between atoms: C_15  and  C_17
REMARK    9  A    between atoms: N_19  and  C_20
REMARK   10  A    between atoms: C_20  and  C_21
REMARK   11  A    between atoms: C_24  and  C_25
REMARK                            x       y       z     vdW  Elec       q    Type
REMARK                         _______ _______ _______ _____ _____    ______ ____
ROOT
ATOM      1  C   UNL     1       7.058   6.926  17.017  0.00  0.00    +0.000 C 
ATOM      2  O   UNL     1       7.737   6.456  16.117  0.00  0.00    +0.000 OA
ENDROOT
BRANCH   1   3
ATOM      3  C   UNL     1       5.849   6.288  17.578  0.00  0.00    +0.000 A 
ATOM      4  C   UNL     1       4.666   6.915  17.480  0.00  0.00    +0.000 A 
ATOM      5  N   UNL     1       3.469   6.470  18.015  0.00  0.00    +0.000 N 
ATOM      6  C   UNL     1       3.421   5.242  18.717  0.00  0.00    +0.000 A 
ATOM      7  N   UNL     1       2.252   4.780  19.227  0.00  0.00    +0.000 NA
ATOM      8  C   UNL     1       2.251   3.608  19.916  0.00  0.00    +0.000 A 
ATOM      9  C   UNL     1       0.943   3.129  20.467  0.00  0.00    +0.000 C 
ATOM     10  C   UNL     1       3.398   2.856  20.132  0.00  0.00    +0.000 A 
ATOM     11  C   UNL     1       4.588   3.309  19.592  0.00  0.00    +0.000 A 
ATOM     12  C   UNL     1       4.599   4.511  18.884  0.00  0.00    +0.000 A 
ATOM     13  C   UNL     1       5.870   5.012  18.333  0.00  0.00    +0.000 A 
ATOM     14  O   UNL     1       6.897   4.369  18.535  0.00  0.00    +0.000 OA
BRANCH   5  15
ATOM     15  C   UNL     1       2.206   7.208  17.899  0.00  0.00    +0.000 C 
ATOM     16  C   UNL     1       2.447   8.710  17.921  0.00  0.00    +0.000 C 
ENDBRANCH   5  15
ENDBRANCH   1   3
BRANCH   1  17
ATOM     17  O   UNL     1       7.240   8.123  17.609  0.00  0.00    +0.000 OA
BRANCH  17  18
ATOM     18  C   UNL     1       8.368   8.283  18.450  0.00  0.00    +0.000 C 
BRANCH  18  20
ATOM     19  N   UNL     1       9.537  10.091  19.697  0.00  0.00    +0.000 N 
ATOM     20  C   UNL     1       8.757   9.758  18.588  0.00  0.00    +0.000 C 
ATOM     21  O   UNL     1       8.369  10.546  17.722  0.00  0.00    +0.000 OA
ATOM     22  H   UNL     1      10.011   9.332  20.194  0.00  0.00    +0.000 HD
BRANCH  19  28
ATOM     23  C   UNL     1       9.248  12.014  21.223  0.00  0.00    +0.000 A 
ATOM     24  C   UNL     1       9.668  13.288  21.649  0.00  0.00    +0.000 A 
ATOM     25  C   UNL     1      10.607  14.017  20.916  0.00  0.00    +0.000 A 
ATOM     26  C   UNL     1      11.156  13.468  19.774  0.00  0.00    +0.000 A 
ATOM     27  C   UNL     1      10.801  12.179  19.380  0.00  0.00    +0.000 A 
ATOM     28  C   UNL     1       9.869  11.416  20.106  0.00  0.00    +0.000 A 
BRANCH  23  29
ATOM     29  O   UNL     1       8.271  11.308  21.897  0.00  0.00    +0.000 OA
BRANCH  29  31
ATOM     30  C   UNL     1       6.638  11.849  23.626  0.00  0.00    +0.000 C 
ATOM     31  C   UNL     1       8.103  11.621  23.289  0.00  0.00    +0.000 C 
ENDBRANCH  29  31
ENDBRANCH  23  29
ENDBRANCH  19  28
ENDBRANCH  18  20
ENDBRANCH  17  18
ENDBRANCH   1  17
TORSDOF 8
ENDMDL
MODEL 2
REMARK VINA RESULT:      -7.7      5.571      9.682
REMARK  Name = 
REMARK  11 active torsions:
REMARK  status: ('A' for Active; 'I' for Inactive)
REMARK    1  A    between atoms: C_1  and  C_2
REMARK    2  A    between atoms: C_2  and  O_3
REMARK    3  A    between atoms: O_3  and  C_4
REMARK    4  A    between atoms: C_9  and  N_10
REMARK    5  A    between atoms: C_11  and  C_13
REMARK    6  A    between atoms: C_13  and  O_14
REMARK    7  A    between atoms: O_14  and  C_15
REMARK    8  A    between atoms: C_15  and  C_17
REMARK    9  A    between atoms: N_19  and  C_20
REMARK   10  A    between atoms: C_20  and  C_21
REMARK   11  A    between atoms: C_24  and  C_25
REMARK                            x       y       z     vdW  Elec       q    Type
REMARK                         _______ _______ _______ _____ _____    ______ ____
ROOT
ATOM      1  C   UNL     1       0.547  10.275  18.757  0.00  0.00    +0.000 C 
ATOM      2  O   UNL     1       1.205  10.772  19.658  0.00  0.00    +0.000 OA
ENDROOT
BRANCH   1   3
ATOM      3  C   UNL     1      -0.887  10.541  18.519  0.00  0.00    +0.000 A 
ATOM      4  C   UNL     1      -1.492   9.992  17.454  0.00  0.00    +0.000 A 
ATOM      5  N   UNL     1      -2.806  10.205  17.072  0.00  0.00    +0.000 N 
ATOM      6  C   UNL     1      -3.640  11.049  17.845  0.00  0.00    +0.000 A 
ATOM      7  N   UNL     1      -4.935  11.251  17.497  0.00  0.00    +0.000 NA
ATOM      8  C   UNL     1      -5.697  12.087  18.252  0.00  0.00    +0.000 A 
ATOM      9  C   UNL     1      -7.122  12.289  17.838  0.00  0.00    +0.000 C 
ATOM     10  C   UNL     1      -5.209  12.757  19.366  0.00  0.00    +0.000 A 
ATOM     11  C   UNL     1      -3.896  12.534  19.739  0.00  0.00    +0.000 A 
ATOM     12  C   UNL     1      -3.106  11.679  18.972  0.00  0.00    +0.000 A 
ATOM     13  C   UNL     1      -1.699  11.463  19.349  0.00  0.00    +0.000 A 
ATOM     14  O   UNL     1      -1.248  12.065  20.320  0.00  0.00    +0.000 OA
BRANCH   5  15
ATOM     15  C   UNL     1      -3.413   9.598  15.882  0.00  0.00    +0.000 C 
ATOM     16  C   UNL     1      -2.937  10.289  14.613  0.00  0.00    +0.000 C 
ENDBRANCH   5  15
ENDBRANCH   1   3
BRANCH   1  17
ATOM     17  O   UNL     1       0.978   9.355  17.871  0.00  0.00    +0.000 OA
BRANCH  17  18
ATOM     18  C   UNL     1       2.318   8.909  17.975  0.00  0.00    +0.000 C 
BRANCH  18  20
ATOM     19  N   UNL     1       2.875   6.487  17.874  0.00  0.00    +0.000 N 
ATOM     20  C   UNL     1       2.400   7.540  18.656  0.00  0.00    +0.000 C 
ATOM     21  O   UNL     1       2.054   7.457  19.838  0.00  0.00    +0.000 OA
ATOM     22  H   UNL     1       3.371   6.718  17.009  0.00  0.00    +0.000 HD
BRANCH  19  28
ATOM     23  C   UNL     1       3.973   4.540  18.929  0.00  0.00    +0.000 A 
ATOM     24  C   UNL     1       3.899   3.203  19.365  0.00  0.00    +0.000 A 
ATOM     25  C   UNL     1       2.802   2.402  19.038  0.00  0.00    +0.000 A 
ATOM     26  C   UNL     1       1.762   2.935  18.303  0.00  0.00    +0.000 A 
ATOM     27  C   UNL     1       1.792   4.277  17.926  0.00  0.00    +0.000 A 
ATOM     28  C   UNL     1       2.876   5.111  18.252  0.00  0.00    +0.000 A 
BRANCH  23  29
ATOM     29  O   UNL     1       5.080   5.326  19.183  0.00  0.00    +0.000 OA
BRANCH  29  31
ATOM     30  C   UNL     1       7.441   5.870  18.905  0.00  0.00    +0.000 C 
ATOM     31  C   UNL     1       6.322   4.883  18.613  0.00  0.00    +0.000 C 
ENDBRANCH  29  31
ENDBRANCH  23  29
ENDBRANCH  19  28
ENDBRANCH  18  20
ENDBRANCH  17  18
ENDBRANCH   1  17
TORSDOF 8
ENDMDL
MODEL 3
REMARK VINA RESULT:      -7.6      4.492      7.366
REMARK  Name = 
REMARK  11 active torsions:
REMARK  status: ('A' for Active; 'I' for Inactive)
REMARK    1  A    between atoms: C_1  and  C_2
REMARK    2  A    between atoms: C_2  and  O_3
REMARK    3  A    between atoms: O_3  and  C_4
REMARK    4  A    between atoms: C_9  and  N_10
REMARK    5  A    between atoms: C_11  and  C_13
REMARK    6  A    between atoms: C_13  and  O_14
REMARK    7  A    between atoms: O_14  and  C_15
REMARK    8  A    between atoms: C_15  and  C_17
REMARK    9  A    between atoms: N_19  and  C_20
REMARK   10  A    between atoms: C_20  and  C_21
REMARK   11  A    between atoms: C_24  and  C_25
REMARK                            x       y       z     vdW  Elec       q    Type
REMARK                         _______ _______ _______ _____ _____    ______ ____
ROOT
ATOM      1  C   UNL     1       3.554   5.112  19.452  0.00  0.00    +0.000 C 
ATOM      2  O   UNL     1       3.324   4.109  20.108  0.00  0.00    +0.000 OA
ENDROOT
BRANCH   1   3
ATOM      3  C   UNL     1       4.490   5.172  18.309  0.00  0.00    +0.000 A 
ATOM      4  C   UNL     1       5.506   6.048  18.333  0.00  0.00    +0.000 A 
ATOM      5  N   UNL     1       6.415   6.259  17.310  0.00  0.00    +0.000 N 
ATOM      6  C   UNL     1       6.330   5.498  16.119  0.00  0.00    +0.000 A 
ATOM      7  N   UNL     1       7.227   5.676  15.117  0.00  0.00    +0.000 NA
ATOM      8  C   UNL     1       7.098   4.942  13.979  0.00  0.00    +0.000 A 
ATOM      9  C   UNL     1       8.104   5.167  12.892  0.00  0.00    +0.000 C 
ATOM     10  C   UNL     1       6.081   4.017  13.787  0.00  0.00    +0.000 A 
ATOM     11  C   UNL     1       5.179   3.813  14.816  0.00  0.00    +0.000 A 
ATOM     12  C   UNL     1       5.303   4.561  15.987  0.00  0.00    +0.000 A 
ATOM     13  C   UNL     1       4.327   4.368  17.073  0.00  0.00    +0.000 A 
ATOM     14  O   UNL     1       3.409   3.569  16.909  0.00  0.00    +0.000 OA
BRANCH   5  15
ATOM     15  C   UNL     1       7.496   7.250  17.378  0.00  0.00    +0.000 C 
ATOM     16  C   UNL     1       8.215   7.182  18.717  0.00  0.00    +0.000 C 
ENDBRANCH   5  15
ENDBRANCH   1   3
BRANCH   1  17
ATOM     17  O   UNL     1       3.062   6.345  19.683  0.00  0.00    +0.000 OA
BRANCH  17  18
ATOM     18  C   UNL     1       2.365   6.990  18.632  0.00  0.00    +0.000 C 
BRANCH  18  20
ATOM     19  N   UNL     1       1.639   9.301  18.069  0.00  0.00    +0.000 N 
ATOM     20  C   UNL     1       1.822   8.352  19.075  0.00  0.00    +0.000 C 
ATOM     21  O   UNL     1       1.577   8.518  20.273  0.00  0.00    +0.000 OA
ATOM     22  H   UNL     1       1.624   8.975  17.099  0.00  0.00    +0.000 HD
BRANCH  19  28
ATOM     23  C   UNL     1      -0.028  11.074  18.502  0.00  0.00    +0.000 A 
ATOM     24  C   UNL     1      -0.305  12.423  18.795  0.00  0.00    +0.000 A 
ATOM     25  C   UNL     1       0.704  13.389  18.753  0.00  0.00    +0.000 A 
ATOM     26  C   UNL     1       1.997  13.011  18.451  0.00  0.00    +0.000 A 
ATOM     27  C   UNL     1       2.298  11.667  18.229  0.00  0.00    +0.000 A 
ATOM     28  C   UNL     1       1.305  10.672  18.278  0.00  0.00    +0.000 A 
BRANCH  23  29
ATOM     29  O   UNL     1      -1.025  10.119  18.471  0.00  0.00    +0.000 OA
BRANCH  29  31
ATOM     30  C   UNL     1      -3.258   9.660  17.605  0.00  0.00    +0.000 C 
ATOM     31  C   UNL     1      -1.832  10.078  17.283  0.00  0.00    +0.000 C 
ENDBRANCH  29  31
ENDBRANCH  23  29
ENDBRANCH  19  28
ENDBRANCH  18  20
ENDBRANCH  17  18
ENDBRANCH   1  17
TORSDOF 8
ENDMDL
MODEL 4
REMARK VINA RESULT:      -7.5      5.433      9.695
REMARK  Name = 
REMARK  11 active torsions:
REMARK  status: ('A' for Active; 'I' for Inactive)
REMARK    1  A    between atoms: C_1  and  C_2
REMARK    2  A    between atoms: C_2  and  O_3
REMARK    3  A    between atoms: O_3  and  C_4
REMARK    4  A    between atoms: C_9  and  N_10
REMARK    5  A    between atoms: C_11  and  C_13
REMARK    6  A    between atoms: C_13  and  O_14
REMARK    7  A    between atoms: O_14  and  C_15
REMARK    8  A    between atoms: C_15  and  C_17
REMARK    9  A    between atoms: N_19  and  C_20
REMARK   10  A    between atoms: C_20  and  C_21
REMARK   11  A    between atoms: C_24  and  C_25
REMARK                            x       y       z     vdW  Elec       q    Type
REMARK                         _______ _______ _______ _____ _____    ______ ____
ROOT
ATOM      1  C   UNL     1       1.228  10.439  18.519  0.00  0.00    +0.000 C 
ATOM      2  O   UNL     1       2.127  11.195  18.184  0.00  0.00    +0.000 OA
ENDROOT
BRANCH   1   3
ATOM      3  C   UNL     1      -0.171  10.852  18.757  0.00  0.00    +0.000 A 
ATOM      4  C   UNL     1      -1.110  10.561  17.842  0.00  0.00    +0.000 A 
ATOM      5  N   UNL     1      -2.440  10.941  17.901  0.00  0.00    +0.000 N 
ATOM      6  C   UNL     1      -2.916  11.682  19.008  0.00  0.00    +0.000 A 
ATOM      7  N   UNL     1      -4.221  12.043  19.092  0.00  0.00    +0.000 NA
ATOM      8  C   UNL     1      -4.636  12.775  20.160  0.00  0.00    +0.000 A 
ATOM      9  C   UNL     1      -6.083  13.157  20.219  0.00  0.00    +0.000 C 
ATOM     10  C   UNL     1      -3.780  13.183  21.175  0.00  0.00    +0.000 A 
ATOM     11  C   UNL     1      -2.454  12.797  21.107  0.00  0.00    +0.000 A 
ATOM     12  C   UNL     1      -2.020  12.046  20.015  0.00  0.00    +0.000 A 
ATOM     13  C   UNL     1      -0.602  11.658  19.925  0.00  0.00    +0.000 A 
ATOM     14  O   UNL     1       0.171  12.030  20.804  0.00  0.00    +0.000 OA
BRANCH   5  15
ATOM     15  C   UNL     1      -3.421  10.616  16.859  0.00  0.00    +0.000 C 
ATOM     16  C   UNL     1      -2.776  10.617  15.482  0.00  0.00    +0.000 C 
ENDBRANCH   5  15
ENDBRANCH   1   3
BRANCH   1  17
ATOM     17  O   UNL     1       1.354   9.127  18.798  0.00  0.00    +0.000 OA
BRANCH  17  18
ATOM     18  C   UNL     1       2.388   8.406  18.153  0.00  0.00    +0.000 C 
BRANCH  18  20
ATOM     19  N   UNL     1       2.880   5.991  17.825  0.00  0.00    +0.000 N 
ATOM     20  C   UNL     1       2.529   6.994  18.729  0.00  0.00    +0.000 C 
ATOM     21  O   UNL     1       2.335   6.837  19.937  0.00  0.00    +0.000 OA
ATOM     22  H   UNL     1       3.267   6.273  16.921  0.00  0.00    +0.000 HD
BRANCH  19  28
ATOM     23  C   UNL     1       4.099   3.938  18.467  0.00  0.00    +0.000 A 
ATOM     24  C   UNL     1       4.064   2.578  18.829  0.00  0.00    +0.000 A 
ATOM     25  C   UNL     1       2.882   1.840  18.731  0.00  0.00    +0.000 A 
ATOM     26  C   UNL     1       1.724   2.459  18.302  0.00  0.00    +0.000 A 
ATOM     27  C   UNL     1       1.731   3.822  18.008  0.00  0.00    +0.000 A 
ATOM     28  C   UNL     1       2.902   4.593  18.110  0.00  0.00    +0.000 A 
BRANCH  23  29
ATOM     29  O   UNL     1       5.273   4.665  18.492  0.00  0.00    +0.000 OA
BRANCH  29  31
ATOM     30  C   UNL     1       7.586   4.609  17.719  0.00  0.00    +0.000 C 
ATOM     31  C   UNL     1       6.115   4.557  17.333  0.00  0.00    +0.000 C 
ENDBRANCH  29  31
ENDBRANCH  23  29
ENDBRANCH  19  28
ENDBRANCH  18  20
ENDBRANCH  17  18
ENDBRANCH   1  17
TORSDOF 8
ENDMDL
MODEL 5
REMARK VINA RESULT:      -7.4      3.998      7.585
REMARK  Name = 
REMARK  11 active torsions:
REMARK  status: ('A' for Active; 'I' for Inactive)
REMARK    1  A    between atoms: C_1  and  C_2
REMARK    2  A    between atoms: C_2  and  O_3
REMARK    3  A    between atoms: O_3  and  C_4
REMARK    4  A    between atoms: C_9  and  N_10
REMARK    5  A    between atoms: C_11  and  C_13
REMARK    6  A    between atoms: C_13  and  O_14
REMARK    7  A    between atoms: O_14  and  C_15
REMARK    8  A    between atoms: C_15  and  C_17
REMARK    9  A    between atoms: N_19  and  C_20
REMARK   10  A    between atoms: C_20  and  C_21
REMARK   11  A    between atoms: C_24  and  C_25
REMARK                            x       y       z     vdW  Elec       q    Type
REMARK                         _______ _______ _______ _____ _____    ______ ____
ROOT
ATOM      1  C   UNL     1       2.013   5.159  20.538  0.00  0.00    +0.000 C 
ATOM      2  O   UNL     1       1.090   4.376  20.698  0.00  0.00    +0.000 OA
ENDROOT
BRANCH   1   3
ATOM      3  C   UNL     1       1.856   6.618  20.360  0.00  0.00    +0.000 A 
ATOM      4  C   UNL     1       1.425   7.366  21.388  0.00  0.00    +0.000 A 
ATOM      5  N   UNL     1       1.170   8.726  21.347  0.00  0.00    +0.000 N 
ATOM      6  C   UNL     1       1.385   9.450  20.150  0.00  0.00    +0.000 A 
ATOM      7  N   UNL     1       1.162  10.787  20.099  0.00  0.00    +0.000 NA
ATOM      8  C   UNL     1       1.358  11.444  18.924  0.00  0.00    +0.000 A 
ATOM      9  C   UNL     1       1.099  12.919  18.904  0.00  0.00    +0.000 C 
ATOM     10  C   UNL     1       1.770  10.807  17.762  0.00  0.00    +0.000 A 
ATOM     11  C   UNL     1       2.024   9.449  17.815  0.00  0.00    +0.000 A 
ATOM     12  C   UNL     1       1.826   8.766  19.015  0.00  0.00    +0.000 A 
ATOM     13  C   UNL     1       2.066   7.314  19.067  0.00  0.00    +0.000 A 
ATOM     14  O   UNL     1       2.411   6.734  18.042  0.00  0.00    +0.000 OA
BRANCH   5  15
ATOM     15  C   UNL     1       0.676   9.492  22.497  0.00  0.00    +0.000 C 
ATOM     16  C   UNL     1      -0.796   9.207  22.751  0.00  0.00    +0.000 C 
ENDBRANCH   5  15
ENDBRANCH   1   3
BRANCH   1  17
ATOM     17  O   UNL     1       3.317   4.840  20.424  0.00  0.00    +0.000 OA
BRANCH  17  18
ATOM     18  C   UNL     1       3.657   3.694  19.663  0.00  0.00    +0.000 C 
BRANCH  18  20
ATOM     19  N   UNL     1       4.403   4.438  17.411  0.00  0.00    +0.000 N 
ATOM     20  C   UNL     1       4.789   3.994  18.676  0.00  0.00    +0.000 C 
ATOM     21  O   UNL     1       5.951   3.835  19.058  0.00  0.00    +0.000 OA
ATOM     22  H   UNL     1       3.446   4.779  17.293  0.00  0.00    +0.000 HD
BRANCH  19  28
ATOM     23  C   UNL     1       6.189   5.688  16.245  0.00  0.00    +0.000 A 
ATOM     24  C   UNL     1       7.096   5.776  15.171  0.00  0.00    +0.000 A 
ATOM     25  C   UNL     1       7.028   4.882  14.099  0.00  0.00    +0.000 A 
ATOM     26  C   UNL     1       6.080   3.878  14.107  0.00  0.00    +0.000 A 
ATOM     27  C   UNL     1       5.222   3.738  15.198  0.00  0.00    +0.000 A 
ATOM     28  C   UNL     1       5.276   4.614  16.296  0.00  0.00    +0.000 A 
BRANCH  23  29
ATOM     29  O   UNL     1       6.197   6.604  17.278  0.00  0.00    +0.000 OA
BRANCH  29  31
ATOM     30  C   UNL     1       7.931   8.267  17.697  0.00  0.00    +0.000 C 
ATOM     31  C   UNL     1       7.463   6.836  17.915  0.00  0.00    +0.000 C 
ENDBRANCH  29  31
ENDBRANCH  23  29
ENDBRANCH  19  28
ENDBRANCH  18  20
ENDBRANCH  17  18
ENDBRANCH   1  17
TORSDOF 8
ENDMDL
MODEL 6
REMARK VINA RESULT:      -7.4      4.841      7.130
REMARK  Name = 
REMARK  11 active torsions:
REMARK  status: ('A' for Active; 'I' for Inactive)
REMARK    1  A    between atoms: C_1  and  C_2
REMARK    2  A    between atoms: C_2  and  O_3
REMARK    3  A    between atoms: O_3  and  C_4
REMARK    4  A    between atoms: C_9  and  N_10
REMARK    5  A    between atoms: C_11  and  C_13
REMARK    6  A    between atoms: C_13  and  O_14
REMARK    7  A    between atoms: O_14  and  C_15
REMARK    8  A    between atoms: C_15  and  C_17
REMARK    9  A    between atoms: N_19  and  C_20
REMARK   10  A    between atoms: C_20  and  C_21
REMARK   11  A    between atoms: C_24  and  C_25
REMARK                            x       y       z     vdW  Elec       q    Type
REMARK                         _______ _______ _______ _____ _____    ______ ____
ROOT
ATOM      1  C   UNL     1       3.351   3.897  19.518  0.00  0.00    +0.000 C 
ATOM      2  O   UNL     1       3.532   3.086  20.413  0.00  0.00    +0.000 OA
ENDROOT
BRANCH   1   3
ATOM      3  C   UNL     1       4.324   4.198  18.447  0.00  0.00    +0.000 A 
ATOM      4  C   UNL     1       5.400   4.951  18.725  0.00  0.00    +0.000 A 
ATOM      5  N   UNL     1       6.354   5.365  17.812  0.00  0.00    +0.000 N 
ATOM      6  C   UNL     1       6.253   4.973  16.455  0.00  0.00    +0.000 A 
ATOM      7  N   UNL     1       7.191   5.351  15.552  0.00  0.00    +0.000 NA
ATOM      8  C   UNL     1       7.046   4.974  14.253  0.00  0.00    +0.000 A 
ATOM      9  C   UNL     1       8.100   5.411  13.283  0.00  0.00    +0.000 C 
ATOM     10  C   UNL     1       5.971   4.221  13.800  0.00  0.00    +0.000 A 
ATOM     11  C   UNL     1       5.025   3.811  14.722  0.00  0.00    +0.000 A 
ATOM     12  C   UNL     1       5.165   4.193  16.056  0.00  0.00    +0.000 A 
ATOM     13  C   UNL     1       4.143   3.784  17.034  0.00  0.00    +0.000 A 
ATOM     14  O   UNL     1       3.176   3.136  16.644  0.00  0.00    +0.000 OA
BRANCH   5  15
ATOM     15  C   UNL     1       7.501   6.210  18.165  0.00  0.00    +0.000 C 
ATOM     16  C   UNL     1       8.110   5.778  19.490  0.00  0.00    +0.000 C 
ENDBRANCH   5  15
ENDBRANCH   1   3
BRANCH   1  17
ATOM     17  O   UNL     1       2.281   4.704  19.380  0.00  0.00    +0.000 OA
BRANCH  17  18
ATOM     18  C   UNL     1       1.948   5.558  20.460  0.00  0.00    +0.000 C 
BRANCH  18  20
ATOM     19  N   UNL     1       1.125   7.894  20.688  0.00  0.00    +0.000 N 
ATOM     20  C   UNL     1       2.017   7.032  20.049  0.00  0.00    +0.000 C 
ATOM     21  O   UNL     1       2.848   7.360  19.199  0.00  0.00    +0.000 OA
ATOM     22  H   UNL     1       0.674   7.567  21.546  0.00  0.00    +0.000 HD
BRANCH  19  28
ATOM     23  C   UNL     1       0.959  10.279  21.316  0.00  0.00    +0.000 A 
ATOM     24  C   UNL     1       0.828  11.624  20.920  0.00  0.00    +0.000 A 
ATOM     25  C   UNL     1       0.530  11.957  19.596  0.00  0.00    +0.000 A 
ATOM     26  C   UNL     1       0.395  10.955  18.655  0.00  0.00    +0.000 A 
ATOM     27  C   UNL     1       0.592   9.624  19.020  0.00  0.00    +0.000 A 
ATOM     28  C   UNL     1       0.905   9.260  20.342  0.00  0.00    +0.000 A 
BRANCH  23  29
ATOM     29  O   UNL     1       1.184   9.928  22.633  0.00  0.00    +0.000 OA
BRANCH  29  31
ATOM     30  C   UNL     1      -1.119  10.589  23.090  0.00  0.00    +0.000 C 
ATOM     31  C   UNL     1       0.020   9.638  23.423  0.00  0.00    +0.000 C 
ENDBRANCH  29  31
ENDBRANCH  23  29
ENDBRANCH  19  28
ENDBRANCH  18  20
ENDBRANCH  17  18
ENDBRANCH   1  17
TORSDOF 8
ENDMDL
MODEL 7
REMARK VINA RESULT:      -7.4      5.618      9.488
REMARK  Name = 
REMARK  11 active torsions:
REMARK  status: ('A' for Active; 'I' for Inactive)
REMARK    1  A    between atoms: C_1  and  C_2
REMARK    2  A    between atoms: C_2  and  O_3
REMARK    3  A    between atoms: O_3  and  C_4
REMARK    4  A    between atoms: C_9  and  N_10
REMARK    5  A    between atoms: C_11  and  C_13
REMARK    6  A    between atoms: C_13  and  O_14
REMARK    7  A    between atoms: O_14  and  C_15
REMARK    8  A    between atoms: C_15  and  C_17
REMARK    9  A    between atoms: N_19  and  C_20
REMARK   10  A    between atoms: C_20  and  C_21
REMARK   11  A    between atoms: C_24  and  C_25
REMARK                            x       y       z     vdW  Elec       q    Type
REMARK                         _______ _______ _______ _____ _____    ______ ____
ROOT
ATOM      1  C   UNL     1       1.463  10.191  18.344  0.00  0.00    +0.000 C 
ATOM      2  O   UNL     1       2.325  10.945  17.922  0.00  0.00    +0.000 OA
ENDROOT
BRANCH   1   3
ATOM      3  C   UNL     1       0.032  10.538  18.473  0.00  0.00    +0.000 A 
ATOM      4  C   UNL     1      -0.846  10.065  17.575  0.00  0.00    +0.000 A 
ATOM      5  N   UNL     1      -2.198  10.360  17.533  0.00  0.00    +0.000 N 
ATOM      6  C   UNL     1      -2.766  11.212  18.510  0.00  0.00    +0.000 A 
ATOM      7  N   UNL     1      -4.093  11.494  18.497  0.00  0.00    +0.000 NA
ATOM      8  C   UNL     1      -4.598  12.336  19.439  0.00  0.00    +0.000 A 
ATOM      9  C   UNL     1      -6.066  12.626  19.393  0.00  0.00    +0.000 C 
ATOM     10  C   UNL     1      -3.814  12.934  20.417  0.00  0.00    +0.000 A 
ATOM     11  C   UNL     1      -2.465  12.629  20.450  0.00  0.00    +0.000 A 
ATOM     12  C   UNL     1      -1.938  11.767  19.488  0.00  0.00    +0.000 A 
ATOM     13  C   UNL     1      -0.497  11.466  19.502  0.00  0.00    +0.000 A 
ATOM     14  O   UNL     1       0.212  12.004  20.348  0.00  0.00    +0.000 OA
BRANCH   5  15
ATOM     15  C   UNL     1      -3.111   9.833  16.513  0.00  0.00    +0.000 C 
ATOM     16  C   UNL     1      -2.956  10.587  15.200  0.00  0.00    +0.000 C 
ENDBRANCH   5  15
ENDBRANCH   1   3
BRANCH   1  17
ATOM     17  O   UNL     1       1.660   8.948  18.828  0.00  0.00    +0.000 OA
BRANCH  17  18
ATOM     18  C   UNL     1       2.603   8.121  18.171  0.00  0.00    +0.000 C 
BRANCH  18  20
ATOM     19  N   UNL     1       2.907   6.221  19.746  0.00  0.00    +0.000 N 
ATOM     20  C   UNL     1       2.392   6.645  18.521  0.00  0.00    +0.000 C 
ATOM     21  O   UNL     1       1.783   5.938  17.715  0.00  0.00    +0.000 OA
ATOM     22  H   UNL     1       3.154   6.936  20.436  0.00  0.00    +0.000 HD
BRANCH  19  28
ATOM     23  C   UNL     1       3.929   3.971  19.678  0.00  0.00    +0.000 A 
ATOM     24  C   UNL     1       4.017   2.670  20.208  0.00  0.00    +0.000 A 
ATOM     25  C   UNL     1       3.095   2.217  21.155  0.00  0.00    +0.000 A 
ATOM     26  C   UNL     1       2.102   3.067  21.601  0.00  0.00    +0.000 A 
ATOM     27  C   UNL     1       2.047   4.380  21.136  0.00  0.00    +0.000 A 
ATOM     28  C   UNL     1       2.969   4.868  20.192  0.00  0.00    +0.000 A 
BRANCH  23  29
ATOM     29  O   UNL     1       4.788   4.413  18.691  0.00  0.00    +0.000 OA
BRANCH  29  31
ATOM     30  C   UNL     1       4.907   4.826  16.290  0.00  0.00    +0.000 C 
ATOM     31  C   UNL     1       4.630   3.816  17.393  0.00  0.00    +0.000 C 
ENDBRANCH  29  31
ENDBRANCH  23  29
ENDBRANCH  19  28
ENDBRANCH  18  20
ENDBRANCH  17  18
ENDBRANCH   1  17
TORSDOF 8
ENDMDL
MODEL 8
REMARK VINA RESULT:      -7.3      4.577      7.812
REMARK  Name = 
REMARK  11 active torsions:
REMARK  status: ('A' for Active; 'I' for Inactive)
REMARK    1  A    between atoms: C_1  and  C_2
REMARK    2  A    between atoms: C_2  and  O_3
REMARK    3  A    between atoms: O_3  and  C_4
REMARK    4  A    between atoms: C_9  and  N_10
REMARK    5  A    between atoms: C_11  and  C_13
REMARK    6  A    between atoms: C_13  and  O_14
REMARK    7  A    between atoms: O_14  and  C_15
REMARK    8  A    between atoms: C_15  and  C_17
REMARK    9  A    between atoms: N_19  and  C_20
REMARK   10  A    between atoms: C_20  and  C_21
REMARK   11  A    between atoms: C_24  and  C_25
REMARK                            x       y       z     vdW  Elec       q    Type
REMARK                         _______ _______ _______ _____ _____    ______ ____
ROOT
ATOM      1  C   UNL     1       3.423   4.825  19.497  0.00  0.00    +0.000 C 
ATOM      2  O   UNL     1       3.539   4.099  20.472  0.00  0.00    +0.000 OA
ENDROOT
BRANCH   1   3
ATOM      3  C   UNL     1       4.407   4.920  18.399  0.00  0.00    +0.000 A 
ATOM      4  C   UNL     1       5.538   5.618  18.584  0.00  0.00    +0.000 A 
ATOM      5  N   UNL     1       6.513   5.845  17.627  0.00  0.00    +0.000 N 
ATOM      6  C   UNL     1       6.370   5.301  16.328  0.00  0.00    +0.000 A 
ATOM      7  N   UNL     1       7.326   5.496  15.386  0.00  0.00    +0.000 NA
ATOM      8  C   UNL     1       7.142   4.977  14.142  0.00  0.00    +0.000 A 
ATOM      9  C   UNL     1       8.217   5.213  13.126  0.00  0.00    +0.000 C 
ATOM     10  C   UNL     1       6.009   4.259  13.783  0.00  0.00    +0.000 A 
ATOM     11  C   UNL     1       5.043   4.036  14.747  0.00  0.00    +0.000 A 
ATOM     12  C   UNL     1       5.223   4.564  16.025  0.00  0.00    +0.000 A 
ATOM     13  C   UNL     1       4.182   4.354  17.046  0.00  0.00    +0.000 A 
ATOM     14  O   UNL     1       3.166   3.739  16.737  0.00  0.00    +0.000 OA
BRANCH   5  15
ATOM     15  C   UNL     1       7.723   6.638  17.876  0.00  0.00    +0.000 C 
ATOM     16  C   UNL     1       7.484   8.109  17.571  0.00  0.00    +0.000 C 
ENDBRANCH   5  15
ENDBRANCH   1   3
BRANCH   1  17
ATOM     17  O   UNL     1       2.431   5.711  19.278  0.00  0.00    +0.000 OA
BRANCH  17  18
ATOM     18  C   UNL     1       2.771   7.083  19.197  0.00  0.00    +0.000 C 
BRANCH  18  20
ATOM     19  N   UNL     1       1.327   9.108  19.158  0.00  0.00    +0.000 N 
ATOM     20  C   UNL     1       1.706   7.963  19.859  0.00  0.00    +0.000 C 
ATOM     21  O   UNL     1       1.252   7.605  20.949  0.00  0.00    +0.000 OA
ATOM     22  H   UNL     1       1.570   9.165  18.166  0.00  0.00    +0.000 HD
BRANCH  19  28
ATOM     23  C   UNL     1      -0.692  10.523  18.983  0.00  0.00    +0.000 A 
ATOM     24  C   UNL     1      -1.544  11.485  19.558  0.00  0.00    +0.000 A 
ATOM     25  C   UNL     1      -1.185  12.152  20.732  0.00  0.00    +0.000 A 
ATOM     26  C   UNL     1       0.007  11.841  21.355  0.00  0.00    +0.000 A 
ATOM     27  C   UNL     1       0.827  10.840  20.834  0.00  0.00    +0.000 A 
ATOM     28  C   UNL     1       0.485  10.143  19.661  0.00  0.00    +0.000 A 
BRANCH  23  29
ATOM     29  O   UNL     1      -0.999   9.904  17.787  0.00  0.00    +0.000 OA
BRANCH  29  31
ATOM     30  C   UNL     1      -2.548  10.397  15.968  0.00  0.00    +0.000 C 
ATOM     31  C   UNL     1      -2.382   9.912  17.400  0.00  0.00    +0.000 C 
ENDBRANCH  29  31
ENDBRANCH  23  29
ENDBRANCH  19  28
ENDBRANCH  18  20
ENDBRANCH  17  18
ENDBRANCH   1  17
TORSDOF 8
ENDMDL
MODEL 9
REMARK VINA RESULT:      -7.3      5.658      8.068
REMARK  Name = 
REMARK  11 active torsions:
REMARK  status: ('A' for Active; 'I' for Inactive)
REMARK    1  A    between atoms: C_1  and  C_2
REMARK    2  A    between atoms: C_2  and  O_3
REMARK    3  A    between atoms: O_3  and  C_4
REMARK    4  A    between atoms: C_9  and  N_10
REMARK    5  A    between atoms: C_11  and  C_13
REMARK    6  A    between atoms: C_13  and  O_14
REMARK    7  A    between atoms: O_14  and  C_15
REMARK    8  A    between atoms: C_15  and  C_17
REMARK    9  A    between atoms: N_19  and  C_20
REMARK   10  A    between atoms: C_20  and  C_21
REMARK   11  A    between atoms: C_24  and  C_25
REMARK                            x       y       z     vdW  Elec       q    Type
REMARK                         _______ _______ _______ _____ _____    ______ ____
ROOT
ATOM      1  C   UNL     1       1.388   8.615  20.007  0.00  0.00    +0.000 C 
ATOM      2  O   UNL     1       1.013   9.667  19.513  0.00  0.00    +0.000 OA
ENDROOT
BRANCH   1   3
ATOM      3  C   UNL     1       2.180   7.589  19.296  0.00  0.00    +0.000 A 
ATOM      4  C   UNL     1       2.284   6.357  19.818  0.00  0.00    +0.000 A 
ATOM      5  N   UNL     1       3.042   5.321  19.299  0.00  0.00    +0.000 N 
ATOM      6  C   UNL     1       3.775   5.510  18.103  0.00  0.00    +0.000 A 
ATOM      7  N   UNL     1       4.505   4.499  17.569  0.00  0.00    +0.000 NA
ATOM      8  C   UNL     1       5.214   4.728  16.432  0.00  0.00    +0.000 A 
ATOM      9  C   UNL     1       6.011   3.589  15.872  0.00  0.00    +0.000 C 
ATOM     10  C   UNL     1       5.237   5.958  15.788  0.00  0.00    +0.000 A 
ATOM     11  C   UNL     1       4.474   6.985  16.315  0.00  0.00    +0.000 A 
ATOM     12  C   UNL     1       3.743   6.760  17.481  0.00  0.00    +0.000 A 
ATOM     13  C   UNL     1       2.954   7.860  18.061  0.00  0.00    +0.000 A 
ATOM     14  O   UNL     1       2.981   8.960  17.514  0.00  0.00    +0.000 OA
BRANCH   5  15
ATOM     15  C   UNL     1       3.140   3.997  19.924  0.00  0.00    +0.000 C 
ATOM     16  C   UNL     1       2.315   3.933  21.201  0.00  0.00    +0.000 C 
ENDBRANCH   5  15
ENDBRANCH   1   3
BRANCH   1  17
ATOM     17  O   UNL     1       1.098   8.168  21.245  0.00  0.00    +0.000 OA
BRANCH  17  18
ATOM     18  C   UNL     1      -0.173   8.482  21.784  0.00  0.00    +0.000 C 
BRANCH  18  20
ATOM     19  N   UNL     1      -0.699  10.913  21.768  0.00  0.00    +0.000 N 
ATOM     20  C   UNL     1      -0.162   9.843  22.486  0.00  0.00    +0.000 C 
ATOM     21  O   UNL     1       0.305   9.906  23.625  0.00  0.00    +0.000 OA
ATOM     22  H   UNL     1      -1.285  10.700  20.956  0.00  0.00    +0.000 HD
BRANCH  19  28
ATOM     23  C   UNL     1      -1.588  12.833  23.045  0.00  0.00    +0.000 A 
ATOM     24  C   UNL     1      -1.442  14.165  23.479  0.00  0.00    +0.000 A 
ATOM     25  C   UNL     1      -0.437  14.983  22.957  0.00  0.00    +0.000 A 
ATOM     26  C   UNL     1       0.445  14.471  22.026  0.00  0.00    +0.000 A 
ATOM     27  C   UNL     1       0.354  13.134  21.641  0.00  0.00    +0.000 A 
ATOM     28  C   UNL     1      -0.638  12.283  22.159  0.00  0.00    +0.000 A 
BRANCH  23  29
ATOM     29  O   UNL     1      -2.617  12.031  23.498  0.00  0.00    +0.000 OA
BRANCH  29  31
ATOM     30  C   UNL     1      -4.680  12.303  24.771  0.00  0.00    +0.000 C 
ATOM     31  C   UNL     1      -3.932  12.610  23.483  0.00  0.00    +0.000 C 
ENDBRANCH  29  31
ENDBRANCH  23  29
ENDBRANCH  19  28
ENDBRANCH  18  20
ENDBRANCH  17  18
ENDBRANCH   1  17
TORSDOF 8
ENDMDL
