MODEL 1
REMARK VINA RESULT:      -8.0      0.000      0.000
REMARK  Name = 
REMARK  6 active torsions:
REMARK  status: ('A' for Active; 'I' for Inactive)
REMARK    1  A    between atoms: C_1  and  S_2
REMARK    2  A    between atoms: S_2  and  N_5
REMARK    3  A    between atoms: N_5  and  C_6
REMARK    4  A    between atoms: C_9  and  N_10
REMARK    5  A    between atoms: C_14  and  O_15
REMARK    6  A    between atoms: O_15  and  C_16
REMARK                            x       y       z     vdW  Elec       q    Type
REMARK                         _______ _______ _______ _____ _____    ______ ____
ROOT
ATOM      1  C   UNL     1       3.121   4.519  17.791  0.00  0.00    +0.000 A 
ATOM      2  C   UNL     1       3.771   3.810  16.775  0.00  0.00    +0.000 A 
ATOM      3  C   UNL     1       5.099   4.099  16.451  0.00  0.00    +0.000 A 
ATOM      4  C   UNL     1       5.761   5.140  17.113  0.00  0.00    +0.000 A 
ATOM      5  C   UNL     1       5.101   5.895  18.087  0.00  0.00    +0.000 A 
ATOM      6  C   UNL     1       3.798   5.547  18.471  0.00  0.00    +0.000 A 
ENDROOT
BRANCH   4   7
ATOM      7  N   UNL     1       7.176   5.413  16.834  0.00  0.00    +0.000 N 
ATOM      8  O   UNL     1       7.506   6.588  16.621  0.00  0.00    +0.000 OA
ATOM      9  O   UNL     1       7.953   4.448  16.801  0.00  0.00    +0.000 OA
ENDBRANCH   4   7
BRANCH   1  10
ATOM     10  N   UNL     1       1.754   4.206  18.100  0.00  0.00    +0.000 N 
ATOM     11  H   UNL     1       1.183   5.005  18.391  0.00  0.00    +0.000 HD
BRANCH  10  13
ATOM     12  C   UNL     1       1.116   3.790  20.688  0.00  0.00    +0.000 C 
ATOM     13  S   UNL     1       1.483   2.924  19.173  0.00  0.00    +0.000 S 
ATOM     14  O   UNL     1       2.768   2.274  19.330  0.00  0.00    +0.000 OA
ATOM     15  O   UNL     1       0.310   2.183  18.756  0.00  0.00    +0.000 OA
ENDBRANCH  10  13
ENDBRANCH   1  10
BRANCH   6  16
ATOM     16  O   UNL     1       3.152   6.189  19.508  0.00  0.00    +0.000 OA
BRANCH  16  17
ATOM     17  C   UNL     1       2.461   7.355  19.241  0.00  0.00    +0.000 A 
ATOM     18  C   UNL     1       1.761   7.919  20.308  0.00  0.00    +0.000 A 
ATOM     19  C   UNL     1       1.029   9.094  20.123  0.00  0.00    +0.000 A 
ATOM     20  C   UNL     1       0.993   9.705  18.870  0.00  0.00    +0.000 A 
ATOM     21  C   UNL     1       1.705   9.155  17.806  0.00  0.00    +0.000 A 
ATOM     22  C   UNL     1       2.461   7.998  17.997  0.00  0.00    +0.000 A 
ENDBRANCH  16  17
ENDBRANCH   6  16
TORSDOF 5
ENDMDL
MODEL 2
REMARK VINA RESULT:      -7.8      0.134      1.258
REMARK  Name = 
REMARK  6 active torsions:
REMARK  status: ('A' for Active; 'I' for Inactive)
REMARK    1  A    between atoms: C_1  and  S_2
REMARK    2  A    between atoms: S_2  and  N_5
REMARK    3  A    between atoms: N_5  and  C_6
REMARK    4  A    between atoms: C_9  and  N_10
REMARK    5  A    between atoms: C_14  and  O_15
REMARK    6  A    between atoms: O_15  and  C_16
REMARK                            x       y       z     vdW  Elec       q    Type
REMARK                         _______ _______ _______ _____ _____    ______ ____
ROOT
ATOM      1  C   UNL     1       3.103   4.544  17.769  0.00  0.00    +0.000 A 
ATOM      2  C   UNL     1       3.742   3.884  16.715  0.00  0.00    +0.000 A 
ATOM      3  C   UNL     1       5.079   4.160  16.416  0.00  0.00    +0.000 A 
ATOM      4  C   UNL     1       5.762   5.141  17.145  0.00  0.00    +0.000 A 
ATOM      5  C   UNL     1       5.113   5.850  18.161  0.00  0.00    +0.000 A 
ATOM      6  C   UNL     1       3.800   5.511  18.516  0.00  0.00    +0.000 A 
ENDROOT
BRANCH   4   7
ATOM      7  N   UNL     1       7.184   5.396  16.890  0.00  0.00    +0.000 N 
ATOM      8  O   UNL     1       7.958   4.428  16.918  0.00  0.00    +0.000 OA
ATOM      9  O   UNL     1       7.533   6.568  16.690  0.00  0.00    +0.000 OA
ENDBRANCH   4   7
BRANCH   1  10
ATOM     10  N   UNL     1       1.727   4.246  18.052  0.00  0.00    +0.000 N 
ATOM     11  H   UNL     1       1.177   5.036  18.401  0.00  0.00    +0.000 HD
BRANCH  10  13
ATOM     12  C   UNL     1       1.023   3.655  20.589  0.00  0.00    +0.000 C 
ATOM     13  S   UNL     1       1.417   2.895  19.025  0.00  0.00    +0.000 S 
ATOM     14  O   UNL     1       2.691   2.220  19.165  0.00  0.00    +0.000 OA
ATOM     15  O   UNL     1       0.247   2.199  18.529  0.00  0.00    +0.000 OA
ENDBRANCH  10  13
ENDBRANCH   1  10
BRANCH   6  16
ATOM     16  O   UNL     1       3.163   6.103  19.588  0.00  0.00    +0.000 OA
BRANCH  16  17
ATOM     17  C   UNL     1       2.461   7.274  19.381  0.00  0.00    +0.000 A 
ATOM     18  C   UNL     1       2.518   7.813  18.095  0.00  0.00    +0.000 A 
ATOM     19  C   UNL     1       1.842   8.999  17.802  0.00  0.00    +0.000 A 
ATOM     20  C   UNL     1       1.111   9.651  18.795  0.00  0.00    +0.000 A 
ATOM     21  C   UNL     1       1.036   9.107  20.076  0.00  0.00    +0.000 A 
ATOM     22  C   UNL     1       1.687   7.906  20.362  0.00  0.00    +0.000 A 
ENDBRANCH  16  17
ENDBRANCH   6  16
TORSDOF 5
ENDMDL
MODEL 3
REMARK VINA RESULT:      -7.7      0.775      1.136
REMARK  Name = 
REMARK  6 active torsions:
REMARK  status: ('A' for Active; 'I' for Inactive)
REMARK    1  A    between atoms: C_1  and  S_2
REMARK    2  A    between atoms: S_2  and  N_5
REMARK    3  A    between atoms: N_5  and  C_6
REMARK    4  A    between atoms: C_9  and  N_10
REMARK    5  A    between atoms: C_14  and  O_15
REMARK    6  A    between atoms: O_15  and  C_16
REMARK                            x       y       z     vdW  Elec       q    Type
REMARK                         _______ _______ _______ _____ _____    ______ ____
ROOT
ATOM      1  C   UNL     1       3.068   4.605  17.796  0.00  0.00    +0.000 A 
ATOM      2  C   UNL     1       3.709   3.887  16.781  0.00  0.00    +0.000 A 
ATOM      3  C   UNL     1       5.047   4.144  16.471  0.00  0.00    +0.000 A 
ATOM      4  C   UNL     1       5.730   5.163  17.146  0.00  0.00    +0.000 A 
ATOM      5  C   UNL     1       5.080   5.928  18.120  0.00  0.00    +0.000 A 
ATOM      6  C   UNL     1       3.765   5.611  18.490  0.00  0.00    +0.000 A 
ENDROOT
BRANCH   4   7
ATOM      7  N   UNL     1       7.153   5.401  16.882  0.00  0.00    +0.000 N 
ATOM      8  O   UNL     1       7.907   4.418  16.856  0.00  0.00    +0.000 OA
ATOM      9  O   UNL     1       7.522   6.573  16.726  0.00  0.00    +0.000 OA
ENDBRANCH   4   7
BRANCH   1  10
ATOM     10  N   UNL     1       1.691   4.326  18.091  0.00  0.00    +0.000 N 
ATOM     11  H   UNL     1       1.106   5.152  18.247  0.00  0.00    +0.000 HD
BRANCH  10  13
ATOM     12  C   UNL     1       3.018   2.593  19.677  0.00  0.00    +0.000 C 
ATOM     13  S   UNL     1       1.381   3.200  19.318  0.00  0.00    +0.000 S 
ATOM     14  O   UNL     1       0.638   2.131  18.682  0.00  0.00    +0.000 OA
ATOM     15  O   UNL     1       0.864   3.885  20.485  0.00  0.00    +0.000 OA
ENDBRANCH  10  13
ENDBRANCH   1  10
BRANCH   6  16
ATOM     16  O   UNL     1       3.127   6.263  19.525  0.00  0.00    +0.000 OA
BRANCH  16  17
ATOM     17  C   UNL     1       2.429   7.423  19.252  0.00  0.00    +0.000 A 
ATOM     18  C   UNL     1       1.736   7.996  20.318  0.00  0.00    +0.000 A 
ATOM     19  C   UNL     1       0.998   9.166  20.128  0.00  0.00    +0.000 A 
ATOM     20  C   UNL     1       0.951   9.765  18.869  0.00  0.00    +0.000 A 
ATOM     21  C   UNL     1       1.659   9.208  17.805  0.00  0.00    +0.000 A 
ATOM     22  C   UNL     1       2.419   8.054  18.002  0.00  0.00    +0.000 A 
ENDBRANCH  16  17
ENDBRANCH   6  16
TORSDOF 5
ENDMDL
MODEL 4
REMARK VINA RESULT:      -7.5      0.789      1.406
REMARK  Name = 
REMARK  6 active torsions:
REMARK  status: ('A' for Active; 'I' for Inactive)
REMARK    1  A    between atoms: C_1  and  S_2
REMARK    2  A    between atoms: S_2  and  N_5
REMARK    3  A    between atoms: N_5  and  C_6
REMARK    4  A    between atoms: C_9  and  N_10
REMARK    5  A    between atoms: C_14  and  O_15
REMARK    6  A    between atoms: O_15  and  C_16
REMARK                            x       y       z     vdW  Elec       q    Type
REMARK                         _______ _______ _______ _____ _____    ______ ____
ROOT
ATOM      1  C   UNL     1       3.072   4.571  17.812  0.00  0.00    +0.000 A 
ATOM      2  C   UNL     1       3.683   3.873  16.765  0.00  0.00    +0.000 A 
ATOM      3  C   UNL     1       5.029   4.097  16.459  0.00  0.00    +0.000 A 
ATOM      4  C   UNL     1       5.748   5.064  17.172  0.00  0.00    +0.000 A 
ATOM      5  C   UNL     1       5.129   5.809  18.179  0.00  0.00    +0.000 A 
ATOM      6  C   UNL     1       3.805   5.523  18.542  0.00  0.00    +0.000 A 
ENDROOT
BRANCH   4   7
ATOM      7  N   UNL     1       7.178   5.264  16.910  0.00  0.00    +0.000 N 
ATOM      8  O   UNL     1       7.524   6.325  16.372  0.00  0.00    +0.000 OA
ATOM      9  O   UNL     1       7.953   4.347  17.218  0.00  0.00    +0.000 OA
ENDBRANCH   4   7
BRANCH   1  10
ATOM     10  N   UNL     1       1.687   4.327  18.102  0.00  0.00    +0.000 N 
ATOM     11  H   UNL     1       1.125   5.167  18.263  0.00  0.00    +0.000 HD
BRANCH  10  13
ATOM     12  C   UNL     1       2.961   2.533  19.663  0.00  0.00    +0.000 C 
ATOM     13  S   UNL     1       1.343   3.200  19.319  0.00  0.00    +0.000 S 
ATOM     14  O   UNL     1       0.561   2.164  18.676  0.00  0.00    +0.000 OA
ATOM     15  O   UNL     1       0.856   3.891  20.496  0.00  0.00    +0.000 OA
ENDBRANCH  10  13
ENDBRANCH   1  10
BRANCH   6  16
ATOM     16  O   UNL     1       3.193   6.153  19.607  0.00  0.00    +0.000 OA
BRANCH  16  17
ATOM     17  C   UNL     1       2.487   7.317  19.375  0.00  0.00    +0.000 A 
ATOM     18  C   UNL     1       2.595   7.865  18.097  0.00  0.00    +0.000 A 
ATOM     19  C   UNL     1       1.919   9.045  17.780  0.00  0.00    +0.000 A 
ATOM     20  C   UNL     1       1.136   9.681  18.743  0.00  0.00    +0.000 A 
ATOM     21  C   UNL     1       1.009   9.128  20.016  0.00  0.00    +0.000 A 
ATOM     22  C   UNL     1       1.661   7.933  20.324  0.00  0.00    +0.000 A 
ENDBRANCH  16  17
ENDBRANCH   6  16
TORSDOF 5
ENDMDL
MODEL 5
REMARK VINA RESULT:      -7.5      1.904      4.665
REMARK  Name = 
REMARK  6 active torsions:
REMARK  status: ('A' for Active; 'I' for Inactive)
REMARK    1  A    between atoms: C_1  and  S_2
REMARK    2  A    between atoms: S_2  and  N_5
REMARK    3  A    between atoms: N_5  and  C_6
REMARK    4  A    between atoms: C_9  and  N_10
REMARK    5  A    between atoms: C_14  and  O_15
REMARK    6  A    between atoms: O_15  and  C_16
REMARK                            x       y       z     vdW  Elec       q    Type
REMARK                         _______ _______ _______ _____ _____    ______ ____
ROOT
ATOM      1  C   UNL     1       4.307   4.689  17.214  0.00  0.00    +0.000 A 
ATOM      2  C   UNL     1       4.098   3.308  17.141  0.00  0.00    +0.000 A 
ATOM      3  C   UNL     1       2.980   2.730  17.748  0.00  0.00    +0.000 A 
ATOM      4  C   UNL     1       2.096   3.535  18.478  0.00  0.00    +0.000 A 
ATOM      5  C   UNL     1       2.329   4.907  18.608  0.00  0.00    +0.000 A 
ATOM      6  C   UNL     1       3.402   5.498  17.927  0.00  0.00    +0.000 A 
ENDROOT
BRANCH   4   7
ATOM      7  N   UNL     1       0.882   2.956  19.064  0.00  0.00    +0.000 N 
ATOM      8  O   UNL     1       0.264   2.114  18.397  0.00  0.00    +0.000 OA
ATOM      9  O   UNL     1       0.531   3.363  20.180  0.00  0.00    +0.000 OA
ENDBRANCH   4   7
BRANCH   1  10
ATOM     10  N   UNL     1       5.466   5.258  16.587  0.00  0.00    +0.000 N 
ATOM     11  H   UNL     1       5.616   4.971  15.615  0.00  0.00    +0.000 HD
BRANCH  10  13
ATOM     12  C   UNL     1       7.424   6.841  17.555  0.00  0.00    +0.000 C 
ATOM     13  S   UNL     1       6.933   5.132  17.424  0.00  0.00    +0.000 S 
ATOM     14  O   UNL     1       7.844   4.474  16.510  0.00  0.00    +0.000 OA
ATOM     15  O   UNL     1       6.690   4.606  18.752  0.00  0.00    +0.000 OA
ENDBRANCH  10  13
ENDBRANCH   1  10
BRANCH   6  16
ATOM     16  O   UNL     1       3.601   6.864  17.933  0.00  0.00    +0.000 OA
BRANCH  16  17
ATOM     17  C   UNL     1       2.655   7.672  18.533  0.00  0.00    +0.000 A 
ATOM     18  C   UNL     1       2.061   8.639  17.723  0.00  0.00    +0.000 A 
ATOM     19  C   UNL     1       1.100   9.503  18.253  0.00  0.00    +0.000 A 
ATOM     20  C   UNL     1       0.734   9.402  19.595  0.00  0.00    +0.000 A 
ATOM     21  C   UNL     1       1.311   8.425  20.404  0.00  0.00    +0.000 A 
ATOM     22  C   UNL     1       2.250   7.542  19.868  0.00  0.00    +0.000 A 
ENDBRANCH  16  17
ENDBRANCH   6  16
TORSDOF 5
ENDMDL
MODEL 6
REMARK VINA RESULT:      -7.5      0.911      1.292
REMARK  Name = 
REMARK  6 active torsions:
REMARK  status: ('A' for Active; 'I' for Inactive)
REMARK    1  A    between atoms: C_1  and  S_2
REMARK    2  A    between atoms: S_2  and  N_5
REMARK    3  A    between atoms: N_5  and  C_6
REMARK    4  A    between atoms: C_9  and  N_10
REMARK    5  A    between atoms: C_14  and  O_15
REMARK    6  A    between atoms: O_15  and  C_16
REMARK                            x       y       z     vdW  Elec       q    Type
REMARK                         _______ _______ _______ _____ _____    ______ ____
ROOT
ATOM      1  C   UNL     1       3.089   4.731  17.749  0.00  0.00    +0.000 A 
ATOM      2  C   UNL     1       3.638   3.996  16.693  0.00  0.00    +0.000 A 
ATOM      3  C   UNL     1       4.924   4.286  16.226  0.00  0.00    +0.000 A 
ATOM      4  C   UNL     1       5.639   5.351  16.787  0.00  0.00    +0.000 A 
ATOM      5  C   UNL     1       5.074   6.129  17.801  0.00  0.00    +0.000 A 
ATOM      6  C   UNL     1       3.821   5.784  18.327  0.00  0.00    +0.000 A 
ENDROOT
BRANCH   4   7
ATOM      7  N   UNL     1       7.015   5.625  16.356  0.00  0.00    +0.000 N 
ATOM      8  O   UNL     1       7.598   4.753  15.697  0.00  0.00    +0.000 OA
ATOM      9  O   UNL     1       7.522   6.702  16.700  0.00  0.00    +0.000 OA
ENDBRANCH   4   7
BRANCH   1  10
ATOM     10  N   UNL     1       1.764   4.418  18.206  0.00  0.00    +0.000 N 
ATOM     11  H   UNL     1       1.149   5.226  18.335  0.00  0.00    +0.000 HD
BRANCH  10  13
ATOM     12  C   UNL     1       0.657   2.067  18.932  0.00  0.00    +0.000 C 
ATOM     13  S   UNL     1       1.637   3.415  19.566  0.00  0.00    +0.000 S 
ATOM     14  O   UNL     1       0.824   4.151  20.513  0.00  0.00    +0.000 OA
ATOM     15  O   UNL     1       2.949   2.917  19.926  0.00  0.00    +0.000 OA
ENDBRANCH  10  13
ENDBRANCH   1  10
BRANCH   6  16
ATOM     16  O   UNL     1       3.278   6.452  19.405  0.00  0.00    +0.000 OA
BRANCH  16  17
ATOM     17  C   UNL     1       2.478   7.553  19.172  0.00  0.00    +0.000 A 
ATOM     18  C   UNL     1       1.758   8.039  20.263  0.00  0.00    +0.000 A 
ATOM     19  C   UNL     1       0.919   9.145  20.113  0.00  0.00    +0.000 A 
ATOM     20  C   UNL     1       0.796   9.766  18.870  0.00  0.00    +0.000 A 
ATOM     21  C   UNL     1       1.529   9.296  17.781  0.00  0.00    +0.000 A 
ATOM     22  C   UNL     1       2.390   8.209  17.937  0.00  0.00    +0.000 A 
ENDBRANCH  16  17
ENDBRANCH   6  16
TORSDOF 5
ENDMDL
MODEL 7
REMARK VINA RESULT:      -7.4      1.574      1.977
REMARK  Name = 
REMARK  6 active torsions:
REMARK  status: ('A' for Active; 'I' for Inactive)
REMARK    1  A    between atoms: C_1  and  S_2
REMARK    2  A    between atoms: S_2  and  N_5
REMARK    3  A    between atoms: N_5  and  C_6
REMARK    4  A    between atoms: C_9  and  N_10
REMARK    5  A    between atoms: C_14  and  O_15
REMARK    6  A    between atoms: O_15  and  C_16
REMARK                            x       y       z     vdW  Elec       q    Type
REMARK                         _______ _______ _______ _____ _____    ______ ____
ROOT
ATOM      1  C   UNL     1       4.024   4.666  18.818  0.00  0.00    +0.000 A 
ATOM      2  C   UNL     1       5.290   4.179  19.158  0.00  0.00    +0.000 A 
ATOM      3  C   UNL     1       6.440   4.876  18.778  0.00  0.00    +0.000 A 
ATOM      4  C   UNL     1       6.320   6.039  18.008  0.00  0.00    +0.000 A 
ATOM      5  C   UNL     1       5.062   6.501  17.611  0.00  0.00    +0.000 A 
ATOM      6  C   UNL     1       3.907   5.849  18.066  0.00  0.00    +0.000 A 
ENDROOT
BRANCH   4   7
ATOM      7  N   UNL     1       7.513   6.820  17.658  0.00  0.00    +0.000 N 
ATOM      8  O   UNL     1       7.791   6.941  16.457  0.00  0.00    +0.000 OA
ATOM      9  O   UNL     1       8.186   7.289  18.586  0.00  0.00    +0.000 OA
ENDBRANCH   4   7
BRANCH   1  10
ATOM     10  N   UNL     1       2.858   3.928  19.215  0.00  0.00    +0.000 N 
ATOM     11  H   UNL     1       2.867   3.594  20.183  0.00  0.00    +0.000 HD
BRANCH  10  13
ATOM     12  C   UNL     1       0.732   2.315  18.817  0.00  0.00    +0.000 C 
ATOM     13  S   UNL     1       2.372   2.657  18.206  0.00  0.00    +0.000 S 
ATOM     14  O   UNL     1       3.222   1.538  18.558  0.00  0.00    +0.000 OA
ATOM     15  O   UNL     1       2.278   3.132  16.840  0.00  0.00    +0.000 OA
ENDBRANCH  10  13
ENDBRANCH   1  10
BRANCH   6  16
ATOM     16  O   UNL     1       2.645   6.338  17.795  0.00  0.00    +0.000 OA
BRANCH  16  17
ATOM     17  C   UNL     1       2.165   7.393  18.546  0.00  0.00    +0.000 A 
ATOM     18  C   UNL     1       1.849   8.559  17.847  0.00  0.00    +0.000 A 
ATOM     19  C   UNL     1       1.365   9.676  18.530  0.00  0.00    +0.000 A 
ATOM     20  C   UNL     1       1.197   9.630  19.914  0.00  0.00    +0.000 A 
ATOM     21  C   UNL     1       1.493   8.462  20.614  0.00  0.00    +0.000 A 
ATOM     22  C   UNL     1       1.949   7.335  19.929  0.00  0.00    +0.000 A 
ENDBRANCH  16  17
ENDBRANCH   6  16
TORSDOF 5
ENDMDL
MODEL 8
REMARK VINA RESULT:      -7.4      1.593      1.765
REMARK  Name = 
REMARK  6 active torsions:
REMARK  status: ('A' for Active; 'I' for Inactive)
REMARK    1  A    between atoms: C_1  and  S_2
REMARK    2  A    between atoms: S_2  and  N_5
REMARK    3  A    between atoms: N_5  and  C_6
REMARK    4  A    between atoms: C_9  and  N_10
REMARK    5  A    between atoms: C_14  and  O_15
REMARK    6  A    between atoms: O_15  and  C_16
REMARK                            x       y       z     vdW  Elec       q    Type
REMARK                         _______ _______ _______ _____ _____    ______ ____
ROOT
ATOM      1  C   UNL     1       4.089   4.611  18.856  0.00  0.00    +0.000 A 
ATOM      2  C   UNL     1       5.368   4.167  19.210  0.00  0.00    +0.000 A 
ATOM      3  C   UNL     1       6.498   4.894  18.828  0.00  0.00    +0.000 A 
ATOM      4  C   UNL     1       6.349   6.043  18.041  0.00  0.00    +0.000 A 
ATOM      5  C   UNL     1       5.079   6.461  17.631  0.00  0.00    +0.000 A 
ATOM      6  C   UNL     1       3.942   5.780  18.087  0.00  0.00    +0.000 A 
ENDROOT
BRANCH   4   7
ATOM      7  N   UNL     1       7.519   6.855  17.689  0.00  0.00    +0.000 N 
ATOM      8  O   UNL     1       7.774   7.007  16.486  0.00  0.00    +0.000 OA
ATOM      9  O   UNL     1       8.198   7.318  18.615  0.00  0.00    +0.000 OA
ENDBRANCH   4   7
BRANCH   1  10
ATOM     10  N   UNL     1       2.944   3.843  19.255  0.00  0.00    +0.000 N 
ATOM     11  H   UNL     1       2.988   3.465  20.206  0.00  0.00    +0.000 HD
BRANCH  10  13
ATOM     12  C   UNL     1       0.805   2.256  18.827  0.00  0.00    +0.000 C 
ATOM     13  S   UNL     1       2.437   2.615  18.204  0.00  0.00    +0.000 S 
ATOM     14  O   UNL     1       3.287   1.480  18.499  0.00  0.00    +0.000 OA
ATOM     15  O   UNL     1       2.325   3.144  16.860  0.00  0.00    +0.000 OA
ENDBRANCH  10  13
ENDBRANCH   1  10
BRANCH   6  16
ATOM     16  O   UNL     1       2.667   6.227  17.803  0.00  0.00    +0.000 OA
BRANCH  16  17
ATOM     17  C   UNL     1       2.205   7.366  18.433  0.00  0.00    +0.000 A 
ATOM     18  C   UNL     1       2.017   7.279  19.813  0.00  0.00    +0.000 A 
ATOM     19  C   UNL     1       1.545   8.381  20.527  0.00  0.00    +0.000 A 
ATOM     20  C   UNL     1       1.256   9.573  19.863  0.00  0.00    +0.000 A 
ATOM     21  C   UNL     1       1.460   9.671  18.487  0.00  0.00    +0.000 A 
ATOM     22  C   UNL     1       1.960   8.579  17.777  0.00  0.00    +0.000 A 
ENDBRANCH  16  17
ENDBRANCH   6  16
TORSDOF 5
ENDMDL
MODEL 9
REMARK VINA RESULT:      -7.3      1.902      4.592
REMARK  Name = 
REMARK  6 active torsions:
REMARK  status: ('A' for Active; 'I' for Inactive)
REMARK    1  A    between atoms: C_1  and  S_2
REMARK    2  A    between atoms: S_2  and  N_5
REMARK    3  A    between atoms: N_5  and  C_6
REMARK    4  A    between atoms: C_9  and  N_10
REMARK    5  A    between atoms: C_14  and  O_15
REMARK    6  A    between atoms: O_15  and  C_16
REMARK                            x       y       z     vdW  Elec       q    Type
REMARK                         _______ _______ _______ _____ _____    ______ ____
ROOT
ATOM      1  C   UNL     1       4.364   4.656  17.347  0.00  0.00    +0.000 A 
ATOM      2  C   UNL     1       4.298   3.266  17.496  0.00  0.00    +0.000 A 
ATOM      3  C   UNL     1       3.169   2.671  18.065  0.00  0.00    +0.000 A 
ATOM      4  C   UNL     1       2.124   3.477  18.534  0.00  0.00    +0.000 A 
ATOM      5  C   UNL     1       2.207   4.869  18.444  0.00  0.00    +0.000 A 
ATOM      6  C   UNL     1       3.301   5.460  17.796  0.00  0.00    +0.000 A 
ENDROOT
BRANCH   4   7
ATOM      7  N   UNL     1       0.903   2.866  19.070  0.00  0.00    +0.000 N 
ATOM      8  O   UNL     1       0.246   2.132  18.318  0.00  0.00    +0.000 OA
ATOM      9  O   UNL     1       0.585   3.141  20.236  0.00  0.00    +0.000 OA
ENDBRANCH   4   7
BRANCH   1  10
ATOM     10  N   UNL     1       5.538   5.243  16.766  0.00  0.00    +0.000 N 
ATOM     11  H   UNL     1       5.760   4.919  15.820  0.00  0.00    +0.000 HD
BRANCH  10  13
ATOM     12  C   UNL     1       7.470   6.921  17.621  0.00  0.00    +0.000 C 
ATOM     13  S   UNL     1       6.953   5.216  17.697  0.00  0.00    +0.000 S 
ATOM     14  O   UNL     1       7.901   4.428  16.936  0.00  0.00    +0.000 OA
ATOM     15  O   UNL     1       6.625   4.882  19.068  0.00  0.00    +0.000 OA
ENDBRANCH  10  13
ENDBRANCH   1  10
BRANCH   6  16
ATOM     16  O   UNL     1       3.368   6.822  17.582  0.00  0.00    +0.000 OA
BRANCH  16  17
ATOM     17  C   UNL     1       2.548   7.653  18.320  0.00  0.00    +0.000 A 
ATOM     18  C   UNL     1       2.407   7.344  19.673  0.00  0.00    +0.000 A 
ATOM     19  C   UNL     1       1.590   8.128  20.490  0.00  0.00    +0.000 A 
ATOM     20  C   UNL     1       0.910   9.222  19.955  0.00  0.00    +0.000 A 
ATOM     21  C   UNL     1       1.062   9.546  18.608  0.00  0.00    +0.000 A 
ATOM     22  C   UNL     1       1.901   8.780  17.797  0.00  0.00    +0.000 A 
ENDBRANCH  16  17
ENDBRANCH   6  16
TORSDOF 5
ENDMDL
