MODEL 1
REMARK VINA RESULT:      -7.9      0.000      0.000
REMARK  Name = 
REMARK  13 active torsions:
REMARK  status: ('A' for Active; 'I' for Inactive)
REMARK    1  A    between atoms: C_1  and  N_2
REMARK    2  A    between atoms: N_2  and  C_3
REMARK    3  A    between atoms: N_2  and  C_4
REMARK    4  A    between atoms: C_7  and  C_8
REMARK    5  A    between atoms: C_9  and  N_10
REMARK    6  A    between atoms: C_9  and  C_19
REMARK    7  A    between atoms: C_11  and  C_13
REMARK    8  A    between atoms: N_21  and  CA_22
REMARK    9  A    between atoms: CA_22  and  CB_23
REMARK   10  A    between atoms: CA_22  and  C_27
REMARK   11  A    between atoms: CB_23  and  CG_24
REMARK   12  A    between atoms: CG_24  and  OD2_26
REMARK   13  A    between atoms: C_27  and  OXT_29
REMARK                            x       y       z     vdW  Elec       q    Type
REMARK                         _______ _______ _______ _____ _____    ______ ____
ROOT
ATOM      1  C   UNK A   1       3.069   8.451  17.647  0.00  0.00    +0.000 C 
ATOM      2  C   UNK A   1       3.479   7.176  17.786  0.00  0.00    +0.000 C 
ENDROOT
BRANCH   1   6
ATOM      3  C   UNK A   1      -0.303  10.283  19.582  0.00  0.00    +0.000 A 
ATOM      4  C   UNK A   1      -0.277  10.105  18.189  0.00  0.00    +0.000 A 
ATOM      5  C   UNK A   1       0.807   9.490  17.543  0.00  0.00    +0.000 A 
ATOM      6  C   UNK A   1       1.877   9.004  18.289  0.00  0.00    +0.000 A 
ATOM      7  C   UNK A   1       1.812   9.055  19.681  0.00  0.00    +0.000 A 
ATOM      8  C   UNK A   1       0.732   9.677  20.312  0.00  0.00    +0.000 A 
BRANCH   3  10
ATOM      9  C   UNK A   1      -1.960  12.111  19.511  0.00  0.00    +0.000 C 
ATOM     10  N   UNK A   1      -1.286  11.041  20.245  0.00  0.00    +0.000 N 
ATOM     11  C   UNK A   1      -0.939  11.370  21.635  0.00  0.00    +0.000 C 
ENDBRANCH   3  10
ENDBRANCH   1   6
BRANCH   2  12
ATOM     12  N   UNK A   1       2.971   6.323  18.751  0.00  0.00    +0.000 N 
ATOM     13  C   UNK A   0       2.538   5.038  18.455  0.00  0.00    +0.000 C 
ATOM     14  O   UNK A   0       2.599   4.543  17.336  0.00  0.00    +0.000 OA
ATOM     15  H   UNK A   1       2.531   6.775  19.540  0.00  0.00    +0.000 HD
BRANCH  13  16
ATOM     16  C   UNK A   0       2.066   4.221  19.615  0.00  0.00    +0.000 A 
ATOM     17  C   UNK A   0       2.482   4.436  20.936  0.00  0.00    +0.000 A 
ATOM     18  C   UNK A   0       2.134   3.523  21.938  0.00  0.00    +0.000 A 
ATOM     19  C   UNK A   0       1.347   2.412  21.629  0.00  0.00    +0.000 A 
ATOM     20  C   UNK A   0       0.888   2.223  20.328  0.00  0.00    +0.000 A 
ATOM     21  C   UNK A   0       1.234   3.130  19.327  0.00  0.00    +0.000 A 
ENDBRANCH  13  16
ENDBRANCH   2  12
BRANCH   2  22
ATOM     22  C   UNK A   1       4.645   6.740  16.926  0.00  0.00    +0.000 C 
ATOM     23  O   UNK A   1       4.847   7.210  15.809  0.00  0.00    +0.000 OA
ATOM     24  N   ASP A   2       5.504   5.838  17.498  0.00  0.00    +0.000 N 
ATOM     25  H   ASP A   2       5.227   5.381  18.363  0.00  0.00    +0.000 HD
BRANCH  24  26
ATOM     26  CA  ASP A   2       6.667   5.304  16.780  0.00  0.00    +0.000 C 
BRANCH  26  27
ATOM     27  C   ASP A   2       6.202   4.101  15.945  0.00  0.00    +0.000 C 
ATOM     28  O   ASP A   2       6.559   3.908  14.790  0.00  0.00    +0.000 OA
BRANCH  27  29
ATOM     29  OXT ASP A   2       5.322   3.285  16.568  0.00  0.00    +0.000 OA
ATOM     30  HXT ASP A   2       5.404   2.326  16.336  0.00  0.00    +0.000 HD
ENDBRANCH  27  29
ENDBRANCH  26  27
BRANCH  26  31
ATOM     31  CB  ASP A   2       7.764   4.862  17.751  0.00  0.00    +0.000 C 
BRANCH  31  32
ATOM     32  CG  ASP A   2       7.708   5.691  18.999  0.00  0.00    +0.000 C 
ATOM     33  OD1 ASP A   2       7.169   5.319  20.039  0.00  0.00    +0.000 OA
BRANCH  32  34
ATOM     34  OD2 ASP A   2       8.297   6.896  18.881  0.00  0.00    +0.000 OA
ATOM     35  HD2 ASP A   2       7.997   7.424  18.115  0.00  0.00    +0.000 HD
ENDBRANCH  32  34
ENDBRANCH  31  32
ENDBRANCH  26  31
ENDBRANCH  24  26
ENDBRANCH   2  22
TORSDOF 11
ENDMDL
MODEL 2
REMARK VINA RESULT:      -7.9      0.936      1.134
REMARK  Name = 
REMARK  13 active torsions:
REMARK  status: ('A' for Active; 'I' for Inactive)
REMARK    1  A    between atoms: C_1  and  N_2
REMARK    2  A    between atoms: N_2  and  C_3
REMARK    3  A    between atoms: N_2  and  C_4
REMARK    4  A    between atoms: C_7  and  C_8
REMARK    5  A    between atoms: C_9  and  N_10
REMARK    6  A    between atoms: C_9  and  C_19
REMARK    7  A    between atoms: C_11  and  C_13
REMARK    8  A    between atoms: N_21  and  CA_22
REMARK    9  A    between atoms: CA_22  and  CB_23
REMARK   10  A    between atoms: CA_22  and  C_27
REMARK   11  A    between atoms: CB_23  and  CG_24
REMARK   12  A    between atoms: CG_24  and  OD2_26
REMARK   13  A    between atoms: C_27  and  OXT_29
REMARK                            x       y       z     vdW  Elec       q    Type
REMARK                         _______ _______ _______ _____ _____    ______ ____
ROOT
ATOM      1  C   UNK A   1       3.240   8.317  17.579  0.00  0.00    +0.000 C 
ATOM      2  C   UNK A   1       3.468   7.007  17.365  0.00  0.00    +0.000 C 
ENDROOT
BRANCH   1   6
ATOM      3  C   UNK A   1      -0.006  10.025  19.821  0.00  0.00    +0.000 A 
ATOM      4  C   UNK A   1       0.071  10.180  18.427  0.00  0.00    +0.000 A 
ATOM      5  C   UNK A   1       1.113   9.611  17.677  0.00  0.00    +0.000 A 
ATOM      6  C   UNK A   1       2.084   8.839  18.308  0.00  0.00    +0.000 A 
ATOM      7  C   UNK A   1       1.954   8.566  19.669  0.00  0.00    +0.000 A 
ATOM      8  C   UNK A   1       0.918   9.144  20.407  0.00  0.00    +0.000 A 
BRANCH   3  10
ATOM      9  C   UNK A   1      -1.674  11.831  20.038  0.00  0.00    +0.000 C 
ATOM     10  N   UNK A   1      -0.933  10.714  20.624  0.00  0.00    +0.000 N 
ATOM     11  C   UNK A   1      -0.469  10.936  22.001  0.00  0.00    +0.000 C 
ENDBRANCH   3  10
ENDBRANCH   1   6
BRANCH   2  12
ATOM     12  N   UNK A   1       2.781   6.004  18.028  0.00  0.00    +0.000 N 
ATOM     13  C   UNK A   0       3.263   5.412  19.186  0.00  0.00    +0.000 C 
ATOM     14  O   UNK A   0       4.306   5.745  19.735  0.00  0.00    +0.000 OA
ATOM     15  H   UNK A   1       2.182   5.434  17.446  0.00  0.00    +0.000 HD
BRANCH  13  16
ATOM     16  C   UNK A   0       2.379   4.380  19.812  0.00  0.00    +0.000 A 
ATOM     17  C   UNK A   0       2.453   4.011  21.162  0.00  0.00    +0.000 A 
ATOM     18  C   UNK A   0       1.715   2.918  21.631  0.00  0.00    +0.000 A 
ATOM     19  C   UNK A   0       0.882   2.211  20.762  0.00  0.00    +0.000 A 
ATOM     20  C   UNK A   0       0.766   2.607  19.432  0.00  0.00    +0.000 A 
ATOM     21  C   UNK A   0       1.500   3.695  18.961  0.00  0.00    +0.000 A 
ENDBRANCH  13  16
ENDBRANCH   2  12
BRANCH   2  22
ATOM     22  C   UNK A   1       4.629   6.660  16.460  0.00  0.00    +0.000 C 
ATOM     23  O   UNK A   1       4.887   7.305  15.447  0.00  0.00    +0.000 OA
ATOM     24  N   ASP A   2       5.421   5.622  16.877  0.00  0.00    +0.000 N 
ATOM     25  H   ASP A   2       5.097   5.037  17.643  0.00  0.00    +0.000 HD
BRANCH  24  26
ATOM     26  CA  ASP A   2       6.571   5.153  16.095  0.00  0.00    +0.000 C 
BRANCH  26  27
ATOM     27  C   ASP A   2       6.089   4.031  15.162  0.00  0.00    +0.000 C 
ATOM     28  O   ASP A   2       5.860   4.201  13.971  0.00  0.00    +0.000 OA
BRANCH  27  29
ATOM     29  OXT ASP A   2       5.886   2.840  15.767  0.00  0.00    +0.000 OA
ATOM     30  HXT ASP A   2       6.620   2.184  15.657  0.00  0.00    +0.000 HD
ENDBRANCH  27  29
ENDBRANCH  26  27
BRANCH  26  31
ATOM     31  CB  ASP A   2       7.683   4.623  17.003  0.00  0.00    +0.000 C 
BRANCH  31  32
ATOM     32  CG  ASP A   2       7.228   4.641  18.432  0.00  0.00    +0.000 C 
ATOM     33  OD1 ASP A   2       7.690   5.397  19.284  0.00  0.00    +0.000 OA
BRANCH  32  34
ATOM     34  OD2 ASP A   2       6.266   3.740  18.710  0.00  0.00    +0.000 OA
ATOM     35  HD2 ASP A   2       6.006   3.174  17.957  0.00  0.00    +0.000 HD
ENDBRANCH  32  34
ENDBRANCH  31  32
ENDBRANCH  26  31
ENDBRANCH  24  26
ENDBRANCH   2  22
TORSDOF 11
ENDMDL
MODEL 3
REMARK VINA RESULT:      -7.5      1.055      1.507
REMARK  Name = 
REMARK  13 active torsions:
REMARK  status: ('A' for Active; 'I' for Inactive)
REMARK    1  A    between atoms: C_1  and  N_2
REMARK    2  A    between atoms: N_2  and  C_3
REMARK    3  A    between atoms: N_2  and  C_4
REMARK    4  A    between atoms: C_7  and  C_8
REMARK    5  A    between atoms: C_9  and  N_10
REMARK    6  A    between atoms: C_9  and  C_19
REMARK    7  A    between atoms: C_11  and  C_13
REMARK    8  A    between atoms: N_21  and  CA_22
REMARK    9  A    between atoms: CA_22  and  CB_23
REMARK   10  A    between atoms: CA_22  and  C_27
REMARK   11  A    between atoms: CB_23  and  CG_24
REMARK   12  A    between atoms: CG_24  and  OD2_26
REMARK   13  A    between atoms: C_27  and  OXT_29
REMARK                            x       y       z     vdW  Elec       q    Type
REMARK                         _______ _______ _______ _____ _____    ______ ____
ROOT
ATOM      1  C   UNK A   1       3.256   8.236  17.556  0.00  0.00    +0.000 C 
ATOM      2  C   UNK A   1       3.514   6.934  17.331  0.00  0.00    +0.000 C 
ENDROOT
BRANCH   1   6
ATOM      3  C   UNK A   1       0.098   9.828  19.999  0.00  0.00    +0.000 A 
ATOM      4  C   UNK A   1       0.158  10.105  18.623  0.00  0.00    +0.000 A 
ATOM      5  C   UNK A   1       1.171   9.577  17.807  0.00  0.00    +0.000 A 
ATOM      6  C   UNK A   1       2.128   8.724  18.349  0.00  0.00    +0.000 A 
ATOM      7  C   UNK A   1       2.011   8.333  19.683  0.00  0.00    +0.000 A 
ATOM      8  C   UNK A   1       1.004   8.873  20.488  0.00  0.00    +0.000 A 
BRANCH   3  10
ATOM      9  C   UNK A   1      -1.340  11.771  20.496  0.00  0.00    +0.000 C 
ATOM     10  N   UNK A   1      -0.795  10.469  20.878  0.00  0.00    +0.000 N 
ATOM     11  C   UNK A   1      -0.417  10.350  22.293  0.00  0.00    +0.000 C 
ENDBRANCH   3  10
ENDBRANCH   1   6
BRANCH   2  12
ATOM     12  N   UNK A   1       2.899   5.912  18.035  0.00  0.00    +0.000 N 
ATOM     13  C   UNK A   0       3.476   5.326  19.152  0.00  0.00    +0.000 C 
ATOM     14  O   UNK A   0       4.547   5.681  19.628  0.00  0.00    +0.000 OA
ATOM     15  H   UNK A   1       2.274   5.330  17.494  0.00  0.00    +0.000 HD
BRANCH  13  16
ATOM     16  C   UNK A   0       2.663   4.271  19.833  0.00  0.00    +0.000 A 
ATOM     17  C   UNK A   0       1.292   4.082  19.609  0.00  0.00    +0.000 A 
ATOM     18  C   UNK A   0       0.567   3.192  20.410  0.00  0.00    +0.000 A 
ATOM     19  C   UNK A   0       1.213   2.470  21.415  0.00  0.00    +0.000 A 
ATOM     20  C   UNK A   0       2.585   2.616  21.606  0.00  0.00    +0.000 A 
ATOM     21  C   UNK A   0       3.310   3.502  20.810  0.00  0.00    +0.000 A 
ENDBRANCH  13  16
ENDBRANCH   2  12
BRANCH   2  22
ATOM     22  C   UNK A   1       4.632   6.621  16.361  0.00  0.00    +0.000 C 
ATOM     23  O   UNK A   1       4.812   7.273  15.336  0.00  0.00    +0.000 OA
ATOM     24  N   ASP A   2       5.476   5.606  16.731  0.00  0.00    +0.000 N 
ATOM     25  H   ASP A   2       5.214   5.013  17.514  0.00  0.00    +0.000 HD
BRANCH  24  26
ATOM     26  CA  ASP A   2       6.593   5.172  15.884  0.00  0.00    +0.000 C 
BRANCH  26  27
ATOM     27  C   ASP A   2       6.115   3.981  15.039  0.00  0.00    +0.000 C 
ATOM     28  O   ASP A   2       5.544   3.007  15.514  0.00  0.00    +0.000 OA
BRANCH  27  29
ATOM     29  OXT ASP A   2       6.417   4.063  13.724  0.00  0.00    +0.000 OA
ATOM     30  HXT ASP A   2       7.211   3.540  13.444  0.00  0.00    +0.000 HD
ENDBRANCH  27  29
ENDBRANCH  26  27
BRANCH  26  31
ATOM     31  CB  ASP A   2       7.799   4.752  16.727  0.00  0.00    +0.000 C 
BRANCH  31  32
ATOM     32  CG  ASP A   2       7.498   4.945  18.184  0.00  0.00    +0.000 C 
ATOM     33  OD1 ASP A   2       7.964   5.860  18.859  0.00  0.00    +0.000 OA
BRANCH  32  34
ATOM     34  OD2 ASP A   2       6.673   4.014  18.699  0.00  0.00    +0.000 OA
ATOM     35  HD2 ASP A   2       6.729   3.910  19.670  0.00  0.00    +0.000 HD
ENDBRANCH  32  34
ENDBRANCH  31  32
ENDBRANCH  26  31
ENDBRANCH  24  26
ENDBRANCH   2  22
TORSDOF 11
ENDMDL
MODEL 4
REMARK VINA RESULT:      -7.4      1.674      2.971
REMARK  Name = 
REMARK  13 active torsions:
REMARK  status: ('A' for Active; 'I' for Inactive)
REMARK    1  A    between atoms: C_1  and  N_2
REMARK    2  A    between atoms: N_2  and  C_3
REMARK    3  A    between atoms: N_2  and  C_4
REMARK    4  A    between atoms: C_7  and  C_8
REMARK    5  A    between atoms: C_9  and  N_10
REMARK    6  A    between atoms: C_9  and  C_19
REMARK    7  A    between atoms: C_11  and  C_13
REMARK    8  A    between atoms: N_21  and  CA_22
REMARK    9  A    between atoms: CA_22  and  CB_23
REMARK   10  A    between atoms: CA_22  and  C_27
REMARK   11  A    between atoms: CB_23  and  CG_24
REMARK   12  A    between atoms: CG_24  and  OD2_26
REMARK   13  A    between atoms: C_27  and  OXT_29
REMARK                            x       y       z     vdW  Elec       q    Type
REMARK                         _______ _______ _______ _____ _____    ______ ____
ROOT
ATOM      1  C   UNK A   1       3.352   7.794  17.490  0.00  0.00    +0.000 C 
ATOM      2  C   UNK A   1       3.777   6.516  17.495  0.00  0.00    +0.000 C 
ENDROOT
BRANCH   1   6
ATOM      3  C   UNK A   1       0.480   9.461  20.219  0.00  0.00    +0.000 A 
ATOM      4  C   UNK A   1       0.516   9.860  18.873  0.00  0.00    +0.000 A 
ATOM      5  C   UNK A   1       1.434   9.311  17.964  0.00  0.00    +0.000 A 
ATOM      6  C   UNK A   1       2.314   8.317  18.379  0.00  0.00    +0.000 A 
ATOM      7  C   UNK A   1       2.209   7.815  19.675  0.00  0.00    +0.000 A 
ATOM      8  C   UNK A   1       1.298   8.375  20.574  0.00  0.00    +0.000 A 
BRANCH   3  10
ATOM      9  C   UNK A   1      -0.616  11.521  21.021  0.00  0.00    +0.000 C 
ATOM     10  N   UNK A   1      -0.304  10.103  21.195  0.00  0.00    +0.000 N 
ATOM     11  C   UNK A   1       0.027   9.708  22.571  0.00  0.00    +0.000 C 
ENDBRANCH   3  10
ENDBRANCH   1   6
BRANCH   2  12
ATOM     12  N   UNK A   1       3.470   5.624  18.509  0.00  0.00    +0.000 N 
ATOM     13  C   UNK A   0       2.476   4.665  18.380  0.00  0.00    +0.000 C 
ATOM     14  O   UNK A   0       1.817   4.503  17.359  0.00  0.00    +0.000 OA
ATOM     15  H   UNK A   1       3.660   5.952  19.445  0.00  0.00    +0.000 HD
BRANCH  13  16
ATOM     16  C   UNK A   0       2.300   3.741  19.543  0.00  0.00    +0.000 A 
ATOM     17  C   UNK A   0       1.112   3.637  20.278  0.00  0.00    +0.000 A 
ATOM     18  C   UNK A   0       1.081   2.883  21.457  0.00  0.00    +0.000 A 
ATOM     19  C   UNK A   0       2.226   2.209  21.887  0.00  0.00    +0.000 A 
ATOM     20  C   UNK A   0       3.394   2.268  21.131  0.00  0.00    +0.000 A 
ATOM     21  C   UNK A   0       3.428   3.019  19.956  0.00  0.00    +0.000 A 
ENDBRANCH  13  16
ENDBRANCH   2  12
BRANCH   2  22
ATOM     22  C   UNK A   1       4.746   6.118  16.403  0.00  0.00    +0.000 C 
ATOM     23  O   UNK A   1       5.404   6.946  15.777  0.00  0.00    +0.000 OA
ATOM     24  N   ASP A   2       4.897   4.771  16.201  0.00  0.00    +0.000 N 
ATOM     25  H   ASP A   2       4.241   4.134  16.645  0.00  0.00    +0.000 HD
BRANCH  24  26
ATOM     26  CA  ASP A   2       5.782   4.232  15.163  0.00  0.00    +0.000 C 
BRANCH  26  27
ATOM     27  C   ASP A   2       7.219   4.673  15.485  0.00  0.00    +0.000 C 
ATOM     28  O   ASP A   2       7.798   4.368  16.520  0.00  0.00    +0.000 OA
BRANCH  27  29
ATOM     29  OXT ASP A   2       7.787   5.473  14.555  0.00  0.00    +0.000 OA
ATOM     30  HXT ASP A   2       7.173   5.795  13.849  0.00  0.00    +0.000 HD
ENDBRANCH  27  29
ENDBRANCH  26  27
BRANCH  26  31
ATOM     31  CB  ASP A   2       5.388   4.741  13.775  0.00  0.00    +0.000 C 
BRANCH  31  32
ATOM     32  CG  ASP A   2       5.650   3.680  12.747  0.00  0.00    +0.000 C 
ATOM     33  OD1 ASP A   2       6.760   3.197  12.536  0.00  0.00    +0.000 OA
BRANCH  32  34
ATOM     34  OD2 ASP A   2       4.554   3.304  12.060  0.00  0.00    +0.000 OA
ATOM     35  HD2 ASP A   2       3.711   3.416  12.541  0.00  0.00    +0.000 HD
ENDBRANCH  32  34
ENDBRANCH  31  32
ENDBRANCH  26  31
ENDBRANCH  24  26
ENDBRANCH   2  22
TORSDOF 11
ENDMDL
MODEL 5
REMARK VINA RESULT:      -7.2      0.358      1.204
REMARK  Name = 
REMARK  13 active torsions:
REMARK  status: ('A' for Active; 'I' for Inactive)
REMARK    1  A    between atoms: C_1  and  N_2
REMARK    2  A    between atoms: N_2  and  C_3
REMARK    3  A    between atoms: N_2  and  C_4
REMARK    4  A    between atoms: C_7  and  C_8
REMARK    5  A    between atoms: C_9  and  N_10
REMARK    6  A    between atoms: C_9  and  C_19
REMARK    7  A    between atoms: C_11  and  C_13
REMARK    8  A    between atoms: N_21  and  CA_22
REMARK    9  A    between atoms: CA_22  and  CB_23
REMARK   10  A    between atoms: CA_22  and  C_27
REMARK   11  A    between atoms: CB_23  and  CG_24
REMARK   12  A    between atoms: CG_24  and  OD2_26
REMARK   13  A    between atoms: C_27  and  OXT_29
REMARK                            x       y       z     vdW  Elec       q    Type
REMARK                         _______ _______ _______ _____ _____    ______ ____
ROOT
ATOM      1  C   UNK A   1       3.143   8.387  17.656  0.00  0.00    +0.000 C 
ATOM      2  C   UNK A   1       3.554   7.108  17.739  0.00  0.00    +0.000 C 
ENDROOT
BRANCH   1   6
ATOM      3  C   UNK A   1      -0.270  10.105  19.624  0.00  0.00    +0.000 A 
ATOM      4  C   UNK A   1      -0.191  10.058  18.223  0.00  0.00    +0.000 A 
ATOM      5  C   UNK A   1       0.907   9.482  17.564  0.00  0.00    +0.000 A 
ATOM      6  C   UNK A   1       1.936   8.904  18.301  0.00  0.00    +0.000 A 
ATOM      7  C   UNK A   1       1.816   8.825  19.688  0.00  0.00    +0.000 A 
ATOM      8  C   UNK A   1       0.723   9.410  20.334  0.00  0.00    +0.000 A 
BRANCH   3  10
ATOM      9  C   UNK A   1      -1.990  11.875  19.613  0.00  0.00    +0.000 C 
ATOM     10  N   UNK A   1      -1.265  10.819  20.318  0.00  0.00    +0.000 N 
ATOM     11  C   UNK A   1      -0.901  11.141  21.705  0.00  0.00    +0.000 C 
ENDBRANCH   3  10
ENDBRANCH   1   6
BRANCH   2  12
ATOM     12  N   UNK A   1       3.030   6.205  18.649  0.00  0.00    +0.000 N 
ATOM     13  C   UNK A   0       2.673   4.912  18.294  0.00  0.00    +0.000 C 
ATOM     14  O   UNK A   0       2.822   4.452  17.168  0.00  0.00    +0.000 OA
ATOM     15  H   UNK A   1       2.524   6.615  19.422  0.00  0.00    +0.000 HD
BRANCH  13  16
ATOM     16  C   UNK A   0       2.172   4.042  19.402  0.00  0.00    +0.000 A 
ATOM     17  C   UNK A   0       1.086   3.165  19.270  0.00  0.00    +0.000 A 
ATOM     18  C   UNK A   0       0.568   2.517  20.396  0.00  0.00    +0.000 A 
ATOM     19  C   UNK A   0       1.149   2.719  21.650  0.00  0.00    +0.000 A 
ATOM     20  C   UNK A   0       2.260   3.550  21.777  0.00  0.00    +0.000 A 
ATOM     21  C   UNK A   0       2.779   4.198  20.656  0.00  0.00    +0.000 A 
ENDBRANCH  13  16
ENDBRANCH   2  12
BRANCH   2  22
ATOM     22  C   UNK A   1       4.738   6.718  16.882  0.00  0.00    +0.000 C 
ATOM     23  O   UNK A   1       4.910   7.175  15.754  0.00  0.00    +0.000 OA
ATOM     24  N   ASP A   2       5.647   5.875  17.466  0.00  0.00    +0.000 N 
ATOM     25  H   ASP A   2       5.400   5.422  18.342  0.00  0.00    +0.000 HD
BRANCH  24  26
ATOM     26  CA  ASP A   2       6.834   5.391  16.754  0.00  0.00    +0.000 C 
BRANCH  26  27
ATOM     27  C   ASP A   2       6.385   4.313  15.756  0.00  0.00    +0.000 C 
ATOM     28  O   ASP A   2       5.703   3.347  16.074  0.00  0.00    +0.000 OA
BRANCH  27  29
ATOM     29  OXT ASP A   2       6.842   4.482  14.495  0.00  0.00    +0.000 OA
ATOM     30  HXT ASP A   2       6.352   5.154  13.959  0.00  0.00    +0.000 HD
ENDBRANCH  27  29
ENDBRANCH  26  27
BRANCH  26  31
ATOM     31  CB  ASP A   2       7.861   4.799  17.721  0.00  0.00    +0.000 C 
BRANCH  31  32
ATOM     32  CG  ASP A   2       8.112   5.755  18.850  0.00  0.00    +0.000 C 
ATOM     33  OD1 ASP A   2       8.135   6.976  18.715  0.00  0.00    +0.000 OA
BRANCH  32  34
ATOM     34  OD2 ASP A   2       8.322   5.154  20.037  0.00  0.00    +0.000 OA
ATOM     35  HD2 ASP A   2       8.003   4.232  20.091  0.00  0.00    +0.000 HD
ENDBRANCH  32  34
ENDBRANCH  31  32
ENDBRANCH  26  31
ENDBRANCH  24  26
ENDBRANCH   2  22
TORSDOF 11
ENDMDL
MODEL 6
REMARK VINA RESULT:      -7.2      1.253      1.523
REMARK  Name = 
REMARK  13 active torsions:
REMARK  status: ('A' for Active; 'I' for Inactive)
REMARK    1  A    between atoms: C_1  and  N_2
REMARK    2  A    between atoms: N_2  and  C_3
REMARK    3  A    between atoms: N_2  and  C_4
REMARK    4  A    between atoms: C_7  and  C_8
REMARK    5  A    between atoms: C_9  and  N_10
REMARK    6  A    between atoms: C_9  and  C_19
REMARK    7  A    between atoms: C_11  and  C_13
REMARK    8  A    between atoms: N_21  and  CA_22
REMARK    9  A    between atoms: CA_22  and  CB_23
REMARK   10  A    between atoms: CA_22  and  C_27
REMARK   11  A    between atoms: CB_23  and  CG_24
REMARK   12  A    between atoms: CG_24  and  OD2_26
REMARK   13  A    between atoms: C_27  and  OXT_29
REMARK                            x       y       z     vdW  Elec       q    Type
REMARK                         _______ _______ _______ _____ _____    ______ ____
ROOT
ATOM      1  C   UNK A   1       2.952   8.720  17.633  0.00  0.00    +0.000 C 
ATOM      2  C   UNK A   1       3.422   7.474  17.832  0.00  0.00    +0.000 C 
ENDROOT
BRANCH   1   6
ATOM      3  C   UNK A   1      -0.840  10.307  18.892  0.00  0.00    +0.000 A 
ATOM      4  C   UNK A   1      -0.715   9.605  17.681  0.00  0.00    +0.000 A 
ATOM      5  C   UNK A   1       0.512   9.063  17.265  0.00  0.00    +0.000 A 
ATOM      6  C   UNK A   1       1.636   9.180  18.077  0.00  0.00    +0.000 A 
ATOM      7  C   UNK A   1       1.504   9.758  19.339  0.00  0.00    +0.000 A 
ATOM      8  C   UNK A   1       0.281  10.303  19.739  0.00  0.00    +0.000 A 
BRANCH   3  10
ATOM      9  C   UNK A   1      -2.992  11.317  18.231  0.00  0.00    +0.000 C 
ATOM     10  N   UNK A   1      -2.003  11.006  19.262  0.00  0.00    +0.000 N 
ATOM     11  C   UNK A   1      -1.759  12.087  20.228  0.00  0.00    +0.000 C 
ENDBRANCH   3  10
ENDBRANCH   1   6
BRANCH   2  12
ATOM     12  N   UNK A   1       2.827   6.574  18.700  0.00  0.00    +0.000 N 
ATOM     13  C   UNK A   0       2.805   5.208  18.455  0.00  0.00    +0.000 C 
ATOM     14  O   UNK A   0       3.334   4.685  17.481  0.00  0.00    +0.000 OA
ATOM     15  H   UNK A   1       2.067   6.944  19.252  0.00  0.00    +0.000 HD
BRANCH  13  16
ATOM     16  C   UNK A   0       2.172   4.362  19.512  0.00  0.00    +0.000 A 
ATOM     17  C   UNK A   0       2.517   4.429  20.869  0.00  0.00    +0.000 A 
ATOM     18  C   UNK A   0       2.006   3.486  21.770  0.00  0.00    +0.000 A 
ATOM     19  C   UNK A   0       1.130   2.494  21.323  0.00  0.00    +0.000 A 
ATOM     20  C   UNK A   0       0.744   2.457  19.985  0.00  0.00    +0.000 A 
ATOM     21  C   UNK A   0       1.251   3.394  19.086  0.00  0.00    +0.000 A 
ENDBRANCH  13  16
ENDBRANCH   2  12
BRANCH   2  22
ATOM     22  C   UNK A   1       4.739   7.132  17.170  0.00  0.00    +0.000 C 
ATOM     23  O   UNK A   1       4.921   7.270  15.963  0.00  0.00    +0.000 OA
ATOM     24  N   ASP A   2       5.741   6.724  18.011  0.00  0.00    +0.000 N 
ATOM     25  H   ASP A   2       5.510   6.499  18.975  0.00  0.00    +0.000 HD
BRANCH  24  26
ATOM     26  CA  ASP A   2       7.066   6.336  17.515  0.00  0.00    +0.000 C 
BRANCH  26  27
ATOM     27  C   ASP A   2       7.163   4.803  17.559  0.00  0.00    +0.000 C 
ATOM     28  O   ASP A   2       7.967   4.162  16.893  0.00  0.00    +0.000 OA
BRANCH  27  29
ATOM     29  OXT ASP A   2       6.255   4.201  18.358  0.00  0.00    +0.000 OA
ATOM     30  HXT ASP A   2       5.876   3.358  18.000  0.00  0.00    +0.000 HD
ENDBRANCH  27  29
ENDBRANCH  26  27
BRANCH  26  31
ATOM     31  CB  ASP A   2       8.180   6.944  18.370  0.00  0.00    +0.000 C 
BRANCH  31  32
ATOM     32  CG  ASP A   2       8.238   8.428  18.155  0.00  0.00    +0.000 C 
ATOM     33  OD1 ASP A   2       8.893   9.192  18.861  0.00  0.00    +0.000 OA
BRANCH  32  34
ATOM     34  OD2 ASP A   2       7.495   8.859  17.119  0.00  0.00    +0.000 OA
ATOM     35  HD2 ASP A   2       6.531   8.872  17.284  0.00  0.00    +0.000 HD
ENDBRANCH  32  34
ENDBRANCH  31  32
ENDBRANCH  26  31
ENDBRANCH  24  26
ENDBRANCH   2  22
TORSDOF 11
ENDMDL
MODEL 7
REMARK VINA RESULT:      -7.1      5.014      9.663
REMARK  Name = 
REMARK  13 active torsions:
REMARK  status: ('A' for Active; 'I' for Inactive)
REMARK    1  A    between atoms: C_1  and  N_2
REMARK    2  A    between atoms: N_2  and  C_3
REMARK    3  A    between atoms: N_2  and  C_4
REMARK    4  A    between atoms: C_7  and  C_8
REMARK    5  A    between atoms: C_9  and  N_10
REMARK    6  A    between atoms: C_9  and  C_19
REMARK    7  A    between atoms: C_11  and  C_13
REMARK    8  A    between atoms: N_21  and  CA_22
REMARK    9  A    between atoms: CA_22  and  CB_23
REMARK   10  A    between atoms: CA_22  and  C_27
REMARK   11  A    between atoms: CB_23  and  CG_24
REMARK   12  A    between atoms: CG_24  and  OD2_26
REMARK   13  A    between atoms: C_27  and  OXT_29
REMARK                            x       y       z     vdW  Elec       q    Type
REMARK                         _______ _______ _______ _____ _____    ______ ____
ROOT
ATOM      1  C   UNK A   1       0.876   9.403  21.418  0.00  0.00    +0.000 C 
ATOM      2  C   UNK A   1      -0.340   9.970  21.299  0.00  0.00    +0.000 C 
ENDROOT
BRANCH   1   6
ATOM      3  C   UNK A   1       2.669   6.551  18.749  0.00  0.00    +0.000 A 
ATOM      4  C   UNK A   1       2.128   6.149  19.981  0.00  0.00    +0.000 A 
ATOM      5  C   UNK A   1       1.521   7.064  20.856  0.00  0.00    +0.000 A 
ATOM      6  C   UNK A   1       1.408   8.402  20.494  0.00  0.00    +0.000 A 
ATOM      7  C   UNK A   1       1.821   8.799  19.222  0.00  0.00    +0.000 A 
ATOM      8  C   UNK A   1       2.433   7.881  18.364  0.00  0.00    +0.000 A 
BRANCH   3  10
ATOM      9  C   UNK A   1       4.329   6.302  16.940  0.00  0.00    +0.000 C 
ATOM     10  N   UNK A   1       3.431   5.702  17.926  0.00  0.00    +0.000 N 
ATOM     11  C   UNK A   1       2.693   4.523  17.451  0.00  0.00    +0.000 C 
ENDBRANCH   3  10
ENDBRANCH   1   6
BRANCH   2  12
ATOM     12  N   UNK A   1      -1.111   9.865  20.154  0.00  0.00    +0.000 N 
ATOM     13  C   UNK A   0      -1.121  10.844  19.171  0.00  0.00    +0.000 C 
ATOM     14  O   UNK A   0      -0.430  11.856  19.213  0.00  0.00    +0.000 OA
ATOM     15  H   UNK A   1      -1.954   9.315  20.249  0.00  0.00    +0.000 HD
BRANCH  13  16
ATOM     16  C   UNK A   0      -1.965  10.560  17.970  0.00  0.00    +0.000 A 
ATOM     17  C   UNK A   0      -1.570   9.713  16.926  0.00  0.00    +0.000 A 
ATOM     18  C   UNK A   0      -2.337   9.634  15.758  0.00  0.00    +0.000 A 
ATOM     19  C   UNK A   0      -3.513  10.378  15.642  0.00  0.00    +0.000 A 
ATOM     20  C   UNK A   0      -3.937  11.181  16.698  0.00  0.00    +0.000 A 
ATOM     21  C   UNK A   0      -3.174  11.262  17.863  0.00  0.00    +0.000 A 
ENDBRANCH  13  16
ENDBRANCH   2  12
BRANCH   2  22
ATOM     22  C   UNK A   1      -0.784  10.869  22.432  0.00  0.00    +0.000 C 
ATOM     23  O   UNK A   1      -0.329  10.764  23.569  0.00  0.00    +0.000 OA
ATOM     24  N   ASP A   2      -1.676  11.854  22.098  0.00  0.00    +0.000 N 
ATOM     25  H   ASP A   2      -2.122  11.821  21.185  0.00  0.00    +0.000 HD
BRANCH  24  26
ATOM     26  CA  ASP A   2      -2.215  12.789  23.092  0.00  0.00    +0.000 C 
BRANCH  26  27
ATOM     27  C   ASP A   2      -3.674  12.396  23.374  0.00  0.00    +0.000 C 
ATOM     28  O   ASP A   2      -4.061  11.992  24.463  0.00  0.00    +0.000 OA
BRANCH  27  29
ATOM     29  OXT ASP A   2      -4.500  12.484  22.308  0.00  0.00    +0.000 OA
ATOM     30  HXT ASP A   2      -5.466  12.428  22.522  0.00  0.00    +0.000 HD
ENDBRANCH  27  29
ENDBRANCH  26  27
BRANCH  26  31
ATOM     31  CB  ASP A   2      -2.161  14.232  22.586  0.00  0.00    +0.000 C 
BRANCH  31  32
ATOM     32  CG  ASP A   2      -1.658  14.261  21.173  0.00  0.00    +0.000 C 
ATOM     33  OD1 ASP A   2      -0.517  14.598  20.864  0.00  0.00    +0.000 OA
BRANCH  32  34
ATOM     34  OD2 ASP A   2      -2.575  13.891  20.259  0.00  0.00    +0.000 OA
ATOM     35  HD2 ASP A   2      -2.315  13.129  19.704  0.00  0.00    +0.000 HD
ENDBRANCH  32  34
ENDBRANCH  31  32
ENDBRANCH  26  31
ENDBRANCH  24  26
ENDBRANCH   2  22
TORSDOF 11
ENDMDL
MODEL 8
REMARK VINA RESULT:      -7.1      1.686      3.083
REMARK  Name = 
REMARK  13 active torsions:
REMARK  status: ('A' for Active; 'I' for Inactive)
REMARK    1  A    between atoms: C_1  and  N_2
REMARK    2  A    between atoms: N_2  and  C_3
REMARK    3  A    between atoms: N_2  and  C_4
REMARK    4  A    between atoms: C_7  and  C_8
REMARK    5  A    between atoms: C_9  and  N_10
REMARK    6  A    between atoms: C_9  and  C_19
REMARK    7  A    between atoms: C_11  and  C_13
REMARK    8  A    between atoms: N_21  and  CA_22
REMARK    9  A    between atoms: CA_22  and  CB_23
REMARK   10  A    between atoms: CA_22  and  C_27
REMARK   11  A    between atoms: CB_23  and  CG_24
REMARK   12  A    between atoms: CG_24  and  OD2_26
REMARK   13  A    between atoms: C_27  and  OXT_29
REMARK                            x       y       z     vdW  Elec       q    Type
REMARK                         _______ _______ _______ _____ _____    ______ ____
ROOT
ATOM      1  C   UNK A   1       3.613   7.842  17.386  0.00  0.00    +0.000 C 
ATOM      2  C   UNK A   1       3.745   6.516  17.194  0.00  0.00    +0.000 C 
ENDROOT
BRANCH   1   6
ATOM      3  C   UNK A   1       0.709   9.729  19.931  0.00  0.00    +0.000 A 
ATOM      4  C   UNK A   1       0.950  10.204  18.631  0.00  0.00    +0.000 A 
ATOM      5  C   UNK A   1       1.880   9.587  17.780  0.00  0.00    +0.000 A 
ATOM      6  C   UNK A   1       2.564   8.452  18.202  0.00  0.00    +0.000 A 
ATOM      7  C   UNK A   1       2.246   7.888  19.438  0.00  0.00    +0.000 A 
ATOM      8  C   UNK A   1       1.325   8.516  20.280  0.00  0.00    +0.000 A 
BRANCH   3  10
ATOM      9  C   UNK A   1      -0.532   9.700  22.064  0.00  0.00    +0.000 C 
ATOM     10  N   UNK A   1      -0.084  10.415  20.870  0.00  0.00    +0.000 N 
ATOM     11  C   UNK A   1      -1.095  11.290  20.259  0.00  0.00    +0.000 C 
ENDBRANCH   3  10
ENDBRANCH   1   6
BRANCH   2  12
ATOM     12  N   UNK A   1       3.069   5.573  17.950  0.00  0.00    +0.000 N 
ATOM     13  C   UNK A   0       3.679   4.867  18.977  0.00  0.00    +0.000 C 
ATOM     14  O   UNK A   0       4.842   5.038  19.322  0.00  0.00    +0.000 OA
ATOM     15  H   UNK A   1       2.301   5.113  17.482  0.00  0.00    +0.000 HD
BRANCH  13  16
ATOM     16  C   UNK A   0       2.801   3.923  19.735  0.00  0.00    +0.000 A 
ATOM     17  C   UNK A   0       1.480   3.629  19.370  0.00  0.00    +0.000 A 
ATOM     18  C   UNK A   0       0.668   2.875  20.225  0.00  0.00    +0.000 A 
ATOM     19  C   UNK A   0       1.181   2.389  21.430  0.00  0.00    +0.000 A 
ATOM     20  C   UNK A   0       2.509   2.635  21.771  0.00  0.00    +0.000 A 
ATOM     21  C   UNK A   0       3.320   3.386  20.922  0.00  0.00    +0.000 A 
ENDBRANCH  13  16
ENDBRANCH   2  12
BRANCH   2  22
ATOM     22  C   UNK A   1       4.793   6.075  16.195  0.00  0.00    +0.000 C 
ATOM     23  O   UNK A   1       5.528   6.875  15.620  0.00  0.00    +0.000 OA
ATOM     24  N   ASP A   2       4.921   4.722  16.022  0.00  0.00    +0.000 N 
ATOM     25  H   ASP A   2       4.211   4.109  16.414  0.00  0.00    +0.000 HD
BRANCH  24  26
ATOM     26  CA  ASP A   2       5.878   4.143  15.072  0.00  0.00    +0.000 C 
BRANCH  26  27
ATOM     27  C   ASP A   2       7.281   4.654  15.436  0.00  0.00    +0.000 C 
ATOM     28  O   ASP A   2       7.849   4.366  16.482  0.00  0.00    +0.000 OA
BRANCH  27  29
ATOM     29  OXT ASP A   2       7.830   5.494  14.531  0.00  0.00    +0.000 OA
ATOM     30  HXT ASP A   2       8.449   6.169  14.908  0.00  0.00    +0.000 HD
ENDBRANCH  27  29
ENDBRANCH  26  27
BRANCH  26  31
ATOM     31  CB  ASP A   2       5.544   4.543  13.633  0.00  0.00    +0.000 C 
BRANCH  31  32
ATOM     32  CG  ASP A   2       6.302   3.675  12.672  0.00  0.00    +0.000 C 
ATOM     33  OD1 ASP A   2       7.228   4.082  11.973  0.00  0.00    +0.000 OA
BRANCH  32  34
ATOM     34  OD2 ASP A   2       5.872   2.400  12.631  0.00  0.00    +0.000 OA
ATOM     35  HD2 ASP A   2       4.911   2.288  12.776  0.00  0.00    +0.000 HD
ENDBRANCH  32  34
ENDBRANCH  31  32
ENDBRANCH  26  31
ENDBRANCH  24  26
ENDBRANCH   2  22
TORSDOF 11
ENDMDL
MODEL 9
REMARK VINA RESULT:      -7.0      5.347     10.036
REMARK  Name = 
REMARK  13 active torsions:
REMARK  status: ('A' for Active; 'I' for Inactive)
REMARK    1  A    between atoms: C_1  and  N_2
REMARK    2  A    between atoms: N_2  and  C_3
REMARK    3  A    between atoms: N_2  and  C_4
REMARK    4  A    between atoms: C_7  and  C_8
REMARK    5  A    between atoms: C_9  and  N_10
REMARK    6  A    between atoms: C_9  and  C_19
REMARK    7  A    between atoms: C_11  and  C_13
REMARK    8  A    between atoms: N_21  and  CA_22
REMARK    9  A    between atoms: CA_22  and  CB_23
REMARK   10  A    between atoms: CA_22  and  C_27
REMARK   11  A    between atoms: CB_23  and  CG_24
REMARK   12  A    between atoms: CG_24  and  OD2_26
REMARK   13  A    between atoms: C_27  and  OXT_29
REMARK                            x       y       z     vdW  Elec       q    Type
REMARK                         _______ _______ _______ _____ _____    ______ ____
ROOT
ATOM      1  C   UNK A   1       0.706  10.409  21.197  0.00  0.00    +0.000 C 
ATOM      2  C   UNK A   1      -0.545  10.885  21.055  0.00  0.00    +0.000 C 
ENDROOT
BRANCH   1   6
ATOM      3  C   UNK A   1       2.144   7.148  18.794  0.00  0.00    +0.000 A 
ATOM      4  C   UNK A   1       2.001   8.437  18.254  0.00  0.00    +0.000 A 
ATOM      5  C   UNK A   1       1.552   9.517  19.030  0.00  0.00    +0.000 A 
ATOM      6  C   UNK A   1       1.273   9.335  20.381  0.00  0.00    +0.000 A 
ATOM      7  C   UNK A   1       1.531   8.096  20.966  0.00  0.00    +0.000 A 
ATOM      8  C   UNK A   1       1.969   7.026  20.182  0.00  0.00    +0.000 A 
BRANCH   3  10
ATOM      9  C   UNK A   1       1.815   4.736  18.387  0.00  0.00    +0.000 C 
ATOM     10  N   UNK A   1       2.426   6.011  18.014  0.00  0.00    +0.000 N 
ATOM     11  C   UNK A   1       3.830   5.921  17.590  0.00  0.00    +0.000 C 
ENDBRANCH   3  10
ENDBRANCH   1   6
BRANCH   2  12
ATOM     12  N   UNK A   1      -1.342  10.596  19.960  0.00  0.00    +0.000 N 
ATOM     13  C   UNK A   0      -1.483  11.469  18.891  0.00  0.00    +0.000 C 
ATOM     14  O   UNK A   0      -0.894  12.540  18.808  0.00  0.00    +0.000 OA
ATOM     15  H   UNK A   1      -2.122   9.980  20.144  0.00  0.00    +0.000 HD
BRANCH  13  16
ATOM     16  C   UNK A   0      -2.336  10.990  17.761  0.00  0.00    +0.000 A 
ATOM     17  C   UNK A   0      -1.923  10.026  16.830  0.00  0.00    +0.000 A 
ATOM     18  C   UNK A   0      -2.707   9.758  15.702  0.00  0.00    +0.000 A 
ATOM     19  C   UNK A   0      -3.917  10.430  15.516  0.00  0.00    +0.000 A 
ATOM     20  C   UNK A   0      -4.356  11.350  16.465  0.00  0.00    +0.000 A 
ATOM     21  C   UNK A   0      -3.577  11.619  17.590  0.00  0.00    +0.000 A 
ENDBRANCH  13  16
ENDBRANCH   2  12
BRANCH   2  22
ATOM     22  C   UNK A   1      -1.011  11.888  22.088  0.00  0.00    +0.000 C 
ATOM     23  O   UNK A   1      -0.227  12.501  22.807  0.00  0.00    +0.000 OA
ATOM     24  N   ASP A   2      -2.361  12.124  22.124  0.00  0.00    +0.000 N 
ATOM     25  H   ASP A   2      -2.980  11.505  21.607  0.00  0.00    +0.000 HD
BRANCH  24  26
ATOM     26  CA  ASP A   2      -2.966  13.053  23.085  0.00  0.00    +0.000 C 
BRANCH  26  27
ATOM     27  C   ASP A   2      -4.220  12.385  23.669  0.00  0.00    +0.000 C 
ATOM     28  O   ASP A   2      -4.261  11.902  24.794  0.00  0.00    +0.000 OA
BRANCH  27  29
ATOM     29  OXT ASP A   2      -5.275  12.325  22.826  0.00  0.00    +0.000 OA
ATOM     30  HXT ASP A   2      -5.871  13.116  22.846  0.00  0.00    +0.000 HD
ENDBRANCH  27  29
ENDBRANCH  26  27
BRANCH  26  31
ATOM     31  CB  ASP A   2      -3.353  14.374  22.415  0.00  0.00    +0.000 C 
BRANCH  31  32
ATOM     32  CG  ASP A   2      -3.429  14.190  20.928  0.00  0.00    +0.000 C 
ATOM     33  OD1 ASP A   2      -4.373  13.648  20.358  0.00  0.00    +0.000 OA
BRANCH  32  34
ATOM     34  OD2 ASP A   2      -2.360  14.667  20.263  0.00  0.00    +0.000 OA
ATOM     35  HD2 ASP A   2      -2.014  15.517  20.601  0.00  0.00    +0.000 HD
ENDBRANCH  32  34
ENDBRANCH  31  32
ENDBRANCH  26  31
ENDBRANCH  24  26
ENDBRANCH   2  22
TORSDOF 11
ENDMDL
