MODEL 1
REMARK VINA RESULT:      -8.2      0.000      0.000
REMARK  Name = 
REMARK  8 active torsions:
REMARK  status: ('A' for Active; 'I' for Inactive)
REMARK    1  A    between atoms: C_1  and  O_2
REMARK    2  A    between atoms: O_2  and  C_3
REMARK    3  A    between atoms: C_7  and  C_8
REMARK    4  A    between atoms: C_11  and  C_12
REMARK    5  A    between atoms: C_12  and  O_13
REMARK    6  A    between atoms: C_12  and  C_14
REMARK    7  A    between atoms: C_15  and  C_16
REMARK    8  A    between atoms: C_20  and  C_21
REMARK                            x       y       z     vdW  Elec       q    Type
REMARK                         _______ _______ _______ _____ _____    ______ ____
ROOT
ATOM      1  C   UNL     1       6.627   4.579  16.224  0.00  0.00    +0.000 A 
ATOM      2  C   UNL     1       7.656   4.564  17.141  0.00  0.00    +0.000 A 
ATOM      3  N   UNL     1       7.051   4.637  18.364  0.00  0.00    +0.000 N 
ATOM      4  C   UNL     1       5.692   4.654  18.163  0.00  0.00    +0.000 A 
ATOM      5  N   UNL     1       5.419   4.675  16.870  0.00  0.00    +0.000 NA
ATOM      6  H   UNL     1       7.517   4.655  19.260  0.00  0.00    +0.000 HD
ENDROOT
BRANCH   1  11
ATOM      7  C   UNL     1       6.096   3.505  12.656  0.00  0.00    +0.000 A 
ATOM      8  C   UNL     1       7.018   4.324  11.998  0.00  0.00    +0.000 A 
ATOM      9  C   UNL     1       7.815   5.211  12.722  0.00  0.00    +0.000 A 
ATOM     10  C   UNL     1       7.693   5.285  14.110  0.00  0.00    +0.000 A 
ATOM     11  C   UNL     1       6.768   4.477  14.783  0.00  0.00    +0.000 A 
ATOM     12  C   UNL     1       5.978   3.585  14.044  0.00  0.00    +0.000 A 
BRANCH   7  14
ATOM     13  C   UNL     1       4.164   3.207  11.313  0.00  0.00    +0.000 C 
ATOM     14  O   UNL     1       5.371   2.673  11.844  0.00  0.00    +0.000 OA
ENDBRANCH   7  14
ENDBRANCH   1  11
BRANCH   4  15
ATOM     15  C   UNL     1       4.710   4.684  19.301  0.00  0.00    +0.000 C 
BRANCH  15  16
ATOM     16  C   UNL     1       3.444   3.872  19.008  0.00  0.00    +0.000 A 
ATOM     17  C   UNL     1       2.314   4.501  18.407  0.00  0.00    +0.000 A 
ATOM     18  C   UNL     1       2.278   5.922  17.901  0.00  0.00    +0.000 C 
ATOM     19  C   UNL     1       1.102   3.793  18.280  0.00  0.00    +0.000 A 
ATOM     20  C   UNL     1       0.994   2.472  18.686  0.00  0.00    +0.000 A 
ATOM     21  C   UNL     1       2.095   1.832  19.224  0.00  0.00    +0.000 A 
ATOM     22  C   UNL     1       3.317   2.511  19.410  0.00  0.00    +0.000 A 
ATOM     23  C   UNL     1       4.442   1.706  20.012  0.00  0.00    +0.000 C 
ENDBRANCH  15  16
BRANCH  15  24
ATOM     24  O   UNL     1       4.459   6.055  19.614  0.00  0.00    +0.000 OA
ATOM     25  H   UNL     1       4.599   6.135  20.576  0.00  0.00    +0.000 HD
ENDBRANCH  15  24
ENDBRANCH   4  15
TORSDOF 5
ENDMDL
MODEL 2
REMARK VINA RESULT:      -8.1      3.340      7.517
REMARK  Name = 
REMARK  8 active torsions:
REMARK  status: ('A' for Active; 'I' for Inactive)
REMARK    1  A    between atoms: C_1  and  O_2
REMARK    2  A    between atoms: O_2  and  C_3
REMARK    3  A    between atoms: C_7  and  C_8
REMARK    4  A    between atoms: C_11  and  C_12
REMARK    5  A    between atoms: C_12  and  O_13
REMARK    6  A    between atoms: C_12  and  C_14
REMARK    7  A    between atoms: C_15  and  C_16
REMARK    8  A    between atoms: C_20  and  C_21
REMARK                            x       y       z     vdW  Elec       q    Type
REMARK                         _______ _______ _______ _____ _____    ______ ____
ROOT
ATOM      1  C   UNL     1       2.426   6.517  19.856  0.00  0.00    +0.000 A 
ATOM      2  C   UNL     1       1.942   5.422  20.539  0.00  0.00    +0.000 A 
ATOM      3  N   UNL     1       2.877   4.441  20.357  0.00  0.00    +0.000 N 
ATOM      4  C   UNL     1       3.905   4.970  19.615  0.00  0.00    +0.000 A 
ATOM      5  N   UNL     1       3.623   6.210  19.256  0.00  0.00    +0.000 NA
ATOM      6  H   UNL     1       2.832   3.499  20.720  0.00  0.00    +0.000 HD
ENDROOT
BRANCH   1  11
ATOM      7  C   UNL     1       0.560   9.631  20.850  0.00  0.00    +0.000 A 
ATOM      8  C   UNL     1       0.636  10.369  19.665  0.00  0.00    +0.000 A 
ATOM      9  C   UNL     1       1.283   9.843  18.547  0.00  0.00    +0.000 A 
ATOM     10  C   UNL     1       1.860   8.573  18.608  0.00  0.00    +0.000 A 
ATOM     11  C   UNL     1       1.800   7.825  19.790  0.00  0.00    +0.000 A 
ATOM     12  C   UNL     1       1.140   8.363  20.905  0.00  0.00    +0.000 A 
BRANCH   7  14
ATOM     13  C   UNL     1      -0.090   9.570  23.130  0.00  0.00    +0.000 C 
ATOM     14  O   UNL     1      -0.101  10.247  21.879  0.00  0.00    +0.000 OA
ENDBRANCH   7  14
ENDBRANCH   1  11
BRANCH   4  15
ATOM     15  C   UNL     1       5.134   4.178  19.262  0.00  0.00    +0.000 C 
BRANCH  15  16
ATOM     16  C   UNL     1       5.600   4.423  17.823  0.00  0.00    +0.000 A 
ATOM     17  C   UNL     1       4.798   3.986  16.728  0.00  0.00    +0.000 A 
ATOM     18  C   UNL     1       3.420   3.384  16.846  0.00  0.00    +0.000 C 
ATOM     19  C   UNL     1       5.298   4.075  15.413  0.00  0.00    +0.000 A 
ATOM     20  C   UNL     1       6.544   4.624  15.152  0.00  0.00    +0.000 A 
ATOM     21  C   UNL     1       7.313   5.099  16.199  0.00  0.00    +0.000 A 
ATOM     22  C   UNL     1       6.873   4.995  17.535  0.00  0.00    +0.000 A 
ATOM     23  C   UNL     1       7.804   5.543  18.588  0.00  0.00    +0.000 C 
ENDBRANCH  15  16
BRANCH  15  24
ATOM     24  O   UNL     1       4.859   2.807  19.557  0.00  0.00    +0.000 OA
ATOM     25  H   UNL     1       5.030   2.321  18.728  0.00  0.00    +0.000 HD
ENDBRANCH  15  24
ENDBRANCH   4  15
TORSDOF 5
ENDMDL
MODEL 3
REMARK VINA RESULT:      -8.1      0.162      1.839
REMARK  Name = 
REMARK  8 active torsions:
REMARK  status: ('A' for Active; 'I' for Inactive)
REMARK    1  A    between atoms: C_1  and  O_2
REMARK    2  A    between atoms: O_2  and  C_3
REMARK    3  A    between atoms: C_7  and  C_8
REMARK    4  A    between atoms: C_11  and  C_12
REMARK    5  A    between atoms: C_12  and  O_13
REMARK    6  A    between atoms: C_12  and  C_14
REMARK    7  A    between atoms: C_15  and  C_16
REMARK    8  A    between atoms: C_20  and  C_21
REMARK                            x       y       z     vdW  Elec       q    Type
REMARK                         _______ _______ _______ _____ _____    ______ ____
ROOT
ATOM      1  C   UNL     1       6.656   4.573  16.250  0.00  0.00    +0.000 A 
ATOM      2  C   UNL     1       7.670   4.393  17.166  0.00  0.00    +0.000 A 
ATOM      3  N   UNL     1       7.075   4.513  18.391  0.00  0.00    +0.000 N 
ATOM      4  C   UNL     1       5.732   4.720  18.190  0.00  0.00    +0.000 A 
ATOM      5  N   UNL     1       5.469   4.815  16.898  0.00  0.00    +0.000 NA
ATOM      6  H   UNL     1       7.535   4.443  19.288  0.00  0.00    +0.000 HD
ENDROOT
BRANCH   1  11
ATOM      7  C   UNL     1       6.122   3.534  12.673  0.00  0.00    +0.000 A 
ATOM      8  C   UNL     1       7.020   4.383  12.019  0.00  0.00    +0.000 A 
ATOM      9  C   UNL     1       7.801   5.280  12.748  0.00  0.00    +0.000 A 
ATOM     10  C   UNL     1       7.688   5.332  14.138  0.00  0.00    +0.000 A 
ATOM     11  C   UNL     1       6.788   4.494  14.807  0.00  0.00    +0.000 A 
ATOM     12  C   UNL     1       6.014   3.593  14.063  0.00  0.00    +0.000 A 
BRANCH   7  14
ATOM     13  C   UNL     1       4.174   3.197  11.363  0.00  0.00    +0.000 C 
ATOM     14  O   UNL     1       5.411   2.696  11.855  0.00  0.00    +0.000 OA
ENDBRANCH   7  14
ENDBRANCH   1  11
BRANCH   4  15
ATOM     15  C   UNL     1       4.757   4.851  19.329  0.00  0.00    +0.000 C 
BRANCH  15  16
ATOM     16  C   UNL     1       3.472   4.050  19.098  0.00  0.00    +0.000 A 
ATOM     17  C   UNL     1       3.402   2.681  19.495  0.00  0.00    +0.000 A 
ATOM     18  C   UNL     1       4.473   1.943  20.260  0.00  0.00    +0.000 C 
ATOM     19  C   UNL     1       2.279   1.906  19.145  0.00  0.00    +0.000 A 
ATOM     20  C   UNL     1       1.209   2.458  18.457  0.00  0.00    +0.000 A 
ATOM     21  C   UNL     1       1.239   3.796  18.109  0.00  0.00    +0.000 A 
ATOM     22  C   UNL     1       2.359   4.602  18.401  0.00  0.00    +0.000 A 
ATOM     23  C   UNL     1       2.274   6.043  17.965  0.00  0.00    +0.000 C 
ENDBRANCH  15  16
BRANCH  15  24
ATOM     24  O   UNL     1       4.539   6.246  19.546  0.00  0.00    +0.000 OA
ATOM     25  H   UNL     1       3.743   6.303  20.107  0.00  0.00    +0.000 HD
ENDBRANCH  15  24
ENDBRANCH   4  15
TORSDOF 5
ENDMDL
MODEL 4
REMARK VINA RESULT:      -8.1      1.283      1.458
REMARK  Name = 
REMARK  8 active torsions:
REMARK  status: ('A' for Active; 'I' for Inactive)
REMARK    1  A    between atoms: C_1  and  O_2
REMARK    2  A    between atoms: O_2  and  C_3
REMARK    3  A    between atoms: C_7  and  C_8
REMARK    4  A    between atoms: C_11  and  C_12
REMARK    5  A    between atoms: C_12  and  O_13
REMARK    6  A    between atoms: C_12  and  C_14
REMARK    7  A    between atoms: C_15  and  C_16
REMARK    8  A    between atoms: C_20  and  C_21
REMARK                            x       y       z     vdW  Elec       q    Type
REMARK                         _______ _______ _______ _____ _____    ______ ____
ROOT
ATOM      1  C   UNL     1       5.543   4.951  15.588  0.00  0.00    +0.000 A 
ATOM      2  C   UNL     1       5.159   6.221  15.960  0.00  0.00    +0.000 A 
ATOM      3  N   UNL     1       4.779   6.115  17.268  0.00  0.00    +0.000 N 
ATOM      4  C   UNL     1       4.976   4.814  17.661  0.00  0.00    +0.000 A 
ATOM      5  N   UNL     1       5.386   4.082  16.640  0.00  0.00    +0.000 NA
ATOM      6  H   UNL     1       4.432   6.864  17.852  0.00  0.00    +0.000 HD
ENDROOT
BRANCH   1  11
ATOM      7  C   UNL     1       5.929   3.222  12.267  0.00  0.00    +0.000 A 
ATOM      8  C   UNL     1       7.069   3.862  11.772  0.00  0.00    +0.000 A 
ATOM      9  C   UNL     1       7.712   4.843  12.528  0.00  0.00    +0.000 A 
ATOM     10  C   UNL     1       7.216   5.190  13.786  0.00  0.00    +0.000 A 
ATOM     11  C   UNL     1       6.070   4.565  14.292  0.00  0.00    +0.000 A 
ATOM     12  C   UNL     1       5.438   3.576  13.525  0.00  0.00    +0.000 A 
BRANCH   7  14
ATOM     13  C   UNL     1       6.214   1.163  11.126  0.00  0.00    +0.000 C 
ATOM     14  O   UNL     1       5.386   2.277  11.438  0.00  0.00    +0.000 OA
ENDBRANCH   7  14
ENDBRANCH   1  11
BRANCH   4  15
ATOM     15  C   UNL     1       4.704   4.346  19.065  0.00  0.00    +0.000 C 
BRANCH  15  16
ATOM     16  C   UNL     1       3.261   3.866  19.256  0.00  0.00    +0.000 A 
ATOM     17  C   UNL     1       2.265   4.768  19.735  0.00  0.00    +0.000 A 
ATOM     18  C   UNL     1       2.471   6.244  19.971  0.00  0.00    +0.000 C 
ATOM     19  C   UNL     1       0.980   4.288  20.055  0.00  0.00    +0.000 A 
ATOM     20  C   UNL     1       0.642   2.956  19.871  0.00  0.00    +0.000 A 
ATOM     21  C   UNL     1       1.581   2.079  19.360  0.00  0.00    +0.000 A 
ATOM     22  C   UNL     1       2.893   2.503  19.063  0.00  0.00    +0.000 A 
ATOM     23  C   UNL     1       3.826   1.452  18.518  0.00  0.00    +0.000 C 
ENDBRANCH  15  16
BRANCH  15  24
ATOM     24  O   UNL     1       5.086   5.401  19.949  0.00  0.00    +0.000 OA
ATOM     25  H   UNL     1       5.853   5.832  19.527  0.00  0.00    +0.000 HD
ENDBRANCH  15  24
ENDBRANCH   4  15
TORSDOF 5
ENDMDL
MODEL 5
REMARK VINA RESULT:      -8.1      3.341      7.539
REMARK  Name = 
REMARK  8 active torsions:
REMARK  status: ('A' for Active; 'I' for Inactive)
REMARK    1  A    between atoms: C_1  and  O_2
REMARK    2  A    between atoms: O_2  and  C_3
REMARK    3  A    between atoms: C_7  and  C_8
REMARK    4  A    between atoms: C_11  and  C_12
REMARK    5  A    between atoms: C_12  and  O_13
REMARK    6  A    between atoms: C_12  and  C_14
REMARK    7  A    between atoms: C_15  and  C_16
REMARK    8  A    between atoms: C_20  and  C_21
REMARK                            x       y       z     vdW  Elec       q    Type
REMARK                         _______ _______ _______ _____ _____    ______ ____
ROOT
ATOM      1  C   UNL     1       2.427   6.511  19.844  0.00  0.00    +0.000 A 
ATOM      2  C   UNL     1       1.934   5.411  20.512  0.00  0.00    +0.000 A 
ATOM      3  N   UNL     1       2.872   4.432  20.336  0.00  0.00    +0.000 N 
ATOM      4  C   UNL     1       3.909   4.966  19.612  0.00  0.00    +0.000 A 
ATOM      5  N   UNL     1       3.632   6.209  19.258  0.00  0.00    +0.000 NA
ATOM      6  H   UNL     1       2.823   3.487  20.691  0.00  0.00    +0.000 HD
ENDROOT
BRANCH   1  11
ATOM      7  C   UNL     1       0.560   9.623  20.839  0.00  0.00    +0.000 A 
ATOM      8  C   UNL     1       0.637  10.362  19.655  0.00  0.00    +0.000 A 
ATOM      9  C   UNL     1       1.285   9.837  18.537  0.00  0.00    +0.000 A 
ATOM     10  C   UNL     1       1.862   8.568  18.598  0.00  0.00    +0.000 A 
ATOM     11  C   UNL     1       1.801   7.818  19.779  0.00  0.00    +0.000 A 
ATOM     12  C   UNL     1       1.140   8.355  20.893  0.00  0.00    +0.000 A 
BRANCH   7  14
ATOM     13  C   UNL     1      -0.068   9.574  23.126  0.00  0.00    +0.000 C 
ATOM     14  O   UNL     1      -0.102  10.239  21.868  0.00  0.00    +0.000 OA
ENDBRANCH   7  14
ENDBRANCH   1  11
BRANCH   4  15
ATOM     15  C   UNL     1       5.144   4.177  19.271  0.00  0.00    +0.000 C 
BRANCH  15  16
ATOM     16  C   UNL     1       5.601   4.395  17.825  0.00  0.00    +0.000 A 
ATOM     17  C   UNL     1       6.818   5.088  17.556  0.00  0.00    +0.000 A 
ATOM     18  C   UNL     1       7.806   5.545  18.600  0.00  0.00    +0.000 C 
ATOM     19  C   UNL     1       7.157   5.421  16.229  0.00  0.00    +0.000 A 
ATOM     20  C   UNL     1       6.352   5.048  15.164  0.00  0.00    +0.000 A 
ATOM     21  C   UNL     1       5.193   4.332  15.404  0.00  0.00    +0.000 A 
ATOM     22  C   UNL     1       4.790   4.011  16.717  0.00  0.00    +0.000 A 
ATOM     23  C   UNL     1       3.505   3.233  16.849  0.00  0.00    +0.000 C 
ENDBRANCH  15  16
BRANCH  15  24
ATOM     24  O   UNL     1       4.882   2.811  19.597  0.00  0.00    +0.000 OA
ATOM     25  H   UNL     1       5.626   2.529  20.162  0.00  0.00    +0.000 HD
ENDBRANCH  15  24
ENDBRANCH   4  15
TORSDOF 5
ENDMDL
MODEL 6
REMARK VINA RESULT:      -7.9      1.256      2.130
REMARK  Name = 
REMARK  8 active torsions:
REMARK  status: ('A' for Active; 'I' for Inactive)
REMARK    1  A    between atoms: C_1  and  O_2
REMARK    2  A    between atoms: O_2  and  C_3
REMARK    3  A    between atoms: C_7  and  C_8
REMARK    4  A    between atoms: C_11  and  C_12
REMARK    5  A    between atoms: C_12  and  O_13
REMARK    6  A    between atoms: C_12  and  C_14
REMARK    7  A    between atoms: C_15  and  C_16
REMARK    8  A    between atoms: C_20  and  C_21
REMARK                            x       y       z     vdW  Elec       q    Type
REMARK                         _______ _______ _______ _____ _____    ______ ____
ROOT
ATOM      1  C   UNL     1       5.532   4.915  15.628  0.00  0.00    +0.000 A 
ATOM      2  C   UNL     1       5.105   6.171  16.002  0.00  0.00    +0.000 A 
ATOM      3  N   UNL     1       4.740   6.051  17.314  0.00  0.00    +0.000 N 
ATOM      4  C   UNL     1       4.989   4.758  17.706  0.00  0.00    +0.000 A 
ATOM      5  N   UNL     1       5.417   4.042  16.681  0.00  0.00    +0.000 NA
ATOM      6  H   UNL     1       4.371   6.787  17.900  0.00  0.00    +0.000 HD
ENDROOT
BRANCH   1  11
ATOM      7  C   UNL     1       5.928   3.232  12.284  0.00  0.00    +0.000 A 
ATOM      8  C   UNL     1       7.066   3.883  11.799  0.00  0.00    +0.000 A 
ATOM      9  C   UNL     1       7.704   4.857  12.568  0.00  0.00    +0.000 A 
ATOM     10  C   UNL     1       7.206   5.185  13.830  0.00  0.00    +0.000 A 
ATOM     11  C   UNL     1       6.062   4.549  14.327  0.00  0.00    +0.000 A 
ATOM     12  C   UNL     1       5.435   3.567  13.546  0.00  0.00    +0.000 A 
BRANCH   7  14
ATOM     13  C   UNL     1       6.220   1.185  11.123  0.00  0.00    +0.000 C 
ATOM     14  O   UNL     1       5.389   2.295  11.443  0.00  0.00    +0.000 OA
ENDBRANCH   7  14
ENDBRANCH   1  11
BRANCH   4  15
ATOM     15  C   UNL     1       4.747   4.282  19.112  0.00  0.00    +0.000 C 
BRANCH  15  16
ATOM     16  C   UNL     1       3.320   3.765  19.321  0.00  0.00    +0.000 A 
ATOM     17  C   UNL     1       3.000   2.407  19.021  0.00  0.00    +0.000 A 
ATOM     18  C   UNL     1       3.995   1.350  18.613  0.00  0.00    +0.000 C 
ATOM     19  C   UNL     1       1.659   1.976  19.067  0.00  0.00    +0.000 A 
ATOM     20  C   UNL     1       0.639   2.836  19.444  0.00  0.00    +0.000 A 
ATOM     21  C   UNL     1       0.938   4.142  19.786  0.00  0.00    +0.000 A 
ATOM     22  C   UNL     1       2.259   4.631  19.716  0.00  0.00    +0.000 A 
ATOM     23  C   UNL     1       2.458   6.074  20.108  0.00  0.00    +0.000 C 
ENDBRANCH  15  16
BRANCH  15  24
ATOM     24  O   UNL     1       5.113   5.345  19.993  0.00  0.00    +0.000 OA
ATOM     25  H   UNL     1       5.422   4.913  20.812  0.00  0.00    +0.000 HD
ENDBRANCH  15  24
ENDBRANCH   4  15
TORSDOF 5
ENDMDL
MODEL 7
REMARK VINA RESULT:      -7.8      3.285      7.309
REMARK  Name = 
REMARK  8 active torsions:
REMARK  status: ('A' for Active; 'I' for Inactive)
REMARK    1  A    between atoms: C_1  and  O_2
REMARK    2  A    between atoms: O_2  and  C_3
REMARK    3  A    between atoms: C_7  and  C_8
REMARK    4  A    between atoms: C_11  and  C_12
REMARK    5  A    between atoms: C_12  and  O_13
REMARK    6  A    between atoms: C_12  and  C_14
REMARK    7  A    between atoms: C_15  and  C_16
REMARK    8  A    between atoms: C_20  and  C_21
REMARK                            x       y       z     vdW  Elec       q    Type
REMARK                         _______ _______ _______ _____ _____    ______ ____
ROOT
ATOM      1  C   UNL     1       2.362   6.285  20.107  0.00  0.00    +0.000 A 
ATOM      2  C   UNL     1       1.912   5.095  20.638  0.00  0.00    +0.000 A 
ATOM      3  N   UNL     1       2.881   4.178  20.341  0.00  0.00    +0.000 N 
ATOM      4  C   UNL     1       3.894   4.831  19.682  0.00  0.00    +0.000 A 
ATOM      5  N   UNL     1       3.572   6.097  19.482  0.00  0.00    +0.000 NA
ATOM      6  H   UNL     1       2.866   3.196  20.579  0.00  0.00    +0.000 HD
ENDROOT
BRANCH   1  11
ATOM      7  C   UNL     1       1.110   9.728  19.244  0.00  0.00    +0.000 A 
ATOM      8  C   UNL     1       0.357  10.023  20.384  0.00  0.00    +0.000 A 
ATOM      9  C   UNL     1       0.273   9.105  21.431  0.00  0.00    +0.000 A 
ATOM     10  C   UNL     1       0.941   7.883  21.343  0.00  0.00    +0.000 A 
ATOM     11  C   UNL     1       1.692   7.568  20.204  0.00  0.00    +0.000 A 
ATOM     12  C   UNL     1       1.775   8.503  19.162  0.00  0.00    +0.000 A 
BRANCH   7  14
ATOM     13  C   UNL     1       1.743  11.933  18.643  0.00  0.00    +0.000 C 
ATOM     14  O   UNL     1       1.121  10.704  18.284  0.00  0.00    +0.000 OA
ENDBRANCH   7  14
ENDBRANCH   1  11
BRANCH   4  15
ATOM     15  C   UNL     1       5.151   4.132  19.242  0.00  0.00    +0.000 C 
BRANCH  15  16
ATOM     16  C   UNL     1       5.558   4.500  17.811  0.00  0.00    +0.000 A 
ATOM     17  C   UNL     1       4.752   4.086  16.710  0.00  0.00    +0.000 A 
ATOM     18  C   UNL     1       3.417   3.394  16.822  0.00  0.00    +0.000 C 
ATOM     19  C   UNL     1       5.207   4.292  15.391  0.00  0.00    +0.000 A 
ATOM     20  C   UNL     1       6.410   4.933  15.136  0.00  0.00    +0.000 A 
ATOM     21  C   UNL     1       7.179   5.384  16.193  0.00  0.00    +0.000 A 
ATOM     22  C   UNL     1       6.786   5.166  17.529  0.00  0.00    +0.000 A 
ATOM     23  C   UNL     1       7.713   5.700  18.593  0.00  0.00    +0.000 C 
ENDBRANCH  15  16
BRANCH  15  24
ATOM     24  O   UNL     1       4.956   2.732  19.448  0.00  0.00    +0.000 OA
ATOM     25  H   UNL     1       5.421   2.522  20.280  0.00  0.00    +0.000 HD
ENDBRANCH  15  24
ENDBRANCH   4  15
TORSDOF 5
ENDMDL
MODEL 8
REMARK VINA RESULT:      -7.7      3.296      7.315
REMARK  Name = 
REMARK  8 active torsions:
REMARK  status: ('A' for Active; 'I' for Inactive)
REMARK    1  A    between atoms: C_1  and  O_2
REMARK    2  A    between atoms: O_2  and  C_3
REMARK    3  A    between atoms: C_7  and  C_8
REMARK    4  A    between atoms: C_11  and  C_12
REMARK    5  A    between atoms: C_12  and  O_13
REMARK    6  A    between atoms: C_12  and  C_14
REMARK    7  A    between atoms: C_15  and  C_16
REMARK    8  A    between atoms: C_20  and  C_21
REMARK                            x       y       z     vdW  Elec       q    Type
REMARK                         _______ _______ _______ _____ _____    ______ ____
ROOT
ATOM      1  C   UNL     1       2.347   6.305  20.078  0.00  0.00    +0.000 A 
ATOM      2  C   UNL     1       1.836   5.113  20.544  0.00  0.00    +0.000 A 
ATOM      3  N   UNL     1       2.793   4.177  20.263  0.00  0.00    +0.000 N 
ATOM      4  C   UNL     1       3.856   4.822  19.681  0.00  0.00    +0.000 A 
ATOM      5  N   UNL     1       3.581   6.103  19.510  0.00  0.00    +0.000 NA
ATOM      6  H   UNL     1       2.738   3.188  20.465  0.00  0.00    +0.000 HD
ENDROOT
BRANCH   1  11
ATOM      7  C   UNL     1       1.138   9.766  19.226  0.00  0.00    +0.000 A 
ATOM      8  C   UNL     1       0.436  10.090  20.391  0.00  0.00    +0.000 A 
ATOM      9  C   UNL     1       0.372   9.185  21.451  0.00  0.00    +0.000 A 
ATOM     10  C   UNL     1       1.010   7.948  21.350  0.00  0.00    +0.000 A 
ATOM     11  C   UNL     1       1.709   7.604  20.187  0.00  0.00    +0.000 A 
ATOM     12  C   UNL     1       1.772   8.527  19.132  0.00  0.00    +0.000 A 
BRANCH   7  14
ATOM     13  C   UNL     1       1.831  11.934  18.561  0.00  0.00    +0.000 C 
ATOM     14  O   UNL     1       1.133  10.733  18.255  0.00  0.00    +0.000 OA
ENDBRANCH   7  14
ENDBRANCH   1  11
BRANCH   4  15
ATOM     15  C   UNL     1       5.115   4.101  19.281  0.00  0.00    +0.000 C 
BRANCH  15  16
ATOM     16  C   UNL     1       5.527   4.395  17.835  0.00  0.00    +0.000 A 
ATOM     17  C   UNL     1       6.729   5.114  17.566  0.00  0.00    +0.000 A 
ATOM     18  C   UNL     1       7.742   5.530  18.603  0.00  0.00    +0.000 C 
ATOM     19  C   UNL     1       7.026   5.515  16.248  0.00  0.00    +0.000 A 
ATOM     20  C   UNL     1       6.194   5.186  15.190  0.00  0.00    +0.000 A 
ATOM     21  C   UNL     1       5.050   4.446  15.426  0.00  0.00    +0.000 A 
ATOM     22  C   UNL     1       4.689   4.056  16.733  0.00  0.00    +0.000 A 
ATOM     23  C   UNL     1       3.416   3.258  16.862  0.00  0.00    +0.000 C 
ENDBRANCH  15  16
BRANCH  15  24
ATOM     24  O   UNL     1       4.918   2.713  19.557  0.00  0.00    +0.000 OA
ATOM     25  H   UNL     1       4.685   2.305  18.702  0.00  0.00    +0.000 HD
ENDBRANCH  15  24
ENDBRANCH   4  15
TORSDOF 5
ENDMDL
MODEL 9
REMARK VINA RESULT:      -7.3      4.024      8.172
REMARK  Name = 
REMARK  8 active torsions:
REMARK  status: ('A' for Active; 'I' for Inactive)
REMARK    1  A    between atoms: C_1  and  O_2
REMARK    2  A    between atoms: O_2  and  C_3
REMARK    3  A    between atoms: C_7  and  C_8
REMARK    4  A    between atoms: C_11  and  C_12
REMARK    5  A    between atoms: C_12  and  O_13
REMARK    6  A    between atoms: C_12  and  C_14
REMARK    7  A    between atoms: C_15  and  C_16
REMARK    8  A    between atoms: C_20  and  C_21
REMARK                            x       y       z     vdW  Elec       q    Type
REMARK                         _______ _______ _______ _____ _____    ______ ____
ROOT
ATOM      1  C   UNL     1       2.018   8.229  19.170  0.00  0.00    +0.000 A 
ATOM      2  C   UNL     1       2.566   8.210  17.906  0.00  0.00    +0.000 A 
ATOM      3  N   UNL     1       3.373   7.107  17.879  0.00  0.00    +0.000 N 
ATOM      4  C   UNL     1       3.264   6.474  19.094  0.00  0.00    +0.000 A 
ATOM      5  N   UNL     1       2.490   7.171  19.908  0.00  0.00    +0.000 NA
ATOM      6  H   UNL     1       3.936   6.798  17.100  0.00  0.00    +0.000 HD
ENDROOT
BRANCH   1  11
ATOM      7  C   UNL     1       0.029  10.400  21.515  0.00  0.00    +0.000 A 
ATOM      8  C   UNL     1      -0.773  11.096  20.607  0.00  0.00    +0.000 A 
ATOM      9  C   UNL     1      -0.671  10.846  19.238  0.00  0.00    +0.000 A 
ATOM     10  C   UNL     1       0.238   9.896  18.770  0.00  0.00    +0.000 A 
ATOM     11  C   UNL     1       1.055   9.196  19.666  0.00  0.00    +0.000 A 
ATOM     12  C   UNL     1       0.936   9.452  21.040  0.00  0.00    +0.000 A 
BRANCH   7  14
ATOM     13  C   UNL     1      -1.437  11.259  23.170  0.00  0.00    +0.000 C 
ATOM     14  O   UNL     1      -0.161  10.728  22.832  0.00  0.00    +0.000 OA
ENDBRANCH   7  14
ENDBRANCH   1  11
BRANCH   4  15
ATOM     15  C   UNL     1       3.985   5.190  19.401  0.00  0.00    +0.000 C 
BRANCH  15  16
ATOM     16  C   UNL     1       4.825   4.691  18.222  0.00  0.00    +0.000 A 
ATOM     17  C   UNL     1       6.218   4.993  18.157  0.00  0.00    +0.000 A 
ATOM     18  C   UNL     1       7.008   5.685  19.240  0.00  0.00    +0.000 C 
ATOM     19  C   UNL     1       6.953   4.665  17.000  0.00  0.00    +0.000 A 
ATOM     20  C   UNL     1       6.361   4.009  15.932  0.00  0.00    +0.000 A 
ATOM     21  C   UNL     1       5.024   3.665  16.000  0.00  0.00    +0.000 A 
ATOM     22  C   UNL     1       4.236   4.007  17.119  0.00  0.00    +0.000 A 
ATOM     23  C   UNL     1       2.790   3.582  17.071  0.00  0.00    +0.000 C 
ENDBRANCH  15  16
BRANCH  15  24
ATOM     24  O   UNL     1       3.010   4.251  19.858  0.00  0.00    +0.000 OA
ATOM     25  H   UNL     1       3.491   3.639  20.446  0.00  0.00    +0.000 HD
ENDBRANCH  15  24
ENDBRANCH   4  15
TORSDOF 5
ENDMDL
