MODEL 1
REMARK VINA RESULT:      -8.4      0.000      0.000
REMARK  Name = 
REMARK  3 active torsions:
REMARK  status: ('A' for Active; 'I' for Inactive)
REMARK    1  A    between atoms: C_1  and  O_2
REMARK    2  A    between atoms: O_2  and  C_3
REMARK    3  A    between atoms: C_6  and  N_7
REMARK                            x       y       z     vdW  Elec       q    Type
REMARK                         _______ _______ _______ _____ _____    ______ ____
ROOT
ATOM      1  N   UNL     1       1.883   8.162  19.582  0.00  0.00    +0.000 N 
ATOM      2  N   UNL     1       2.349   6.940  20.054  0.00  0.00    +0.000 NA
ATOM      3  C   UNL     1       3.150   6.474  19.135  0.00  0.00    +0.000 C 
ATOM      4  C   UNL     1       3.936   5.221  19.247  0.00  0.00    +0.000 C 
ATOM      5  O   UNL     1       5.303   5.628  19.115  0.00  0.00    +0.000 OA
ATOM      6  C   UNL     1       5.702   5.506  17.805  0.00  0.00    +0.000 A 
ATOM      7  C   UNL     1       6.878   4.785  17.609  0.00  0.00    +0.000 A 
ATOM      8  C   UNL     1       7.182   4.316  16.338  0.00  0.00    +0.000 A 
ATOM      9  C   UNL     1       6.302   4.567  15.286  0.00  0.00    +0.000 A 
ATOM     10  C   UNL     1       5.207   5.426  15.464  0.00  0.00    +0.000 A 
ATOM     11  C   UNL     1       4.930   5.972  16.723  0.00  0.00    +0.000 A 
ATOM     12  C   UNL     1       3.966   7.092  16.866  0.00  0.00    +0.000 C 
ATOM     13  C   UNL     1       3.226   7.336  17.954  0.00  0.00    +0.000 C 
ATOM     14  C   UNL     1       2.379   8.514  18.300  0.00  0.00    +0.000 C 
ATOM     15  O   UNL     1       2.223   9.494  17.606  0.00  0.00    +0.000 OA
ENDROOT
BRANCH   1  19
ATOM     16  C   UNL     1      -0.601  10.358  22.257  0.00  0.00    +0.000 A 
ATOM     17  C   UNL     1      -0.654  10.594  20.880  0.00  0.00    +0.000 A 
ATOM     18  C   UNL     1       0.148   9.872  19.982  0.00  0.00    +0.000 A 
ATOM     19  C   UNL     1       1.042   8.912  20.448  0.00  0.00    +0.000 A 
ATOM     20  C   UNL     1       1.103   8.698  21.843  0.00  0.00    +0.000 A 
ATOM     21  C   UNL     1       0.290   9.405  22.741  0.00  0.00    +0.000 A 
BRANCH  16  23
ATOM     22  C   UNL     1      -1.221  12.549  22.935  0.00  0.00    +0.000 C 
ATOM     23  O   UNL     1      -1.429  11.141  23.006  0.00  0.00    +0.000 OA
ENDBRANCH  16  23
ENDBRANCH   1  19
TORSDOF 2
ENDMDL
MODEL 2
REMARK VINA RESULT:      -8.3      0.111      1.006
REMARK  Name = 
REMARK  3 active torsions:
REMARK  status: ('A' for Active; 'I' for Inactive)
REMARK    1  A    between atoms: C_1  and  O_2
REMARK    2  A    between atoms: O_2  and  C_3
REMARK    3  A    between atoms: C_6  and  N_7
REMARK                            x       y       z     vdW  Elec       q    Type
REMARK                         _______ _______ _______ _____ _____    ______ ____
ROOT
ATOM      1  N   UNL     1       1.947   8.121  19.555  0.00  0.00    +0.000 N 
ATOM      2  N   UNL     1       2.404   6.885  20.000  0.00  0.00    +0.000 NA
ATOM      3  C   UNL     1       3.198   6.431  19.069  0.00  0.00    +0.000 C 
ATOM      4  C   UNL     1       3.973   5.170  19.153  0.00  0.00    +0.000 C 
ATOM      5  O   UNL     1       5.344   5.567  19.025  0.00  0.00    +0.000 OA
ATOM      6  C   UNL     1       5.738   5.469  17.712  0.00  0.00    +0.000 A 
ATOM      7  C   UNL     1       6.907   4.742  17.498  0.00  0.00    +0.000 A 
ATOM      8  C   UNL     1       7.204   4.298  16.217  0.00  0.00    +0.000 A 
ATOM      9  C   UNL     1       6.323   4.578  15.172  0.00  0.00    +0.000 A 
ATOM     10  C   UNL     1       5.237   5.443  15.372  0.00  0.00    +0.000 A 
ATOM     11  C   UNL     1       4.968   5.965  16.642  0.00  0.00    +0.000 A 
ATOM     12  C   UNL     1       4.014   7.090  16.811  0.00  0.00    +0.000 C 
ATOM     13  C   UNL     1       3.279   7.318  17.906  0.00  0.00    +0.000 C 
ATOM     14  C   UNL     1       2.444   8.496  18.279  0.00  0.00    +0.000 C 
ATOM     15  O   UNL     1       2.294   9.491  17.606  0.00  0.00    +0.000 OA
ENDROOT
BRANCH   1  19
ATOM     16  C   UNL     1      -0.583  10.390  22.124  0.00  0.00    +0.000 A 
ATOM     17  C   UNL     1       0.241   9.387  22.641  0.00  0.00    +0.000 A 
ATOM     18  C   UNL     1       1.090   8.636  21.812  0.00  0.00    +0.000 A 
ATOM     19  C   UNL     1       1.115   8.860  20.438  0.00  0.00    +0.000 A 
ATOM     20  C   UNL     1       0.260   9.861  19.923  0.00  0.00    +0.000 A 
ATOM     21  C   UNL     1      -0.576  10.624  20.752  0.00  0.00    +0.000 A 
BRANCH  16  23
ATOM     22  C   UNL     1      -1.368  12.452  23.004  0.00  0.00    +0.000 C 
ATOM     23  O   UNL     1      -1.360  11.028  23.045  0.00  0.00    +0.000 OA
ENDBRANCH  16  23
ENDBRANCH   1  19
TORSDOF 2
ENDMDL
MODEL 3
REMARK VINA RESULT:      -7.8      1.763      8.241
REMARK  Name = 
REMARK  3 active torsions:
REMARK  status: ('A' for Active; 'I' for Inactive)
REMARK    1  A    between atoms: C_1  and  O_2
REMARK    2  A    between atoms: O_2  and  C_3
REMARK    3  A    between atoms: C_6  and  N_7
REMARK                            x       y       z     vdW  Elec       q    Type
REMARK                         _______ _______ _______ _____ _____    ______ ____
ROOT
ATOM      1  N   UNL     1       2.866   6.777  18.384  0.00  0.00    +0.000 N 
ATOM      2  N   UNL     1       2.253   7.891  17.818  0.00  0.00    +0.000 NA
ATOM      3  C   UNL     1       1.613   8.487  18.785  0.00  0.00    +0.000 C 
ATOM      4  C   UNL     1       0.874   9.767  18.654  0.00  0.00    +0.000 C 
ATOM      5  O   UNL     1       1.505  10.657  19.584  0.00  0.00    +0.000 OA
ATOM      6  C   UNL     1       0.828  10.638  20.780  0.00  0.00    +0.000 A 
ATOM      7  C   UNL     1       0.463  11.889  21.273  0.00  0.00    +0.000 A 
ATOM      8  C   UNL     1      -0.498  11.971  22.271  0.00  0.00    +0.000 A 
ATOM      9  C   UNL     1      -1.087  10.802  22.753  0.00  0.00    +0.000 A 
ATOM     10  C   UNL     1      -0.597   9.546  22.363  0.00  0.00    +0.000 A 
ATOM     11  C   UNL     1       0.428   9.446  21.415  0.00  0.00    +0.000 A 
ATOM     12  C   UNL     1       1.144   8.163  21.209  0.00  0.00    +0.000 C 
ATOM     13  C   UNL     1       1.711   7.774  20.061  0.00  0.00    +0.000 C 
ATOM     14  C   UNL     1       2.613   6.621  19.771  0.00  0.00    +0.000 C 
ATOM     15  O   UNL     1       2.997   5.810  20.584  0.00  0.00    +0.000 OA
ENDROOT
BRANCH   1  19
ATOM     16  C   UNL     1       5.399   4.517  15.811  0.00  0.00    +0.000 A 
ATOM     17  C   UNL     1       4.451   3.880  16.616  0.00  0.00    +0.000 A 
ATOM     18  C   UNL     1       3.600   4.608  17.462  0.00  0.00    +0.000 A 
ATOM     19  C   UNL     1       3.696   5.995  17.537  0.00  0.00    +0.000 A 
ATOM     20  C   UNL     1       4.674   6.627  16.735  0.00  0.00    +0.000 A 
ATOM     21  C   UNL     1       5.514   5.902  15.876  0.00  0.00    +0.000 A 
BRANCH  16  23
ATOM     22  C   UNL     1       6.225   3.960  13.654  0.00  0.00    +0.000 C 
ATOM     23  O   UNL     1       6.162   3.681  15.050  0.00  0.00    +0.000 OA
ENDBRANCH  16  23
ENDBRANCH   1  19
TORSDOF 2
ENDMDL
MODEL 4
REMARK VINA RESULT:      -7.7      1.763      8.205
REMARK  Name = 
REMARK  3 active torsions:
REMARK  status: ('A' for Active; 'I' for Inactive)
REMARK    1  A    between atoms: C_1  and  O_2
REMARK    2  A    between atoms: O_2  and  C_3
REMARK    3  A    between atoms: C_6  and  N_7
REMARK                            x       y       z     vdW  Elec       q    Type
REMARK                         _______ _______ _______ _____ _____    ______ ____
ROOT
ATOM      1  N   UNL     1       2.951   6.765  18.335  0.00  0.00    +0.000 N 
ATOM      2  N   UNL     1       2.341   7.881  17.771  0.00  0.00    +0.000 NA
ATOM      3  C   UNL     1       1.686   8.467  18.736  0.00  0.00    +0.000 C 
ATOM      4  C   UNL     1       0.944   9.744  18.606  0.00  0.00    +0.000 C 
ATOM      5  O   UNL     1       1.559  10.628  19.552  0.00  0.00    +0.000 OA
ATOM      6  C   UNL     1       0.867  10.595  20.739  0.00  0.00    +0.000 A 
ATOM      7  C   UNL     1       0.491  11.841  21.238  0.00  0.00    +0.000 A 
ATOM      8  C   UNL     1      -0.484  11.910  22.224  0.00  0.00    +0.000 A 
ATOM      9  C   UNL     1      -1.075  10.734  22.688  0.00  0.00    +0.000 A 
ATOM     10  C   UNL     1      -0.575   9.484  22.293  0.00  0.00    +0.000 A 
ATOM     11  C   UNL     1       0.463   9.397  21.358  0.00  0.00    +0.000 A 
ATOM     12  C   UNL     1       1.187   8.118  21.149  0.00  0.00    +0.000 C 
ATOM     13  C   UNL     1       1.770   7.741  20.005  0.00  0.00    +0.000 C 
ATOM     14  C   UNL     1       2.680   6.595  19.717  0.00  0.00    +0.000 C 
ATOM     15  O   UNL     1       3.056   5.778  20.528  0.00  0.00    +0.000 OA
ENDROOT
BRANCH   1  19
ATOM     16  C   UNL     1       5.437   4.365  15.843  0.00  0.00    +0.000 A 
ATOM     17  C   UNL     1       5.553   5.758  15.835  0.00  0.00    +0.000 A 
ATOM     18  C   UNL     1       4.751   6.565  16.657  0.00  0.00    +0.000 A 
ATOM     19  C   UNL     1       3.795   5.993  17.492  0.00  0.00    +0.000 A 
ATOM     20  C   UNL     1       3.670   4.585  17.474  0.00  0.00    +0.000 A 
ATOM     21  C   UNL     1       4.483   3.776  16.666  0.00  0.00    +0.000 A 
BRANCH  16  23
ATOM     22  C   UNL     1       6.170   4.052  13.605  0.00  0.00    +0.000 C 
ATOM     23  O   UNL     1       6.274   3.714  14.985  0.00  0.00    +0.000 OA
ENDBRANCH  16  23
ENDBRANCH   1  19
TORSDOF 2
ENDMDL
MODEL 5
REMARK VINA RESULT:      -7.5      1.805      8.184
REMARK  Name = 
REMARK  3 active torsions:
REMARK  status: ('A' for Active; 'I' for Inactive)
REMARK    1  A    between atoms: C_1  and  O_2
REMARK    2  A    between atoms: O_2  and  C_3
REMARK    3  A    between atoms: C_6  and  N_7
REMARK                            x       y       z     vdW  Elec       q    Type
REMARK                         _______ _______ _______ _____ _____    ______ ____
ROOT
ATOM      1  N   UNL     1       1.906   7.723  19.709  0.00  0.00    +0.000 N 
ATOM      2  N   UNL     1       1.692   7.723  21.083  0.00  0.00    +0.000 NA
ATOM      3  C   UNL     1       1.168   8.883  21.372  0.00  0.00    +0.000 C 
ATOM      4  C   UNL     1       0.705   9.296  22.719  0.00  0.00    +0.000 C 
ATOM      5  O   UNL     1      -0.688   9.591  22.559  0.00  0.00    +0.000 OA
ATOM      6  C   UNL     1      -0.856  10.935  22.326  0.00  0.00    +0.000 A 
ATOM      7  C   UNL     1      -1.780  11.567  23.155  0.00  0.00    +0.000 A 
ATOM      8  C   UNL     1      -1.779  12.953  23.239  0.00  0.00    +0.000 A 
ATOM      9  C   UNL     1      -0.848  13.684  22.500  0.00  0.00    +0.000 A 
ATOM     10  C   UNL     1      -0.034  13.045  21.553  0.00  0.00    +0.000 A 
ATOM     11  C   UNL     1      -0.078  11.655  21.398  0.00  0.00    +0.000 A 
ATOM     12  C   UNL     1       0.552  11.004  20.223  0.00  0.00    +0.000 C 
ATOM     13  C   UNL     1       1.048   9.761  20.206  0.00  0.00    +0.000 C 
ATOM     14  C   UNL     1       1.524   8.928  19.064  0.00  0.00    +0.000 C 
ATOM     15  O   UNL     1       1.531   9.269  17.902  0.00  0.00    +0.000 OA
ENDROOT
BRANCH   1  19
ATOM     16  C   UNL     1       3.466   4.188  17.914  0.00  0.00    +0.000 A 
ATOM     17  C   UNL     1       2.556   4.108  18.972  0.00  0.00    +0.000 A 
ATOM     18  C   UNL     1       2.021   5.261  19.568  0.00  0.00    +0.000 A 
ATOM     19  C   UNL     1       2.408   6.525  19.132  0.00  0.00    +0.000 A 
ATOM     20  C   UNL     1       3.347   6.594  18.078  0.00  0.00    +0.000 A 
ATOM     21  C   UNL     1       3.868   5.443  17.468  0.00  0.00    +0.000 A 
BRANCH  16  23
ATOM     22  C   UNL     1       3.438   1.821  18.115  0.00  0.00    +0.000 C 
ATOM     23  O   UNL     1       3.906   2.987  17.443  0.00  0.00    +0.000 OA
ENDBRANCH  16  23
ENDBRANCH   1  19
TORSDOF 2
ENDMDL
MODEL 6
REMARK VINA RESULT:      -7.5      1.414      8.136
REMARK  Name = 
REMARK  3 active torsions:
REMARK  status: ('A' for Active; 'I' for Inactive)
REMARK    1  A    between atoms: C_1  and  O_2
REMARK    2  A    between atoms: O_2  and  C_3
REMARK    3  A    between atoms: C_6  and  N_7
REMARK                            x       y       z     vdW  Elec       q    Type
REMARK                         _______ _______ _______ _____ _____    ______ ____
ROOT
ATOM      1  N   UNL     1       2.187   7.851  19.145  0.00  0.00    +0.000 N 
ATOM      2  N   UNL     1       2.034   7.727  20.522  0.00  0.00    +0.000 NA
ATOM      3  C   UNL     1       1.430   8.812  20.922  0.00  0.00    +0.000 C 
ATOM      4  C   UNL     1       0.994   9.079  22.314  0.00  0.00    +0.000 C 
ATOM      5  O   UNL     1      -0.424   9.266  22.231  0.00  0.00    +0.000 OA
ATOM      6  C   UNL     1      -0.711  10.606  22.113  0.00  0.00    +0.000 A 
ATOM      7  C   UNL     1      -1.647  11.091  23.025  0.00  0.00    +0.000 A 
ATOM      8  C   UNL     1      -1.755  12.462  23.219  0.00  0.00    +0.000 A 
ATOM      9  C   UNL     1      -0.919  13.323  22.508  0.00  0.00    +0.000 A 
ATOM     10  C   UNL     1      -0.098  12.831  21.483  0.00  0.00    +0.000 A 
ATOM     11  C   UNL     1      -0.036  11.458  21.218  0.00  0.00    +0.000 A 
ATOM     12  C   UNL     1       0.593  10.956  19.972  0.00  0.00    +0.000 C 
ATOM     13  C   UNL     1       1.188   9.765  19.836  0.00  0.00    +0.000 C 
ATOM     14  C   UNL     1       1.680   9.065  18.614  0.00  0.00    +0.000 C 
ATOM     15  O   UNL     1       1.609   9.494  17.484  0.00  0.00    +0.000 OA
ENDROOT
BRANCH   1  19
ATOM     16  C   UNL     1       3.827   4.484  17.114  0.00  0.00    +0.000 A 
ATOM     17  C   UNL     1       4.442   5.737  17.029  0.00  0.00    +0.000 A 
ATOM     18  C   UNL     1       3.923   6.855  17.700  0.00  0.00    +0.000 A 
ATOM     19  C   UNL     1       2.759   6.748  18.455  0.00  0.00    +0.000 A 
ATOM     20  C   UNL     1       2.133   5.482  18.516  0.00  0.00    +0.000 A 
ATOM     21  C   UNL     1       2.659   4.359  17.861  0.00  0.00    +0.000 A 
BRANCH  16  23
ATOM     22  C   UNL     1       5.692   3.812  15.805  0.00  0.00    +0.000 C 
ATOM     23  O   UNL     1       4.437   3.494  16.402  0.00  0.00    +0.000 OA
ENDBRANCH  16  23
ENDBRANCH   1  19
TORSDOF 2
ENDMDL
MODEL 7
REMARK VINA RESULT:      -7.5      1.767      8.268
REMARK  Name = 
REMARK  3 active torsions:
REMARK  status: ('A' for Active; 'I' for Inactive)
REMARK    1  A    between atoms: C_1  and  O_2
REMARK    2  A    between atoms: O_2  and  C_3
REMARK    3  A    between atoms: C_6  and  N_7
REMARK                            x       y       z     vdW  Elec       q    Type
REMARK                         _______ _______ _______ _____ _____    ______ ____
ROOT
ATOM      1  N   UNL     1       2.245   7.560  18.877  0.00  0.00    +0.000 N 
ATOM      2  N   UNL     1       1.857   8.729  18.231  0.00  0.00    +0.000 NA
ATOM      3  C   UNL     1       1.237   9.452  19.123  0.00  0.00    +0.000 C 
ATOM      4  C   UNL     1       0.715  10.821  18.895  0.00  0.00    +0.000 C 
ATOM      5  O   UNL     1       1.395  11.643  19.852  0.00  0.00    +0.000 OA
ATOM      6  C   UNL     1       0.627  11.771  20.985  0.00  0.00    +0.000 A 
ATOM      7  C   UNL     1       0.417  13.082  21.411  0.00  0.00    +0.000 A 
ATOM      8  C   UNL     1      -0.600  13.344  22.319  0.00  0.00    +0.000 A 
ATOM      9  C   UNL     1      -1.397  12.296  22.778  0.00  0.00    +0.000 A 
ATOM     10  C   UNL     1      -1.073  10.967  22.465  0.00  0.00    +0.000 A 
ATOM     11  C   UNL     1      -0.000  10.678  21.614  0.00  0.00    +0.000 A 
ATOM     12  C   UNL     1       0.528   9.295  21.504  0.00  0.00    +0.000 C 
ATOM     13  C   UNL     1       1.121   8.782  20.420  0.00  0.00    +0.000 C 
ATOM     14  C   UNL     1       1.859   7.498  20.241  0.00  0.00    +0.000 C 
ATOM     15  O   UNL     1       2.047   6.671  21.105  0.00  0.00    +0.000 OA
ENDROOT
BRANCH   1  19
ATOM     16  C   UNL     1       4.610   4.849  16.596  0.00  0.00    +0.000 A 
ATOM     17  C   UNL     1       3.502   4.394  17.317  0.00  0.00    +0.000 A 
ATOM     18  C   UNL     1       2.704   5.274  18.065  0.00  0.00    +0.000 A 
ATOM     19  C   UNL     1       3.014   6.630  18.126  0.00  0.00    +0.000 A 
ATOM     20  C   UNL     1       4.150   7.074  17.412  0.00  0.00    +0.000 A 
ATOM     21  C   UNL     1       4.938   6.200  16.650  0.00  0.00    +0.000 A 
BRANCH  16  23
ATOM     22  C   UNL     1       6.305   4.316  15.019  0.00  0.00    +0.000 C 
ATOM     23  O   UNL     1       5.296   3.879  15.925  0.00  0.00    +0.000 OA
ENDBRANCH  16  23
ENDBRANCH   1  19
TORSDOF 2
ENDMDL
MODEL 8
REMARK VINA RESULT:      -7.4      1.890      8.180
REMARK  Name = 
REMARK  3 active torsions:
REMARK  status: ('A' for Active; 'I' for Inactive)
REMARK    1  A    between atoms: C_1  and  O_2
REMARK    2  A    between atoms: O_2  and  C_3
REMARK    3  A    between atoms: C_6  and  N_7
REMARK                            x       y       z     vdW  Elec       q    Type
REMARK                         _______ _______ _______ _____ _____    ______ ____
ROOT
ATOM      1  N   UNL     1       1.868   7.784  19.816  0.00  0.00    +0.000 N 
ATOM      2  N   UNL     1       1.639   7.797  21.188  0.00  0.00    +0.000 NA
ATOM      3  C   UNL     1       1.118   8.961  21.462  0.00  0.00    +0.000 C 
ATOM      4  C   UNL     1       0.644   9.387  22.801  0.00  0.00    +0.000 C 
ATOM      5  O   UNL     1      -0.746   9.688  22.624  0.00  0.00    +0.000 OA
ATOM      6  C   UNL     1      -0.904  11.032  22.379  0.00  0.00    +0.000 A 
ATOM      7  C   UNL     1      -1.833  11.676  23.193  0.00  0.00    +0.000 A 
ATOM      8  C   UNL     1      -1.825  13.062  23.266  0.00  0.00    +0.000 A 
ATOM      9  C   UNL     1      -0.882  13.782  22.532  0.00  0.00    +0.000 A 
ATOM     10  C   UNL     1      -0.061  13.132  21.598  0.00  0.00    +0.000 A 
ATOM     11  C   UNL     1      -0.112  11.740  21.454  0.00  0.00    +0.000 A 
ATOM     12  C   UNL     1       0.527  11.077  20.290  0.00  0.00    +0.000 C 
ATOM     13  C   UNL     1       1.016   9.832  20.288  0.00  0.00    +0.000 C 
ATOM     14  C   UNL     1       1.499   8.986  19.158  0.00  0.00    +0.000 C 
ATOM     15  O   UNL     1       1.521   9.318  17.993  0.00  0.00    +0.000 OA
ENDROOT
BRANCH   1  19
ATOM     16  C   UNL     1       3.321   4.119  18.204  0.00  0.00    +0.000 A 
ATOM     17  C   UNL     1       3.662   5.340  17.616  0.00  0.00    +0.000 A 
ATOM     18  C   UNL     1       3.203   6.559  18.139  0.00  0.00    +0.000 A 
ATOM     19  C   UNL     1       2.369   6.579  19.254  0.00  0.00    +0.000 A 
ATOM     20  C   UNL     1       2.011   5.337  19.826  0.00  0.00    +0.000 A 
ATOM     21  C   UNL     1       2.484   4.119  19.315  0.00  0.00    +0.000 A 
BRANCH  16  23
ATOM     22  C   UNL     1       3.489   1.750  18.132  0.00  0.00    +0.000 C 
ATOM     23  O   UNL     1       3.832   3.018  17.581  0.00  0.00    +0.000 OA
ENDBRANCH  16  23
ENDBRANCH   1  19
TORSDOF 2
ENDMDL
MODEL 9
REMARK VINA RESULT:      -7.4      1.412      8.179
REMARK  Name = 
REMARK  3 active torsions:
REMARK  status: ('A' for Active; 'I' for Inactive)
REMARK    1  A    between atoms: C_1  and  O_2
REMARK    2  A    between atoms: O_2  and  C_3
REMARK    3  A    between atoms: C_6  and  N_7
REMARK                            x       y       z     vdW  Elec       q    Type
REMARK                         _______ _______ _______ _____ _____    ______ ____
ROOT
ATOM      1  N   UNL     1       2.174   7.893  19.141  0.00  0.00    +0.000 N 
ATOM      2  N   UNL     1       2.054   7.773  20.521  0.00  0.00    +0.000 NA
ATOM      3  C   UNL     1       1.428   8.843  20.929  0.00  0.00    +0.000 C 
ATOM      4  C   UNL     1       1.015   9.105  22.329  0.00  0.00    +0.000 C 
ATOM      5  O   UNL     1      -0.410   9.250  22.275  0.00  0.00    +0.000 OA
ATOM      6  C   UNL     1      -0.738  10.580  22.157  0.00  0.00    +0.000 A 
ATOM      7  C   UNL     1      -1.667  11.044  23.087  0.00  0.00    +0.000 A 
ATOM      8  C   UNL     1      -1.810  12.412  23.277  0.00  0.00    +0.000 A 
ATOM      9  C   UNL     1      -1.016  13.293  22.543  0.00  0.00    +0.000 A 
ATOM     10  C   UNL     1      -0.203  12.819  21.503  0.00  0.00    +0.000 A 
ATOM     11  C   UNL     1      -0.107  11.447  21.244  0.00  0.00    +0.000 A 
ATOM     12  C   UNL     1       0.509  10.956  19.987  0.00  0.00    +0.000 C 
ATOM     13  C   UNL     1       1.135   9.782  19.844  0.00  0.00    +0.000 C 
ATOM     14  C   UNL     1       1.620   9.090  18.615  0.00  0.00    +0.000 C 
ATOM     15  O   UNL     1       1.512   9.510  17.484  0.00  0.00    +0.000 OA
ENDROOT
BRANCH   1  19
ATOM     16  C   UNL     1       4.012   4.689  17.019  0.00  0.00    +0.000 A 
ATOM     17  C   UNL     1       2.845   4.477  17.759  0.00  0.00    +0.000 A 
ATOM     18  C   UNL     1       2.218   5.522  18.455  0.00  0.00    +0.000 A 
ATOM     19  C   UNL     1       2.762   6.804  18.444  0.00  0.00    +0.000 A 
ATOM     20  C   UNL     1       3.955   7.002  17.712  0.00  0.00    +0.000 A 
ATOM     21  C   UNL     1       4.573   5.962  17.001  0.00  0.00    +0.000 A 
BRANCH  16  23
ATOM     22  C   UNL     1       5.732   3.739  15.684  0.00  0.00    +0.000 C 
ATOM     23  O   UNL     1       4.513   3.580  16.405  0.00  0.00    +0.000 OA
ENDBRANCH  16  23
ENDBRANCH   1  19
TORSDOF 2
ENDMDL
