MODEL 1
REMARK VINA RESULT:      -6.4      0.000      0.000
REMARK  Name = 
REMARK  4 active torsions:
REMARK  status: ('A' for Active; 'I' for Inactive)
REMARK    1  A    between atoms: C_1  and  N_2
REMARK    2  A    between atoms: N_4  and  C_5
REMARK    3  A    between atoms: N_6  and  C_7
REMARK    4  A    between atoms: C_7  and  C_8
REMARK                            x       y       z     vdW  Elec       q    Type
REMARK                         _______ _______ _______ _____ _____    ______ ____
ROOT
ATOM      1  C   UNL     1       6.374   4.080  14.628  0.00  0.00    +0.000 C 
ATOM      2  N   UNL     1       5.560   3.755  15.784  0.00  0.00    +0.000 NA
ATOM      3  C   UNL     1       5.882   4.187  16.954  0.00  0.00    +0.000 C 
ATOM      4  N   UNL     1       6.953   4.981  17.241  0.00  0.00    +0.000 N 
ATOM      5  C   UNL     1       7.260   5.705  18.450  0.00  0.00    +0.000 C 
ATOM      6  N   UNL     1       5.122   3.862  18.039  0.00  0.00    +0.000 N 
ATOM      7  H   UNL     1       7.497   5.276  16.442  0.00  0.00    +0.000 HD
ATOM      8  H   UNL     1       5.635   3.790  18.904  0.00  0.00    +0.000 HD
ENDROOT
BRANCH   6   9
ATOM      9  C   UNL     1       4.029   2.911  17.970  0.00  0.00    +0.000 C 
BRANCH   9  10
ATOM     10  C   UNL     1       3.084   3.081  19.137  0.00  0.00    +0.000 A 
ATOM     11  C   UNL     1       3.435   2.526  20.382  0.00  0.00    +0.000 A 
ATOM     12  C   UNL     1       2.592   2.653  21.488  0.00  0.00    +0.000 A 
ATOM     13  C   UNL     1       1.388   3.343  21.370  0.00  0.00    +0.000 A 
ATOM     14  C   UNL     1       1.035   3.918  20.149  0.00  0.00    +0.000 A 
ATOM     15  C   UNL     1       1.881   3.792  19.041  0.00  0.00    +0.000 A 
ATOM     16 CL   UNL     1       1.389   4.562  17.573  0.00  0.00    +0.000 Cl
ENDBRANCH   9  10
ENDBRANCH   6   9
TORSDOF 2
ENDMDL
MODEL 2
REMARK VINA RESULT:      -6.3      2.024      3.164
REMARK  Name = 
REMARK  4 active torsions:
REMARK  status: ('A' for Active; 'I' for Inactive)
REMARK    1  A    between atoms: C_1  and  N_2
REMARK    2  A    between atoms: N_4  and  C_5
REMARK    3  A    between atoms: N_6  and  C_7
REMARK    4  A    between atoms: C_7  and  C_8
REMARK                            x       y       z     vdW  Elec       q    Type
REMARK                         _______ _______ _______ _____ _____    ______ ____
ROOT
ATOM      1  C   UNL     1       7.764   7.840  17.565  0.00  0.00    +0.000 C 
ATOM      2  N   UNL     1       7.007   6.664  17.949  0.00  0.00    +0.000 NA
ATOM      3  C   UNL     1       6.711   5.762  17.078  0.00  0.00    +0.000 C 
ATOM      4  N   UNL     1       7.071   5.780  15.763  0.00  0.00    +0.000 N 
ATOM      5  C   UNL     1       7.002   4.727  14.778  0.00  0.00    +0.000 C 
ATOM      6  N   UNL     1       5.984   4.667  17.442  0.00  0.00    +0.000 N 
ATOM      7  H   UNL     1       7.655   6.556  15.486  0.00  0.00    +0.000 HD
ATOM      8  H   UNL     1       5.396   4.293  16.714  0.00  0.00    +0.000 HD
ENDROOT
BRANCH   6   9
ATOM      9  C   UNL     1       5.383   4.532  18.755  0.00  0.00    +0.000 C 
BRANCH   9  10
ATOM     10  C   UNL     1       3.976   3.988  18.657  0.00  0.00    +0.000 A 
ATOM     11  C   UNL     1       3.063   4.616  17.789  0.00  0.00    +0.000 A 
ATOM     12  C   UNL     1       1.752   4.152  17.669  0.00  0.00    +0.000 A 
ATOM     13  C   UNL     1       1.333   3.049  18.407  0.00  0.00    +0.000 A 
ATOM     14  C   UNL     1       2.231   2.401  19.256  0.00  0.00    +0.000 A 
ATOM     15  C   UNL     1       3.546   2.864  19.376  0.00  0.00    +0.000 A 
ATOM     16 CL   UNL     1       4.607   1.987  20.421  0.00  0.00    +0.000 Cl
ENDBRANCH   9  10
ENDBRANCH   6   9
TORSDOF 2
ENDMDL
MODEL 3
REMARK VINA RESULT:      -6.3      1.837      2.714
REMARK  Name = 
REMARK  4 active torsions:
REMARK  status: ('A' for Active; 'I' for Inactive)
REMARK    1  A    between atoms: C_1  and  N_2
REMARK    2  A    between atoms: N_4  and  C_5
REMARK    3  A    between atoms: N_6  and  C_7
REMARK    4  A    between atoms: C_7  and  C_8
REMARK                            x       y       z     vdW  Elec       q    Type
REMARK                         _______ _______ _______ _____ _____    ______ ____
ROOT
ATOM      1  C   UNL     1       7.813   7.725  17.711  0.00  0.00    +0.000 C 
ATOM      2  N   UNL     1       7.056   6.528  18.023  0.00  0.00    +0.000 NA
ATOM      3  C   UNL     1       6.770   5.675  17.101  0.00  0.00    +0.000 C 
ATOM      4  N   UNL     1       7.142   5.767  15.792  0.00  0.00    +0.000 N 
ATOM      5  C   UNL     1       7.085   4.770  14.751  0.00  0.00    +0.000 C 
ATOM      6  N   UNL     1       6.042   4.561  17.397  0.00  0.00    +0.000 N 
ATOM      7  H   UNL     1       7.728   6.558  15.564  0.00  0.00    +0.000 HD
ATOM      8  H   UNL     1       5.462   4.226  16.644  0.00  0.00    +0.000 HD
ENDROOT
BRANCH   6   9
ATOM      9  C   UNL     1       5.430   4.352  18.695  0.00  0.00    +0.000 C 
BRANCH   9  10
ATOM     10  C   UNL     1       4.002   3.876  18.553  0.00  0.00    +0.000 A 
ATOM     11  C   UNL     1       3.711   2.520  18.792  0.00  0.00    +0.000 A 
ATOM     12  C   UNL     1       2.408   2.032  18.669  0.00  0.00    +0.000 A 
ATOM     13  C   UNL     1       1.374   2.893  18.310  0.00  0.00    +0.000 A 
ATOM     14  C   UNL     1       1.642   4.244  18.090  0.00  0.00    +0.000 A 
ATOM     15  C   UNL     1       2.946   4.733  18.216  0.00  0.00    +0.000 A 
ATOM     16 CL   UNL     1       3.190   6.426  17.960  0.00  0.00    +0.000 Cl
ENDBRANCH   9  10
ENDBRANCH   6   9
TORSDOF 2
ENDMDL
MODEL 4
REMARK VINA RESULT:      -6.2      1.917      2.869
REMARK  Name = 
REMARK  4 active torsions:
REMARK  status: ('A' for Active; 'I' for Inactive)
REMARK    1  A    between atoms: C_1  and  N_2
REMARK    2  A    between atoms: N_4  and  C_5
REMARK    3  A    between atoms: N_6  and  C_7
REMARK    4  A    between atoms: C_7  and  C_8
REMARK                            x       y       z     vdW  Elec       q    Type
REMARK                         _______ _______ _______ _____ _____    ______ ____
ROOT
ATOM      1  C   UNL     1       7.567   7.329  17.505  0.00  0.00    +0.000 C 
ATOM      2  N   UNL     1       6.242   6.752  17.617  0.00  0.00    +0.000 NA
ATOM      3  C   UNL     1       5.773   6.002  16.681  0.00  0.00    +0.000 C 
ATOM      4  N   UNL     1       6.431   5.651  15.539  0.00  0.00    +0.000 N 
ATOM      5  C   UNL     1       6.100   4.643  14.561  0.00  0.00    +0.000 C 
ATOM      6  N   UNL     1       4.518   5.477  16.784  0.00  0.00    +0.000 N 
ATOM      7  H   UNL     1       7.382   5.987  15.468  0.00  0.00    +0.000 HD
ATOM      8  H   UNL     1       4.045   5.343  15.904  0.00  0.00    +0.000 HD
ENDROOT
BRANCH   6   9
ATOM      9  C   UNL     1       3.604   5.846  17.847  0.00  0.00    +0.000 C 
BRANCH   9  10
ATOM     10  C   UNL     1       2.771   4.663  18.285  0.00  0.00    +0.000 A 
ATOM     11  C   UNL     1       2.840   3.471  17.539  0.00  0.00    +0.000 A 
ATOM     12  C   UNL     1       2.085   2.353  17.902  0.00  0.00    +0.000 A 
ATOM     13  C   UNL     1       1.254   2.406  19.018  0.00  0.00    +0.000 A 
ATOM     14  C   UNL     1       1.190   3.573  19.780  0.00  0.00    +0.000 A 
ATOM     15  C   UNL     1       1.948   4.692  19.418  0.00  0.00    +0.000 A 
ATOM     16 CL   UNL     1       1.840   6.088  20.433  0.00  0.00    +0.000 Cl
ENDBRANCH   9  10
ENDBRANCH   6   9
TORSDOF 2
ENDMDL
MODEL 5
REMARK VINA RESULT:      -6.2      1.647      1.903
REMARK  Name = 
REMARK  4 active torsions:
REMARK  status: ('A' for Active; 'I' for Inactive)
REMARK    1  A    between atoms: C_1  and  N_2
REMARK    2  A    between atoms: N_4  and  C_5
REMARK    3  A    between atoms: N_6  and  C_7
REMARK    4  A    between atoms: C_7  and  C_8
REMARK                            x       y       z     vdW  Elec       q    Type
REMARK                         _______ _______ _______ _____ _____    ______ ____
ROOT
ATOM      1  C   UNL     1       6.012   3.964  14.464  0.00  0.00    +0.000 C 
ATOM      2  N   UNL     1       5.209   4.570  15.509  0.00  0.00    +0.000 NA
ATOM      3  C   UNL     1       5.676   4.700  16.702  0.00  0.00    +0.000 C 
ATOM      4  N   UNL     1       6.924   4.331  17.110  0.00  0.00    +0.000 N 
ATOM      5  C   UNL     1       7.620   4.647  18.334  0.00  0.00    +0.000 C 
ATOM      6  N   UNL     1       4.909   5.253  17.684  0.00  0.00    +0.000 N 
ATOM      7  H   UNL     1       7.527   3.968  16.385  0.00  0.00    +0.000 HD
ATOM      8  H   UNL     1       5.095   4.901  18.610  0.00  0.00    +0.000 HD
ENDROOT
BRANCH   6   9
ATOM      9  C   UNL     1       3.508   5.575  17.491  0.00  0.00    +0.000 C 
BRANCH   9  10
ATOM     10  C   UNL     1       2.621   4.644  18.285  0.00  0.00    +0.000 A 
ATOM     11  C   UNL     1       2.434   3.327  17.825  0.00  0.00    +0.000 A 
ATOM     12  C   UNL     1       1.620   2.432  18.523  0.00  0.00    +0.000 A 
ATOM     13  C   UNL     1       0.985   2.836  19.694  0.00  0.00    +0.000 A 
ATOM     14  C   UNL     1       1.176   4.131  20.175  0.00  0.00    +0.000 A 
ATOM     15  C   UNL     1       1.994   5.028  19.478  0.00  0.00    +0.000 A 
ATOM     16 CL   UNL     1       2.208   6.603  20.157  0.00  0.00    +0.000 Cl
ENDBRANCH   9  10
ENDBRANCH   6   9
TORSDOF 2
ENDMDL
MODEL 6
REMARK VINA RESULT:      -6.1      1.381      1.750
REMARK  Name = 
REMARK  4 active torsions:
REMARK  status: ('A' for Active; 'I' for Inactive)
REMARK    1  A    between atoms: C_1  and  N_2
REMARK    2  A    between atoms: N_4  and  C_5
REMARK    3  A    between atoms: N_6  and  C_7
REMARK    4  A    between atoms: C_7  and  C_8
REMARK                            x       y       z     vdW  Elec       q    Type
REMARK                         _______ _______ _______ _____ _____    ______ ____
ROOT
ATOM      1  C   UNL     1       6.652   4.468  14.468  0.00  0.00    +0.000 C 
ATOM      2  N   UNL     1       5.625   4.567  15.487  0.00  0.00    +0.000 NA
ATOM      3  C   UNL     1       5.942   4.763  16.720  0.00  0.00    +0.000 C 
ATOM      4  N   UNL     1       7.210   4.920  17.198  0.00  0.00    +0.000 N 
ATOM      5  C   UNL     1       7.652   5.376  18.494  0.00  0.00    +0.000 C 
ATOM      6  N   UNL     1       4.973   4.836  17.677  0.00  0.00    +0.000 N 
ATOM      7  H   UNL     1       7.939   4.922  16.498  0.00  0.00    +0.000 HD
ATOM      8  H   UNL     1       5.255   4.505  18.586  0.00  0.00    +0.000 HD
ENDROOT
BRANCH   6   9
ATOM      9  C   UNL     1       3.579   4.550  17.397  0.00  0.00    +0.000 C 
BRANCH   9  10
ATOM     10  C   UNL     1       2.840   4.162  18.657  0.00  0.00    +0.000 A 
ATOM     11  C   UNL     1       2.177   5.163  19.392  0.00  0.00    +0.000 A 
ATOM     12  C   UNL     1       1.485   4.852  20.565  0.00  0.00    +0.000 A 
ATOM     13  C   UNL     1       1.438   3.537  21.019  0.00  0.00    +0.000 A 
ATOM     14  C   UNL     1       2.072   2.530  20.291  0.00  0.00    +0.000 A 
ATOM     15  C   UNL     1       2.764   2.839  19.115  0.00  0.00    +0.000 A 
ATOM     16 CL   UNL     1       3.493   1.531  18.252  0.00  0.00    +0.000 Cl
ENDBRANCH   9  10
ENDBRANCH   6   9
TORSDOF 2
ENDMDL
MODEL 7
REMARK VINA RESULT:      -6.1      1.426      1.798
REMARK  Name = 
REMARK  4 active torsions:
REMARK  status: ('A' for Active; 'I' for Inactive)
REMARK    1  A    between atoms: C_1  and  N_2
REMARK    2  A    between atoms: N_4  and  C_5
REMARK    3  A    between atoms: N_6  and  C_7
REMARK    4  A    between atoms: C_7  and  C_8
REMARK                            x       y       z     vdW  Elec       q    Type
REMARK                         _______ _______ _______ _____ _____    ______ ____
ROOT
ATOM      1  C   UNL     1       6.408   4.409  14.183  0.00  0.00    +0.000 C 
ATOM      2  N   UNL     1       5.548   4.187  15.329  0.00  0.00    +0.000 NA
ATOM      3  C   UNL     1       6.034   4.180  16.522  0.00  0.00    +0.000 C 
ATOM      4  N   UNL     1       7.341   4.392  16.848  0.00  0.00    +0.000 N 
ATOM      5  C   UNL     1       7.936   4.642  18.138  0.00  0.00    +0.000 C 
ATOM      6  N   UNL     1       5.222   3.952  17.593  0.00  0.00    +0.000 N 
ATOM      7  H   UNL     1       7.949   4.616  16.072  0.00  0.00    +0.000 HD
ATOM      8  H   UNL     1       5.670   3.489  18.369  0.00  0.00    +0.000 HD
ENDROOT
BRANCH   6   9
ATOM      9  C   UNL     1       3.833   3.561  17.450  0.00  0.00    +0.000 C 
BRANCH   9  10
ATOM     10  C   UNL     1       2.979   4.176  18.535  0.00  0.00    +0.000 A 
ATOM     11  C   UNL     1       3.215   5.512  18.909  0.00  0.00    +0.000 A 
ATOM     12  C   UNL     1       2.455   6.123  19.909  0.00  0.00    +0.000 A 
ATOM     13  C   UNL     1       1.442   5.411  20.546  0.00  0.00    +0.000 A 
ATOM     14  C   UNL     1       1.181   4.092  20.173  0.00  0.00    +0.000 A 
ATOM     15  C   UNL     1       1.941   3.481  19.169  0.00  0.00    +0.000 A 
ATOM     16 CL   UNL     1       1.533   1.857  18.739  0.00  0.00    +0.000 Cl
ENDBRANCH   9  10
ENDBRANCH   6   9
TORSDOF 2
ENDMDL
MODEL 8
REMARK VINA RESULT:      -6.0      1.156      1.199
REMARK  Name = 
REMARK  4 active torsions:
REMARK  status: ('A' for Active; 'I' for Inactive)
REMARK    1  A    between atoms: C_1  and  N_2
REMARK    2  A    between atoms: N_4  and  C_5
REMARK    3  A    between atoms: N_6  and  C_7
REMARK    4  A    between atoms: C_7  and  C_8
REMARK                            x       y       z     vdW  Elec       q    Type
REMARK                         _______ _______ _______ _____ _____    ______ ____
ROOT
ATOM      1  C   UNL     1       6.921   4.637  14.289  0.00  0.00    +0.000 C 
ATOM      2  N   UNL     1       5.919   4.337  15.294  0.00  0.00    +0.000 NA
ATOM      3  C   UNL     1       6.213   4.385  16.547  0.00  0.00    +0.000 C 
ATOM      4  N   UNL     1       7.427   4.729  17.065  0.00  0.00    +0.000 N 
ATOM      5  C   UNL     1       7.787   5.043  18.426  0.00  0.00    +0.000 C 
ATOM      6  N   UNL     1       5.271   4.084  17.486  0.00  0.00    +0.000 N 
ATOM      7  H   UNL     1       8.123   5.007  16.387  0.00  0.00    +0.000 HD
ATOM      8  H   UNL     1       5.637   3.672  18.330  0.00  0.00    +0.000 HD
ENDROOT
BRANCH   6   9
ATOM      9  C   UNL     1       3.966   3.555  17.139  0.00  0.00    +0.000 C 
BRANCH   9  10
ATOM     10  C   UNL     1       3.018   3.632  18.314  0.00  0.00    +0.000 A 
ATOM     11  C   UNL     1       2.659   2.443  18.976  0.00  0.00    +0.000 A 
ATOM     12  C   UNL     1       1.782   2.464  20.064  0.00  0.00    +0.000 A 
ATOM     13  C   UNL     1       1.256   3.672  20.511  0.00  0.00    +0.000 A 
ATOM     14  C   UNL     1       1.618   4.862  19.879  0.00  0.00    +0.000 A 
ATOM     15  C   UNL     1       2.497   4.843  18.791  0.00  0.00    +0.000 A 
ATOM     16 CL   UNL     1       2.924   6.362  18.085  0.00  0.00    +0.000 Cl
ENDBRANCH   9  10
ENDBRANCH   6   9
TORSDOF 2
ENDMDL
MODEL 9
REMARK VINA RESULT:      -6.0      1.503      1.979
REMARK  Name = 
REMARK  4 active torsions:
REMARK  status: ('A' for Active; 'I' for Inactive)
REMARK    1  A    between atoms: C_1  and  N_2
REMARK    2  A    between atoms: N_4  and  C_5
REMARK    3  A    between atoms: N_6  and  C_7
REMARK    4  A    between atoms: C_7  and  C_8
REMARK                            x       y       z     vdW  Elec       q    Type
REMARK                         _______ _______ _______ _____ _____    ______ ____
ROOT
ATOM      1  C   UNL     1       6.852   4.648  14.574  0.00  0.00    +0.000 C 
ATOM      2  N   UNL     1       5.946   4.241  15.631  0.00  0.00    +0.000 NA
ATOM      3  C   UNL     1       6.297   4.331  16.867  0.00  0.00    +0.000 C 
ATOM      4  N   UNL     1       7.489   4.817  17.319  0.00  0.00    +0.000 N 
ATOM      5  C   UNL     1       7.881   5.181  18.659  0.00  0.00    +0.000 C 
ATOM      6  N   UNL     1       5.448   3.929  17.855  0.00  0.00    +0.000 N 
ATOM      7  H   UNL     1       8.111   5.170  16.605  0.00  0.00    +0.000 HD
ATOM      8  H   UNL     1       5.903   3.568  18.679  0.00  0.00    +0.000 HD
ENDROOT
BRANCH   6   9
ATOM      9  C   UNL     1       4.197   3.250  17.578  0.00  0.00    +0.000 C 
BRANCH   9  10
ATOM     10  C   UNL     1       3.235   3.387  18.736  0.00  0.00    +0.000 A 
ATOM     11  C   UNL     1       2.046   4.117  18.548  0.00  0.00    +0.000 A 
ATOM     12  C   UNL     1       1.129   4.275  19.590  0.00  0.00    +0.000 A 
ATOM     13  C   UNL     1       1.382   3.702  20.834  0.00  0.00    +0.000 A 
ATOM     14  C   UNL     1       2.546   2.959  21.030  0.00  0.00    +0.000 A 
ATOM     15  C   UNL     1       3.464   2.798  19.987  0.00  0.00    +0.000 A 
ATOM     16 CL   UNL     1       4.865   1.834  20.299  0.00  0.00    +0.000 Cl
ENDBRANCH   9  10
ENDBRANCH   6   9
TORSDOF 2
ENDMDL
