MODEL 1
REMARK VINA RESULT:      -8.4      0.000      0.000
REMARK  Name = 
REMARK  5 active torsions:
REMARK  status: ('A' for Active; 'I' for Inactive)
REMARK    1  A    between atoms: C_1  and  N_2
REMARK    2  A    between atoms: N_2  and  C_3
REMARK    3  A    between atoms: C_3  and  C_4
REMARK    4  A    between atoms: N_12  and  C_13
REMARK    5  A    between atoms: C_13  and  C_14
REMARK                            x       y       z     vdW  Elec       q    Type
REMARK                         _______ _______ _______ _____ _____    ______ ____
ROOT
ATOM      1  C   UNL     1       2.002   8.085  18.375  0.00  0.00    +0.000 C 
ATOM      2  C   UNL     1       2.244   7.672  19.838  0.00  0.00    +0.000 C 
ATOM      3  C   UNL     1       1.093   8.092  20.747  0.00  0.00    +0.000 C 
ATOM      4  C   UNL     1       0.777   9.579  20.602  0.00  0.00    +0.000 C 
ATOM      5  N   UNL     1       0.518   9.867  19.195  0.00  0.00    +0.000 N 
ATOM      6  C   UNL     1      -0.680  10.420  18.760  0.00  0.00    +0.000 A 
ATOM      7  N   UNL     1      -1.122  10.121  17.552  0.00  0.00    +0.000 NA
ATOM      8  C   UNL     1      -2.341  10.622  17.123  0.00  0.00    +0.000 A 
ATOM      9  C   UNL     1      -3.116  11.448  17.844  0.00  0.00    +0.000 A 
ATOM     10  N   UNL     1      -2.659  11.811  19.092  0.00  0.00    +0.000 N 
ATOM     11  C   UNL     1      -3.132  12.638  20.066  0.00  0.00    +0.000 A 
ATOM     12  N   UNL     1      -2.302  12.648  21.086  0.00  0.00    +0.000 NA
ATOM     13  N   UNL     1      -1.248  11.821  20.771  0.00  0.00    +0.000 NA
ATOM     14  C   UNL     1      -1.484  11.318  19.573  0.00  0.00    +0.000 A 
ATOM     15  C   UNL     1       1.627   9.574  18.290  0.00  0.00    +0.000 C 
ENDROOT
BRANCH   1  16
ATOM     16  C   UNL     1       3.241   7.806  17.518  0.00  0.00    +0.000 C 
BRANCH  16  21
ATOM     17  C   UNL     1       6.445   4.423  16.294  0.00  0.00    +0.000 C 
ATOM     18  N   UNL     1       5.381   4.839  17.212  0.00  0.00    +0.000 N 
ATOM     19  C   UNL     1       4.835   6.078  16.933  0.00  0.00    +0.000 C 
ATOM     20  O   UNL     1       5.218   6.786  16.007  0.00  0.00    +0.000 OA
ATOM     21  N   UNL     1       3.866   6.526  17.799  0.00  0.00    +0.000 N 
ATOM     22  H   UNL     1       3.289   5.801  18.205  0.00  0.00    +0.000 HD
BRANCH  18  23
ATOM     23  C   UNL     1       5.200   4.087  18.482  0.00  0.00    +0.000 C 
BRANCH  23  24
ATOM     24  C   UNL     1       3.818   3.479  18.654  0.00  0.00    +0.000 C 
ATOM     25  C   UNL     1       3.232   3.295  19.862  0.00  0.00    +0.000 C 
ATOM     26  C   UNL     1       1.865   2.698  20.025  0.00  0.00    +0.000 C 
ATOM     27  C   UNL     1       1.113   2.704  18.699  0.00  0.00    +0.000 C 
ATOM     28  O   UNL     1       1.958   2.128  17.695  0.00  0.00    +0.000 OA
ATOM     29  C   UNL     1       3.090   2.973  17.406  0.00  0.00    +0.000 C 
ENDBRANCH  23  24
ENDBRANCH  18  23
ENDBRANCH  16  21
ENDBRANCH   1  16
TORSDOF 4
ENDMDL
MODEL 2
REMARK VINA RESULT:      -8.2      0.999      1.253
REMARK  Name = 
REMARK  5 active torsions:
REMARK  status: ('A' for Active; 'I' for Inactive)
REMARK    1  A    between atoms: C_1  and  N_2
REMARK    2  A    between atoms: N_2  and  C_3
REMARK    3  A    between atoms: C_3  and  C_4
REMARK    4  A    between atoms: N_12  and  C_13
REMARK    5  A    between atoms: C_13  and  C_14
REMARK                            x       y       z     vdW  Elec       q    Type
REMARK                         _______ _______ _______ _____ _____    ______ ____
ROOT
ATOM      1  C   UNL     1       1.755   8.197  18.730  0.00  0.00    +0.000 C 
ATOM      2  C   UNL     1       1.988   7.838  20.208  0.00  0.00    +0.000 C 
ATOM      3  C   UNL     1       0.841   8.311  21.097  0.00  0.00    +0.000 C 
ATOM      4  C   UNL     1       0.549   9.796  20.893  0.00  0.00    +0.000 C 
ATOM      5  N   UNL     1       0.298  10.033  19.475  0.00  0.00    +0.000 N 
ATOM      6  C   UNL     1      -0.891  10.587  19.016  0.00  0.00    +0.000 A 
ATOM      7  N   UNL     1      -1.335  10.248  17.819  0.00  0.00    +0.000 NA
ATOM      8  C   UNL     1      -2.545  10.751  17.366  0.00  0.00    +0.000 A 
ATOM      9  C   UNL     1      -3.308  11.616  18.053  0.00  0.00    +0.000 A 
ATOM     10  N   UNL     1      -2.849  12.020  19.288  0.00  0.00    +0.000 N 
ATOM     11  C   UNL     1      -3.311  12.892  20.227  0.00  0.00    +0.000 A 
ATOM     12  N   UNL     1      -2.483  12.928  21.248  0.00  0.00    +0.000 NA
ATOM     13  N   UNL     1      -1.442  12.074  20.969  0.00  0.00    +0.000 NA
ATOM     14  C   UNL     1      -1.683  11.528  19.790  0.00  0.00    +0.000 A 
ATOM     15  C   UNL     1       1.404   9.688  18.585  0.00  0.00    +0.000 C 
ENDROOT
BRANCH   1  16
ATOM     16  C   UNL     1       2.992   7.867  17.888  0.00  0.00    +0.000 C 
BRANCH  16  21
ATOM     17  C   UNL     1       5.827   4.083  16.962  0.00  0.00    +0.000 C 
ATOM     18  N   UNL     1       4.461   4.602  17.071  0.00  0.00    +0.000 N 
ATOM     19  C   UNL     1       4.382   5.941  17.410  0.00  0.00    +0.000 C 
ATOM     20  O   UNL     1       5.369   6.637  17.622  0.00  0.00    +0.000 OA
ATOM     21  N   UNL     1       3.118   6.455  17.569  0.00  0.00    +0.000 N 
ATOM     22  H   UNL     1       2.412   6.044  16.973  0.00  0.00    +0.000 HD
BRANCH  18  23
ATOM     23  C   UNL     1       3.331   3.636  17.121  0.00  0.00    +0.000 C 
BRANCH  23  24
ATOM     24  C   UNL     1       2.734   3.447  18.505  0.00  0.00    +0.000 C 
ATOM     25  C   UNL     1       1.518   3.926  18.862  0.00  0.00    +0.000 C 
ATOM     26  C   UNL     1       0.931   3.732  20.229  0.00  0.00    +0.000 C 
ATOM     27  C   UNL     1       1.679   2.640  20.986  0.00  0.00    +0.000 C 
ATOM     28  O   UNL     1       3.083   2.916  20.914  0.00  0.00    +0.000 OA
ATOM     29  C   UNL     1       3.587   2.755  19.573  0.00  0.00    +0.000 C 
ENDBRANCH  23  24
ENDBRANCH  18  23
ENDBRANCH  16  21
ENDBRANCH   1  16
TORSDOF 4
ENDMDL
MODEL 3
REMARK VINA RESULT:      -8.2      2.838      8.750
REMARK  Name = 
REMARK  5 active torsions:
REMARK  status: ('A' for Active; 'I' for Inactive)
REMARK    1  A    between atoms: C_1  and  N_2
REMARK    2  A    between atoms: N_2  and  C_3
REMARK    3  A    between atoms: C_3  and  C_4
REMARK    4  A    between atoms: N_12  and  C_13
REMARK    5  A    between atoms: C_13  and  C_14
REMARK                            x       y       z     vdW  Elec       q    Type
REMARK                         _______ _______ _______ _____ _____    ______ ____
ROOT
ATOM      1  C   UNL     1       2.040   5.626  20.477  0.00  0.00    +0.000 C 
ATOM      2  C   UNL     1       1.076   4.555  19.935  0.00  0.00    +0.000 C 
ATOM      3  C   UNL     1       1.786   3.560  19.022  0.00  0.00    +0.000 C 
ATOM      4  C   UNL     1       2.560   4.268  17.912  0.00  0.00    +0.000 C 
ATOM      5  N   UNL     1       3.476   5.228  18.521  0.00  0.00    +0.000 N 
ATOM      6  C   UNL     1       4.848   5.180  18.308  0.00  0.00    +0.000 A 
ATOM      7  N   UNL     1       5.659   5.602  19.261  0.00  0.00    +0.000 NA
ATOM      8  C   UNL     1       7.032   5.513  19.086  0.00  0.00    +0.000 A 
ATOM      9  C   UNL     1       7.623   5.053  17.972  0.00  0.00    +0.000 A 
ATOM     10  N   UNL     1       6.802   4.644  16.944  0.00  0.00    +0.000 N 
ATOM     11  C   UNL     1       7.027   4.174  15.685  0.00  0.00    +0.000 A 
ATOM     12  N   UNL     1       5.882   3.931  15.087  0.00  0.00    +0.000 NA
ATOM     13  N   UNL     1       4.876   4.263  15.965  0.00  0.00    +0.000 NA
ATOM     14  C   UNL     1       5.447   4.681  17.081  0.00  0.00    +0.000 A 
ATOM     15  C   UNL     1       2.838   6.265  19.328  0.00  0.00    +0.000 C 
ENDROOT
BRANCH   1  16
ATOM     16  C   UNL     1       1.274   6.707  21.248  0.00  0.00    +0.000 C 
BRANCH  16  21
ATOM     17  C   UNL     1       0.919  11.507  21.039  0.00  0.00    +0.000 C 
ATOM     18  N   UNL     1       0.786  10.229  20.334  0.00  0.00    +0.000 N 
ATOM     19  C   UNL     1       1.078   9.117  21.102  0.00  0.00    +0.000 C 
ATOM     20  O   UNL     1       1.439   9.188  22.273  0.00  0.00    +0.000 OA
ATOM     21  N   UNL     1       1.011   7.901  20.465  0.00  0.00    +0.000 N 
ATOM     22  H   UNL     1       0.313   7.841  19.735  0.00  0.00    +0.000 HD
BRANCH  18  23
ATOM     23  C   UNL     1       0.664  10.241  18.851  0.00  0.00    +0.000 C 
BRANCH  23  24
ATOM     24  C   UNL     1      -0.756  10.431  18.345  0.00  0.00    +0.000 C 
ATOM     25  C   UNL     1      -1.296   9.687  17.350  0.00  0.00    +0.000 C 
ATOM     26  C   UNL     1      -2.701   9.877  16.857  0.00  0.00    +0.000 C 
ATOM     27  C   UNL     1      -3.513  10.702  17.849  0.00  0.00    +0.000 C 
ATOM     28  O   UNL     1      -2.771  11.886  18.171  0.00  0.00    +0.000 OA
ATOM     29  C   UNL     1      -1.585  11.578  18.931  0.00  0.00    +0.000 C 
ENDBRANCH  23  24
ENDBRANCH  18  23
ENDBRANCH  16  21
ENDBRANCH   1  16
TORSDOF 4
ENDMDL
MODEL 4
REMARK VINA RESULT:      -8.1      1.236      1.633
REMARK  Name = 
REMARK  5 active torsions:
REMARK  status: ('A' for Active; 'I' for Inactive)
REMARK    1  A    between atoms: C_1  and  N_2
REMARK    2  A    between atoms: N_2  and  C_3
REMARK    3  A    between atoms: C_3  and  C_4
REMARK    4  A    between atoms: N_12  and  C_13
REMARK    5  A    between atoms: C_13  and  C_14
REMARK                            x       y       z     vdW  Elec       q    Type
REMARK                         _______ _______ _______ _____ _____    ______ ____
ROOT
ATOM      1  C   UNL     1       2.126   7.897  18.347  0.00  0.00    +0.000 C 
ATOM      2  C   UNL     1       2.378   6.939  19.525  0.00  0.00    +0.000 C 
ATOM      3  C   UNL     1       1.417   7.193  20.682  0.00  0.00    +0.000 C 
ATOM      4  C   UNL     1       1.425   8.660  21.107  0.00  0.00    +0.000 C 
ATOM      5  N   UNL     1       1.134   9.486  19.940  0.00  0.00    +0.000 N 
ATOM      6  C   UNL     1       0.058  10.365  19.904  0.00  0.00    +0.000 A 
ATOM      7  N   UNL     1      -0.526  10.615  18.746  0.00  0.00    +0.000 NA
ATOM      8  C   UNL     1      -1.634  11.448  18.700  0.00  0.00    +0.000 A 
ATOM      9  C   UNL     1      -2.154  12.074  19.768  0.00  0.00    +0.000 A 
ATOM     10  N   UNL     1      -1.539  11.865  20.983  0.00  0.00    +0.000 N 
ATOM     11  C   UNL     1      -1.746  12.346  22.240  0.00  0.00    +0.000 A 
ATOM     12  N   UNL     1      -0.862  11.832  23.067  0.00  0.00    +0.000 NA
ATOM     13  N   UNL     1      -0.041  11.005  22.335  0.00  0.00    +0.000 NA
ATOM     14  C   UNL     1      -0.468  11.029  21.085  0.00  0.00    +0.000 A 
ATOM     15  C   UNL     1       2.082   9.354  18.836  0.00  0.00    +0.000 C 
ENDROOT
BRANCH   1  16
ATOM     16  C   UNL     1       3.209   7.737  17.274  0.00  0.00    +0.000 C 
BRANCH  16  21
ATOM     17  C   UNL     1       6.655   4.822  15.591  0.00  0.00    +0.000 C 
ATOM     18  N   UNL     1       5.669   5.086  16.642  0.00  0.00    +0.000 N 
ATOM     19  C   UNL     1       4.932   6.242  16.459  0.00  0.00    +0.000 C 
ATOM     20  O   UNL     1       5.100   7.000  15.509  0.00  0.00    +0.000 OA
ATOM     21  N   UNL     1       4.028   6.550  17.447  0.00  0.00    +0.000 N 
ATOM     22  H   UNL     1       3.607   5.752  17.905  0.00  0.00    +0.000 HD
BRANCH  18  23
ATOM     23  C   UNL     1       5.749   4.309  17.908  0.00  0.00    +0.000 C 
BRANCH  23  24
ATOM     24  C   UNL     1       4.464   3.588  18.278  0.00  0.00    +0.000 C 
ATOM     25  C   UNL     1       3.654   2.996  17.367  0.00  0.00    +0.000 C 
ATOM     26  C   UNL     1       2.388   2.282  17.740  0.00  0.00    +0.000 C 
ATOM     27  C   UNL     1       2.356   1.987  19.235  0.00  0.00    +0.000 C 
ATOM     28  O   UNL     1       2.653   3.197  19.944  0.00  0.00    +0.000 OA
ATOM     29  C   UNL     1       4.020   3.607  19.744  0.00  0.00    +0.000 C 
ENDBRANCH  23  24
ENDBRANCH  18  23
ENDBRANCH  16  21
ENDBRANCH   1  16
TORSDOF 4
ENDMDL
MODEL 5
REMARK VINA RESULT:      -8.1      1.429      1.783
REMARK  Name = 
REMARK  5 active torsions:
REMARK  status: ('A' for Active; 'I' for Inactive)
REMARK    1  A    between atoms: C_1  and  N_2
REMARK    2  A    between atoms: N_2  and  C_3
REMARK    3  A    between atoms: C_3  and  C_4
REMARK    4  A    between atoms: N_12  and  C_13
REMARK    5  A    between atoms: C_13  and  C_14
REMARK                            x       y       z     vdW  Elec       q    Type
REMARK                         _______ _______ _______ _____ _____    ______ ____
ROOT
ATOM      1  C   UNL     1       1.697   8.271  18.886  0.00  0.00    +0.000 C 
ATOM      2  C   UNL     1       2.035   7.463  20.152  0.00  0.00    +0.000 C 
ATOM      3  C   UNL     1       1.121   7.825  21.319  0.00  0.00    +0.000 C 
ATOM      4  C   UNL     1       1.102   9.331  21.572  0.00  0.00    +0.000 C 
ATOM      5  N   UNL     1       0.731  10.008  20.334  0.00  0.00    +0.000 N 
ATOM      6  C   UNL     1      -0.373  10.848  20.251  0.00  0.00    +0.000 A 
ATOM      7  N   UNL     1      -1.018  10.947  19.103  0.00  0.00    +0.000 NA
ATOM      8  C   UNL     1      -2.152  11.740  19.017  0.00  0.00    +0.000 A 
ATOM      9  C   UNL     1      -2.641  12.472  20.030  0.00  0.00    +0.000 A 
ATOM     10  N   UNL     1      -1.964  12.422  21.229  0.00  0.00    +0.000 N 
ATOM     11  C   UNL     1      -2.127  13.040  22.432  0.00  0.00    +0.000 A 
ATOM     12  N   UNL     1      -1.190  12.649  23.266  0.00  0.00    +0.000 NA
ATOM     13  N   UNL     1      -0.378  11.764  22.594  0.00  0.00    +0.000 NA
ATOM     14  C   UNL     1      -0.864  11.631  21.373  0.00  0.00    +0.000 A 
ATOM     15  C   UNL     1       1.630   9.774  19.207  0.00  0.00    +0.000 C 
ENDROOT
BRANCH   1  16
ATOM     16  C   UNL     1       2.733   8.016  17.786  0.00  0.00    +0.000 C 
BRANCH  16  21
ATOM     17  C   UNL     1       5.793   4.365  17.065  0.00  0.00    +0.000 C 
ATOM     18  N   UNL     1       4.400   4.816  17.103  0.00  0.00    +0.000 N 
ATOM     19  C   UNL     1       4.238   6.155  17.410  0.00  0.00    +0.000 C 
ATOM     20  O   UNL     1       5.179   6.904  17.652  0.00  0.00    +0.000 OA
ATOM     21  N   UNL     1       2.944   6.607  17.502  0.00  0.00    +0.000 N 
ATOM     22  H   UNL     1       2.287   6.149  16.883  0.00  0.00    +0.000 HD
BRANCH  18  23
ATOM     23  C   UNL     1       3.319   3.794  17.121  0.00  0.00    +0.000 C 
BRANCH  23  24
ATOM     24  C   UNL     1       2.727   3.540  18.497  0.00  0.00    +0.000 C 
ATOM     25  C   UNL     1       1.495   3.967  18.867  0.00  0.00    +0.000 C 
ATOM     26  C   UNL     1       0.914   3.709  20.226  0.00  0.00    +0.000 C 
ATOM     27  C   UNL     1       1.695   2.616  20.947  0.00  0.00    +0.000 C 
ATOM     28  O   UNL     1       3.090   2.940  20.887  0.00  0.00    +0.000 OA
ATOM     29  C   UNL     1       3.600   2.840  19.543  0.00  0.00    +0.000 C 
ENDBRANCH  23  24
ENDBRANCH  18  23
ENDBRANCH  16  21
ENDBRANCH   1  16
TORSDOF 4
ENDMDL
MODEL 6
REMARK VINA RESULT:      -8.1      3.371      9.019
REMARK  Name = 
REMARK  5 active torsions:
REMARK  status: ('A' for Active; 'I' for Inactive)
REMARK    1  A    between atoms: C_1  and  N_2
REMARK    2  A    between atoms: N_2  and  C_3
REMARK    3  A    between atoms: C_3  and  C_4
REMARK    4  A    between atoms: N_12  and  C_13
REMARK    5  A    between atoms: C_13  and  C_14
REMARK                            x       y       z     vdW  Elec       q    Type
REMARK                         _______ _______ _______ _____ _____    ______ ____
ROOT
ATOM      1  C   UNL     1       1.079   8.544  20.310  0.00  0.00    +0.000 C 
ATOM      2  C   UNL     1       1.452   9.295  19.020  0.00  0.00    +0.000 C 
ATOM      3  C   UNL     1       1.738   8.339  17.866  0.00  0.00    +0.000 C 
ATOM      4  C   UNL     1       2.776   7.287  18.252  0.00  0.00    +0.000 C 
ATOM      5  N   UNL     1       2.318   6.599  19.455  0.00  0.00    +0.000 N 
ATOM      6  C   UNL     1       2.127   5.223  19.493  0.00  0.00    +0.000 A 
ATOM      7  N   UNL     1       1.201   4.727  20.294  0.00  0.00    +0.000 NA
ATOM      8  C   UNL     1       0.963   3.361  20.306  0.00  0.00    +0.000 A 
ATOM      9  C   UNL     1       1.647   2.467  19.575  0.00  0.00    +0.000 A 
ATOM     10  N   UNL     1       2.648   2.952  18.762  0.00  0.00    +0.000 N 
ATOM     11  C   UNL     1       3.557   2.367  17.933  0.00  0.00    +0.000 A 
ATOM     12  N   UNL     1       4.315   3.287  17.379  0.00  0.00    +0.000 NA
ATOM     13  N   UNL     1       3.909   4.508  17.867  0.00  0.00    +0.000 NA
ATOM     14  C   UNL     1       2.898   4.289  18.690  0.00  0.00    +0.000 A 
ATOM     15  C   UNL     1       2.121   7.456  20.621  0.00  0.00    +0.000 C 
ENDROOT
BRANCH   1  16
ATOM     16  C   UNL     1       0.965   9.513  21.491  0.00  0.00    +0.000 C 
BRANCH  16  21
ATOM     17  C   UNL     1      -2.546  12.333  23.202  0.00  0.00    +0.000 C 
ATOM     18  N   UNL     1      -1.724  11.950  22.052  0.00  0.00    +0.000 N 
ATOM     19  C   UNL     1      -0.808  10.946  22.311  0.00  0.00    +0.000 C 
ATOM     20  O   UNL     1      -0.676  10.429  23.415  0.00  0.00    +0.000 OA
ATOM     21  N   UNL     1       0.015  10.589  21.270  0.00  0.00    +0.000 N 
ATOM     22  H   UNL     1      -0.400  10.667  20.351  0.00  0.00    +0.000 HD
BRANCH  18  23
ATOM     23  C   UNL     1      -1.715  12.832  20.854  0.00  0.00    +0.000 C 
BRANCH  23  24
ATOM     24  C   UNL     1      -2.473  12.271  19.663  0.00  0.00    +0.000 C 
ATOM     25  C   UNL     1      -1.864  11.814  18.542  0.00  0.00    +0.000 C 
ATOM     26  C   UNL     1      -2.618  11.257  17.370  0.00  0.00    +0.000 C 
ATOM     27  C   UNL     1      -4.054  10.927  17.761  0.00  0.00    +0.000 C 
ATOM     28  O   UNL     1      -4.621  12.069  18.417  0.00  0.00    +0.000 OA
ATOM     29  C   UNL     1      -4.004  12.306  19.698  0.00  0.00    +0.000 C 
ENDBRANCH  23  24
ENDBRANCH  18  23
ENDBRANCH  16  21
ENDBRANCH   1  16
TORSDOF 4
ENDMDL
MODEL 7
REMARK VINA RESULT:      -8.0      1.071      1.266
REMARK  Name = 
REMARK  5 active torsions:
REMARK  status: ('A' for Active; 'I' for Inactive)
REMARK    1  A    between atoms: C_1  and  N_2
REMARK    2  A    between atoms: N_2  and  C_3
REMARK    3  A    between atoms: C_3  and  C_4
REMARK    4  A    between atoms: N_12  and  C_13
REMARK    5  A    between atoms: C_13  and  C_14
REMARK                            x       y       z     vdW  Elec       q    Type
REMARK                         _______ _______ _______ _____ _____    ______ ____
ROOT
ATOM      1  C   UNL     1       1.859   8.049  18.834  0.00  0.00    +0.000 C 
ATOM      2  C   UNL     1       2.093   7.195  20.093  0.00  0.00    +0.000 C 
ATOM      3  C   UNL     1       1.126   7.558  21.216  0.00  0.00    +0.000 C 
ATOM      4  C   UNL     1       1.145   9.056  21.511  0.00  0.00    +0.000 C 
ATOM      5  N   UNL     1       0.870   9.780  20.274  0.00  0.00    +0.000 N 
ATOM      6  C   UNL     1      -0.197  10.662  20.153  0.00  0.00    +0.000 A 
ATOM      7  N   UNL     1      -0.770  10.815  18.973  0.00  0.00    +0.000 NA
ATOM      8  C   UNL     1      -1.869  11.651  18.846  0.00  0.00    +0.000 A 
ATOM      9  C   UNL     1      -2.391  12.372  19.851  0.00  0.00    +0.000 A 
ATOM     10  N   UNL     1      -1.787  12.265  21.085  0.00  0.00    +0.000 N 
ATOM     11  C   UNL     1      -1.999  12.855  22.294  0.00  0.00    +0.000 A 
ATOM     12  N   UNL     1      -1.125  12.407  23.169  0.00  0.00    +0.000 NA
ATOM     13  N   UNL     1      -0.307  11.513  22.518  0.00  0.00    +0.000 NA
ATOM     14  C   UNL     1      -0.725  11.431  21.268  0.00  0.00    +0.000 A 
ATOM     15  C   UNL     1       1.825   9.544  19.194  0.00  0.00    +0.000 C 
ENDROOT
BRANCH   1  16
ATOM     16  C   UNL     1       2.947   7.787  17.787  0.00  0.00    +0.000 C 
BRANCH  16  21
ATOM     17  C   UNL     1       6.145   4.561  16.182  0.00  0.00    +0.000 C 
ATOM     18  N   UNL     1       5.150   4.909  17.200  0.00  0.00    +0.000 N 
ATOM     19  C   UNL     1       4.542   6.136  17.011  0.00  0.00    +0.000 C 
ATOM     20  O   UNL     1       4.822   6.887  16.082  0.00  0.00    +0.000 OA
ATOM     21  N   UNL     1       3.635   6.521  17.970  0.00  0.00    +0.000 N 
ATOM     22  H   UNL     1       3.119   5.763  18.397  0.00  0.00    +0.000 HD
BRANCH  18  23
ATOM     23  C   UNL     1       5.102   4.110  18.454  0.00  0.00    +0.000 C 
BRANCH  23  24
ATOM     24  C   UNL     1       3.735   3.526  18.767  0.00  0.00    +0.000 C 
ATOM     25  C   UNL     1       3.173   3.568  20.000  0.00  0.00    +0.000 C 
ATOM     26  C   UNL     1       1.821   2.992  20.302  0.00  0.00    +0.000 C 
ATOM     27  C   UNL     1       1.046   2.731  19.015  0.00  0.00    +0.000 C 
ATOM     28  O   UNL     1       1.886   1.986  18.123  0.00  0.00    +0.000 OA
ATOM     29  C   UNL     1       2.996   2.777  17.654  0.00  0.00    +0.000 C 
ENDBRANCH  23  24
ENDBRANCH  18  23
ENDBRANCH  16  21
ENDBRANCH   1  16
TORSDOF 4
ENDMDL
MODEL 8
REMARK VINA RESULT:      -7.9      3.833      9.443
REMARK  Name = 
REMARK  5 active torsions:
REMARK  status: ('A' for Active; 'I' for Inactive)
REMARK    1  A    between atoms: C_1  and  N_2
REMARK    2  A    between atoms: N_2  and  C_3
REMARK    3  A    between atoms: C_3  and  C_4
REMARK    4  A    between atoms: N_12  and  C_13
REMARK    5  A    between atoms: C_13  and  C_14
REMARK                            x       y       z     vdW  Elec       q    Type
REMARK                         _______ _______ _______ _____ _____    ______ ____
ROOT
ATOM      1  C   UNL     1       1.000   8.708  20.366  0.00  0.00    +0.000 C 
ATOM      2  C   UNL     1       1.372   9.476  19.085  0.00  0.00    +0.000 C 
ATOM      3  C   UNL     1       1.688   8.534  17.927  0.00  0.00    +0.000 C 
ATOM      4  C   UNL     1       2.742   7.500  18.317  0.00  0.00    +0.000 C 
ATOM      5  N   UNL     1       2.285   6.793  19.510  0.00  0.00    +0.000 N 
ATOM      6  C   UNL     1       2.120   5.414  19.536  0.00  0.00    +0.000 A 
ATOM      7  N   UNL     1       1.195   4.894  20.323  0.00  0.00    +0.000 NA
ATOM      8  C   UNL     1       0.983   3.524  20.323  0.00  0.00    +0.000 A 
ATOM      9  C   UNL     1       1.692   2.649  19.593  0.00  0.00    +0.000 A 
ATOM     10  N   UNL     1       2.692   3.159  18.793  0.00  0.00    +0.000 N 
ATOM     11  C   UNL     1       3.620   2.597  17.970  0.00  0.00    +0.000 A 
ATOM     12  N   UNL     1       4.366   3.536  17.431  0.00  0.00    +0.000 NA
ATOM     13  N   UNL     1       3.932   4.745  17.923  0.00  0.00    +0.000 NA
ATOM     14  C   UNL     1       2.917   4.501  18.734  0.00  0.00    +0.000 A 
ATOM     15  C   UNL     1       2.060   7.638  20.680  0.00  0.00    +0.000 C 
ENDROOT
BRANCH   1  16
ATOM     16  C   UNL     1       0.855   9.666  21.553  0.00  0.00    +0.000 C 
BRANCH  16  21
ATOM     17  C   UNL     1      -0.762  14.200  21.377  0.00  0.00    +0.000 C 
ATOM     18  N   UNL     1      -1.093  12.773  21.380  0.00  0.00    +0.000 N 
ATOM     19  C   UNL     1       0.000  11.931  21.467  0.00  0.00    +0.000 C 
ATOM     20  O   UNL     1       1.157  12.338  21.519  0.00  0.00    +0.000 OA
ATOM     21  N   UNL     1      -0.264  10.583  21.426  0.00  0.00    +0.000 N 
ATOM     22  H   UNL     1      -1.145  10.308  21.839  0.00  0.00    +0.000 HD
BRANCH  18  23
ATOM     23  C   UNL     1      -2.468  12.358  20.991  0.00  0.00    +0.000 C 
BRANCH  23  24
ATOM     24  C   UNL     1      -3.496  12.491  22.102  0.00  0.00    +0.000 C 
ATOM     25  C   UNL     1      -3.193  12.354  23.416  0.00  0.00    +0.000 C 
ATOM     26  C   UNL     1      -4.212  12.491  24.509  0.00  0.00    +0.000 C 
ATOM     27  C   UNL     1      -5.475  13.165  23.986  0.00  0.00    +0.000 C 
ATOM     28  O   UNL     1      -5.890  12.490  22.791  0.00  0.00    +0.000 OA
ATOM     29  C   UNL     1      -4.961  12.706  21.710  0.00  0.00    +0.000 C 
ENDBRANCH  23  24
ENDBRANCH  18  23
ENDBRANCH  16  21
ENDBRANCH   1  16
TORSDOF 4
ENDMDL
MODEL 9
REMARK VINA RESULT:      -7.7      1.360      2.915
REMARK  Name = 
REMARK  5 active torsions:
REMARK  status: ('A' for Active; 'I' for Inactive)
REMARK    1  A    between atoms: C_1  and  N_2
REMARK    2  A    between atoms: N_2  and  C_3
REMARK    3  A    between atoms: C_3  and  C_4
REMARK    4  A    between atoms: N_12  and  C_13
REMARK    5  A    between atoms: C_13  and  C_14
REMARK                            x       y       z     vdW  Elec       q    Type
REMARK                         _______ _______ _______ _____ _____    ______ ____
ROOT
ATOM      1  C   UNL     1       1.608   8.184  18.709  0.00  0.00    +0.000 C 
ATOM      2  C   UNL     1       1.940   7.974  20.197  0.00  0.00    +0.000 C 
ATOM      3  C   UNL     1       0.840   8.509  21.108  0.00  0.00    +0.000 C 
ATOM      4  C   UNL     1       0.497   9.961  20.782  0.00  0.00    +0.000 C 
ATOM      5  N   UNL     1       0.153  10.054  19.367  0.00  0.00    +0.000 N 
ATOM      6  C   UNL     1      -1.075  10.538  18.934  0.00  0.00    +0.000 A 
ATOM      7  N   UNL     1      -1.584  10.076  17.805  0.00  0.00    +0.000 NA
ATOM      8  C   UNL     1      -2.832  10.509  17.385  0.00  0.00    +0.000 A 
ATOM      9  C   UNL     1      -3.573  11.421  18.033  0.00  0.00    +0.000 A 
ATOM     10  N   UNL     1      -3.049  11.953  19.192  0.00  0.00    +0.000 N 
ATOM     11  C   UNL     1      -3.474  12.902  20.071  0.00  0.00    +0.000 A 
ATOM     12  N   UNL     1      -2.586  13.054  21.029  0.00  0.00    +0.000 NA
ATOM     13  N   UNL     1      -1.543  12.197  20.767  0.00  0.00    +0.000 NA
ATOM     14  C   UNL     1      -1.842  11.534  19.663  0.00  0.00    +0.000 A 
ATOM     15  C   UNL     1       1.210   9.646  18.445  0.00  0.00    +0.000 C 
ENDROOT
BRANCH   1  16
ATOM     16  C   UNL     1       2.799   7.797  17.825  0.00  0.00    +0.000 C 
BRANCH  16  21
ATOM     17  C   UNL     1       2.495   3.026  18.418  0.00  0.00    +0.000 C 
ATOM     18  N   UNL     1       3.309   4.236  18.559  0.00  0.00    +0.000 N 
ATOM     19  C   UNL     1       2.685   5.398  18.144  0.00  0.00    +0.000 C 
ATOM     20  O   UNL     1       1.550   5.419  17.678  0.00  0.00    +0.000 OA
ATOM     21  N   UNL     1       3.431   6.550  18.216  0.00  0.00    +0.000 N 
ATOM     22  H   UNL     1       4.098   6.579  18.977  0.00  0.00    +0.000 HD
BRANCH  18  23
ATOM     23  C   UNL     1       4.766   4.090  18.821  0.00  0.00    +0.000 C 
BRANCH  23  24
ATOM     24  C   UNL     1       5.637   4.216  17.583  0.00  0.00    +0.000 C 
ATOM     25  C   UNL     1       5.229   3.839  16.346  0.00  0.00    +0.000 C 
ATOM     26  C   UNL     1       6.093   3.970  15.126  0.00  0.00    +0.000 C 
ATOM     27  C   UNL     1       7.268   4.903  15.395  0.00  0.00    +0.000 C 
ATOM     28  O   UNL     1       7.912   4.486  16.606  0.00  0.00    +0.000 OA
ATOM     29  C   UNL     1       7.075   4.712  17.757  0.00  0.00    +0.000 C 
ENDBRANCH  23  24
ENDBRANCH  18  23
ENDBRANCH  16  21
ENDBRANCH   1  16
TORSDOF 4
ENDMDL
