MODEL 1
REMARK VINA RESULT:      -7.5      0.000      0.000
REMARK  Name = 
REMARK  6 active torsions:
REMARK  status: ('A' for Active; 'I' for Inactive)
REMARK    1  A    between atoms: C_1  and  O_2
REMARK    2  A    between atoms: O_2  and  C_3
REMARK    3  A    between atoms: C_8  and  N_9
REMARK    4  A    between atoms: C_10  and  C_12
REMARK    5  A    between atoms: C_13  and  C_14
REMARK    6  A    between atoms: C_21  and  C_22
REMARK                            x       y       z     vdW  Elec       q    Type
REMARK                         _______ _______ _______ _____ _____    ______ ____
ROOT
ATOM      1  C   UNL     1       4.957   6.438  16.978  0.00  0.00    +0.000 C 
ATOM      2  C   UNL     1       6.306   6.615  17.036  0.00  0.00    +0.000 C 
ATOM      3  C   UNL     1       7.036   7.594  17.914  0.00  0.00    +0.000 C 
ATOM      4  N   UNL     1       7.144   5.818  16.245  0.00  0.00    +0.000 N 
ATOM      5  C   UNL     1       6.684   5.009  15.268  0.00  0.00    +0.000 A 
ATOM      6  N   UNL     1       7.263   4.385  14.273  0.00  0.00    +0.000 NA
ATOM      7  N   UNL     1       6.240   3.758  13.581  0.00  0.00    +0.000 NA
ATOM      8  N   UNL     1       5.060   3.987  14.148  0.00  0.00    +0.000 NA
ATOM      9  N   UNL     1       5.351   4.745  15.215  0.00  0.00    +0.000 N 
ATOM     10  C   UNL     1       4.390   5.213  16.204  0.00  0.00    +0.000 C 
ATOM     11  H   UNL     1       8.137   6.049  16.243  0.00  0.00    +0.000 HD
ENDROOT
BRANCH  10  12
ATOM     12  C   UNL     1       4.016   4.031  17.116  0.00  0.00    +0.000 A 
ATOM     13  C   UNL     1       2.888   3.221  16.869  0.00  0.00    +0.000 A 
ATOM     14  C   UNL     1       2.518   2.206  17.760  0.00  0.00    +0.000 A 
ATOM     15  C   UNL     1       3.274   1.975  18.906  0.00  0.00    +0.000 A 
ATOM     16  C   UNL     1       4.401   2.748  19.145  0.00  0.00    +0.000 A 
ATOM     17  F   UNL     1       5.130   2.522  20.245  0.00  0.00    +0.000 F 
ATOM     18  C   UNL     1       4.778   3.765  18.268  0.00  0.00    +0.000 A 
ENDBRANCH  10  12
BRANCH   1  20
ATOM     19  N   UNL     1       3.342   6.973  18.805  0.00  0.00    +0.000 N 
ATOM     20  C   UNL     1       3.839   7.264  17.551  0.00  0.00    +0.000 C 
ATOM     21  O   UNL     1       3.508   8.253  16.894  0.00  0.00    +0.000 OA
ATOM     22  H   UNL     1       3.781   6.271  19.388  0.00  0.00    +0.000 HD
BRANCH  19  28
ATOM     23  C   UNL     1       1.633   7.091  20.575  0.00  0.00    +0.000 A 
ATOM     24  C   UNL     1       0.573   7.772  21.199  0.00  0.00    +0.000 A 
ATOM     25  C   UNL     1       0.160   9.024  20.751  0.00  0.00    +0.000 A 
ATOM     26  C   UNL     1       0.784   9.598  19.654  0.00  0.00    +0.000 A 
ATOM     27  C   UNL     1       1.811   8.918  19.005  0.00  0.00    +0.000 A 
ATOM     28  C   UNL     1       2.266   7.670  19.451  0.00  0.00    +0.000 A 
BRANCH  23  30
ATOM     29  C   UNL     1       1.324   4.739  20.555  0.00  0.00    +0.000 C 
ATOM     30  O   UNL     1       2.091   5.861  21.000  0.00  0.00    +0.000 OA
ENDBRANCH  23  30
ENDBRANCH  19  28
ENDBRANCH   1  20
TORSDOF 4
ENDMDL
MODEL 2
REMARK VINA RESULT:      -7.4      0.865      1.254
REMARK  Name = 
REMARK  6 active torsions:
REMARK  status: ('A' for Active; 'I' for Inactive)
REMARK    1  A    between atoms: C_1  and  O_2
REMARK    2  A    between atoms: O_2  and  C_3
REMARK    3  A    between atoms: C_8  and  N_9
REMARK    4  A    between atoms: C_10  and  C_12
REMARK    5  A    between atoms: C_13  and  C_14
REMARK    6  A    between atoms: C_21  and  C_22
REMARK                            x       y       z     vdW  Elec       q    Type
REMARK                         _______ _______ _______ _____ _____    ______ ____
ROOT
ATOM      1  C   UNL     1       4.966   6.690  17.038  0.00  0.00    +0.000 C 
ATOM      2  C   UNL     1       6.303   6.942  17.056  0.00  0.00    +0.000 C 
ATOM      3  C   UNL     1       6.991   8.034  17.828  0.00  0.00    +0.000 C 
ATOM      4  N   UNL     1       7.173   6.121  16.324  0.00  0.00    +0.000 N 
ATOM      5  C   UNL     1       6.743   5.202  15.434  0.00  0.00    +0.000 A 
ATOM      6  N   UNL     1       7.341   4.521  14.488  0.00  0.00    +0.000 NA
ATOM      7  N   UNL     1       6.345   3.781  13.875  0.00  0.00    +0.000 NA
ATOM      8  N   UNL     1       5.162   4.000  14.440  0.00  0.00    +0.000 NA
ATOM      9  N   UNL     1       5.426   4.866  15.429  0.00  0.00    +0.000 N 
ATOM     10  C   UNL     1       4.454   5.372  16.389  0.00  0.00    +0.000 C 
ATOM     11  H   UNL     1       8.151   6.402  16.284  0.00  0.00    +0.000 HD
ENDROOT
BRANCH  10  12
ATOM     12  C   UNL     1       4.156   4.261  17.411  0.00  0.00    +0.000 A 
ATOM     13  C   UNL     1       5.009   4.000  18.505  0.00  0.00    +0.000 A 
ATOM     14  C   UNL     1       4.765   2.928  19.373  0.00  0.00    +0.000 A 
ATOM     15  C   UNL     1       3.659   2.107  19.171  0.00  0.00    +0.000 A 
ATOM     16  C   UNL     1       2.799   2.371  18.114  0.00  0.00    +0.000 A 
ATOM     17  F   UNL     1       1.733   1.582  17.924  0.00  0.00    +0.000 F 
ATOM     18  C   UNL     1       3.033   3.432  17.241  0.00  0.00    +0.000 A 
ENDBRANCH  10  12
BRANCH   1  20
ATOM     19  N   UNL     1       3.267   7.222  18.790  0.00  0.00    +0.000 N 
ATOM     20  C   UNL     1       3.812   7.506  17.554  0.00  0.00    +0.000 C 
ATOM     21  O   UNL     1       3.495   8.482  16.872  0.00  0.00    +0.000 OA
ATOM     22  H   UNL     1       3.692   6.534  19.399  0.00  0.00    +0.000 HD
BRANCH  19  28
ATOM     23  C   UNL     1       1.549   7.385  20.546  0.00  0.00    +0.000 A 
ATOM     24  C   UNL     1       0.454   8.057  21.118  0.00  0.00    +0.000 A 
ATOM     25  C   UNL     1      -0.021   9.249  20.577  0.00  0.00    +0.000 A 
ATOM     26  C   UNL     1       0.578   9.771  19.440  0.00  0.00    +0.000 A 
ATOM     27  C   UNL     1       1.640   9.096  18.844  0.00  0.00    +0.000 A 
ATOM     28  C   UNL     1       2.156   7.910  19.382  0.00  0.00    +0.000 A 
BRANCH  23  30
ATOM     29  C   UNL     1       1.415   5.018  20.627  0.00  0.00    +0.000 C 
ATOM     30  O   UNL     1       2.066   6.215  21.062  0.00  0.00    +0.000 OA
ENDBRANCH  23  30
ENDBRANCH  19  28
ENDBRANCH   1  20
TORSDOF 4
ENDMDL
MODEL 3
REMARK VINA RESULT:      -7.3      2.838      4.384
REMARK  Name = 
REMARK  6 active torsions:
REMARK  status: ('A' for Active; 'I' for Inactive)
REMARK    1  A    between atoms: C_1  and  O_2
REMARK    2  A    between atoms: O_2  and  C_3
REMARK    3  A    between atoms: C_8  and  N_9
REMARK    4  A    between atoms: C_10  and  C_12
REMARK    5  A    between atoms: C_13  and  C_14
REMARK    6  A    between atoms: C_21  and  C_22
REMARK                            x       y       z     vdW  Elec       q    Type
REMARK                         _______ _______ _______ _____ _____    ______ ____
ROOT
ATOM      1  C   UNL     1       2.947   5.210  18.210  0.00  0.00    +0.000 C 
ATOM      2  C   UNL     1       2.080   4.209  17.895  0.00  0.00    +0.000 C 
ATOM      3  C   UNL     1       0.760   4.365  17.191  0.00  0.00    +0.000 C 
ATOM      4  N   UNL     1       2.409   2.883  18.210  0.00  0.00    +0.000 N 
ATOM      5  C   UNL     1       3.457   2.550  18.992  0.00  0.00    +0.000 A 
ATOM      6  N   UNL     1       3.804   1.446  19.605  0.00  0.00    +0.000 NA
ATOM      7  N   UNL     1       4.958   1.756  20.305  0.00  0.00    +0.000 NA
ATOM      8  N   UNL     1       5.314   3.022  20.115  0.00  0.00    +0.000 NA
ATOM      9  N   UNL     1       4.388   3.501  19.273  0.00  0.00    +0.000 N 
ATOM     10  C   UNL     1       4.374   4.844  18.709  0.00  0.00    +0.000 C 
ATOM     11  H   UNL     1       1.692   2.177  18.049  0.00  0.00    +0.000 HD
ENDROOT
BRANCH  10  12
ATOM     12  C   UNL     1       5.447   4.920  17.608  0.00  0.00    +0.000 A 
ATOM     13  C   UNL     1       6.524   5.828  17.673  0.00  0.00    +0.000 A 
ATOM     14  C   UNL     1       7.439   5.941  16.619  0.00  0.00    +0.000 A 
ATOM     15  C   UNL     1       7.302   5.140  15.489  0.00  0.00    +0.000 A 
ATOM     16  C   UNL     1       6.262   4.224  15.427  0.00  0.00    +0.000 A 
ATOM     17  F   UNL     1       6.133   3.450  14.341  0.00  0.00    +0.000 F 
ATOM     18  C   UNL     1       5.341   4.105  16.467  0.00  0.00    +0.000 A 
ENDBRANCH  10  12
BRANCH   1  20
ATOM     19  N   UNL     1       1.924   7.319  19.073  0.00  0.00    +0.000 N 
ATOM     20  C   UNL     1       2.768   6.703  18.171  0.00  0.00    +0.000 C 
ATOM     21  O   UNL     1       3.501   7.313  17.389  0.00  0.00    +0.000 OA
ATOM     22  H   UNL     1       1.494   6.793  19.823  0.00  0.00    +0.000 HD
BRANCH  19  28
ATOM     23  C   UNL     1       1.019   9.276  20.263  0.00  0.00    +0.000 A 
ATOM     24  C   UNL     1       0.746  10.655  20.305  0.00  0.00    +0.000 A 
ATOM     25  C   UNL     1       1.121  11.494  19.259  0.00  0.00    +0.000 A 
ATOM     26  C   UNL     1       1.750  10.960  18.144  0.00  0.00    +0.000 A 
ATOM     27  C   UNL     1       1.993   9.591  18.075  0.00  0.00    +0.000 A 
ATOM     28  C   UNL     1       1.653   8.727  19.123  0.00  0.00    +0.000 A 
BRANCH  23  30
ATOM     29  C   UNL     1      -0.266   8.917  22.224  0.00  0.00    +0.000 C 
ATOM     30  O   UNL     1       0.687   8.412  21.285  0.00  0.00    +0.000 OA
ENDBRANCH  23  30
ENDBRANCH  19  28
ENDBRANCH   1  20
TORSDOF 4
ENDMDL
MODEL 4
REMARK VINA RESULT:      -7.2      6.064      8.848
REMARK  Name = 
REMARK  6 active torsions:
REMARK  status: ('A' for Active; 'I' for Inactive)
REMARK    1  A    between atoms: C_1  and  O_2
REMARK    2  A    between atoms: O_2  and  C_3
REMARK    3  A    between atoms: C_8  and  N_9
REMARK    4  A    between atoms: C_10  and  C_12
REMARK    5  A    between atoms: C_13  and  C_14
REMARK    6  A    between atoms: C_21  and  C_22
REMARK                            x       y       z     vdW  Elec       q    Type
REMARK                         _______ _______ _______ _____ _____    ______ ____
ROOT
ATOM      1  C   UNL     1      -0.088  10.815  20.890  0.00  0.00    +0.000 C 
ATOM      2  C   UNL     1       0.243   9.626  21.465  0.00  0.00    +0.000 C 
ATOM      3  C   UNL     1      -0.042   9.215  22.883  0.00  0.00    +0.000 C 
ATOM      4  N   UNL     1       0.889   8.644  20.701  0.00  0.00    +0.000 N 
ATOM      5  C   UNL     1       1.387   8.878  19.469  0.00  0.00    +0.000 A 
ATOM      6  N   UNL     1       2.216   8.221  18.697  0.00  0.00    +0.000 NA
ATOM      7  N   UNL     1       2.382   9.012  17.572  0.00  0.00    +0.000 NA
ATOM      8  N   UNL     1       1.663  10.127  17.653  0.00  0.00    +0.000 NA
ATOM      9  N   UNL     1       1.025  10.021  18.827  0.00  0.00    +0.000 N 
ATOM     10  C   UNL     1       0.057  10.975  19.350  0.00  0.00    +0.000 C 
ATOM     11  H   UNL     1       1.209   7.810  21.193  0.00  0.00    +0.000 HD
ENDROOT
BRANCH  10  12
ATOM     12  C   UNL     1      -1.267  10.793  18.587  0.00  0.00    +0.000 A 
ATOM     13  C   UNL     1      -1.400   9.875  17.524  0.00  0.00    +0.000 A 
ATOM     14  C   UNL     1      -2.588   9.788  16.787  0.00  0.00    +0.000 A 
ATOM     15  C   UNL     1      -3.667  10.605  17.109  0.00  0.00    +0.000 A 
ATOM     16  C   UNL     1      -3.558  11.492  18.170  0.00  0.00    +0.000 A 
ATOM     17  F   UNL     1      -4.599  12.275  18.481  0.00  0.00    +0.000 F 
ATOM     18  C   UNL     1      -2.379  11.592  18.908  0.00  0.00    +0.000 A 
ENDBRANCH  10  12
BRANCH   1  20
ATOM     19  N   UNL     1      -1.472  12.038  22.572  0.00  0.00    +0.000 N 
ATOM     20  C   UNL     1      -0.594  12.089  21.509  0.00  0.00    +0.000 C 
ATOM     21  O   UNL     1      -0.083  13.131  21.090  0.00  0.00    +0.000 OA
ATOM     22  H   UNL     1      -1.710  11.155  23.006  0.00  0.00    +0.000 HD
BRANCH  19  28
ATOM     23  C   UNL     1      -3.447  13.317  23.298  0.00  0.00    +0.000 A 
ATOM     24  C   UNL     1      -4.001  14.441  23.937  0.00  0.00    +0.000 A 
ATOM     25  C   UNL     1      -3.189  15.401  24.535  0.00  0.00    +0.000 A 
ATOM     26  C   UNL     1      -1.810  15.263  24.477  0.00  0.00    +0.000 A 
ATOM     27  C   UNL     1      -1.249  14.174  23.817  0.00  0.00    +0.000 A 
ATOM     28  C   UNL     1      -2.041  13.178  23.231  0.00  0.00    +0.000 A 
BRANCH  23  30
ATOM     29  C   UNL     1      -5.143  12.785  21.728  0.00  0.00    +0.000 C 
ATOM     30  O   UNL     1      -4.213  12.330  22.714  0.00  0.00    +0.000 OA
ENDBRANCH  23  30
ENDBRANCH  19  28
ENDBRANCH   1  20
TORSDOF 4
ENDMDL
MODEL 5
REMARK VINA RESULT:      -7.1      6.698      9.152
REMARK  Name = 
REMARK  6 active torsions:
REMARK  status: ('A' for Active; 'I' for Inactive)
REMARK    1  A    between atoms: C_1  and  O_2
REMARK    2  A    between atoms: O_2  and  C_3
REMARK    3  A    between atoms: C_8  and  N_9
REMARK    4  A    between atoms: C_10  and  C_12
REMARK    5  A    between atoms: C_13  and  C_14
REMARK    6  A    between atoms: C_21  and  C_22
REMARK                            x       y       z     vdW  Elec       q    Type
REMARK                         _______ _______ _______ _____ _____    ______ ____
ROOT
ATOM      1  C   UNL     1      -1.000  12.593  19.802  0.00  0.00    +0.000 C 
ATOM      2  C   UNL     1      -0.690  13.250  18.651  0.00  0.00    +0.000 C 
ATOM      3  C   UNL     1       0.047  14.557  18.544  0.00  0.00    +0.000 C 
ATOM      4  N   UNL     1      -1.044  12.689  17.416  0.00  0.00    +0.000 N 
ATOM      5  C   UNL     1      -1.857  11.618  17.300  0.00  0.00    +0.000 A 
ATOM      6  N   UNL     1      -2.505  11.089  16.292  0.00  0.00    +0.000 NA
ATOM      7  N   UNL     1      -3.222  10.031  16.826  0.00  0.00    +0.000 NA
ATOM      8  N   UNL     1      -3.010   9.912  18.132  0.00  0.00    +0.000 NA
ATOM      9  N   UNL     1      -2.136  10.889  18.413  0.00  0.00    +0.000 N 
ATOM     10  C   UNL     1      -1.540  11.137  19.718  0.00  0.00    +0.000 C 
ATOM     11  H   UNL     1      -0.884  13.257  16.585  0.00  0.00    +0.000 HD
ENDROOT
BRANCH  10  12
ATOM     12  C   UNL     1      -0.462  10.068  19.972  0.00  0.00    +0.000 A 
ATOM     13  C   UNL     1      -0.382   9.357  21.188  0.00  0.00    +0.000 A 
ATOM     14  C   UNL     1       0.660   8.453  21.429  0.00  0.00    +0.000 A 
ATOM     15  C   UNL     1       1.630   8.233  20.456  0.00  0.00    +0.000 A 
ATOM     16  C   UNL     1       1.546   8.906  19.246  0.00  0.00    +0.000 A 
ATOM     17  F   UNL     1       2.478   8.690  18.309  0.00  0.00    +0.000 F 
ATOM     18  C   UNL     1       0.517   9.813  18.995  0.00  0.00    +0.000 A 
ENDBRANCH  10  12
BRANCH   1  20
ATOM     19  N   UNL     1      -1.949  13.788  21.779  0.00  0.00    +0.000 N 
ATOM     20  C   UNL     1      -0.921  13.046  21.234  0.00  0.00    +0.000 C 
ATOM     21  O   UNL     1       0.031  12.610  21.885  0.00  0.00    +0.000 OA
ATOM     22  H   UNL     1      -2.801  13.955  21.259  0.00  0.00    +0.000 HD
BRANCH  19  28
ATOM     23  C   UNL     1      -3.012  13.887  23.998  0.00  0.00    +0.000 A 
ATOM     24  C   UNL     1      -3.046  14.394  25.310  0.00  0.00    +0.000 A 
ATOM     25  C   UNL     1      -2.062  15.264  25.770  0.00  0.00    +0.000 A 
ATOM     26  C   UNL     1      -1.045  15.661  24.914  0.00  0.00    +0.000 A 
ATOM     27  C   UNL     1      -1.020  15.194  23.603  0.00  0.00    +0.000 A 
ATOM     28  C   UNL     1      -1.981  14.296  23.121  0.00  0.00    +0.000 A 
BRANCH  23  30
ATOM     29  C   UNL     1      -5.314  13.402  23.692  0.00  0.00    +0.000 C 
ATOM     30  O   UNL     1      -3.952  13.004  23.508  0.00  0.00    +0.000 OA
ENDBRANCH  23  30
ENDBRANCH  19  28
ENDBRANCH   1  20
TORSDOF 4
ENDMDL
MODEL 6
REMARK VINA RESULT:      -7.1      5.900      8.762
REMARK  Name = 
REMARK  6 active torsions:
REMARK  status: ('A' for Active; 'I' for Inactive)
REMARK    1  A    between atoms: C_1  and  O_2
REMARK    2  A    between atoms: O_2  and  C_3
REMARK    3  A    between atoms: C_8  and  N_9
REMARK    4  A    between atoms: C_10  and  C_12
REMARK    5  A    between atoms: C_13  and  C_14
REMARK    6  A    between atoms: C_21  and  C_22
REMARK                            x       y       z     vdW  Elec       q    Type
REMARK                         _______ _______ _______ _____ _____    ______ ____
ROOT
ATOM      1  C   UNL     1      -0.090  10.860  20.928  0.00  0.00    +0.000 C 
ATOM      2  C   UNL     1       0.183   9.637  21.458  0.00  0.00    +0.000 C 
ATOM      3  C   UNL     1      -0.144   9.181  22.854  0.00  0.00    +0.000 C 
ATOM      4  N   UNL     1       0.805   8.661  20.667  0.00  0.00    +0.000 N 
ATOM      5  C   UNL     1       1.335   8.925  19.455  0.00  0.00    +0.000 A 
ATOM      6  N   UNL     1       2.152   8.267  18.670  0.00  0.00    +0.000 NA
ATOM      7  N   UNL     1       2.371   9.095  17.582  0.00  0.00    +0.000 NA
ATOM      8  N   UNL     1       1.695  10.233  17.696  0.00  0.00    +0.000 NA
ATOM      9  N   UNL     1       1.030  10.106  18.853  0.00  0.00    +0.000 N 
ATOM     10  C   UNL     1       0.091  11.077  19.398  0.00  0.00    +0.000 C 
ATOM     11  H   UNL     1       1.082   7.796  21.130  0.00  0.00    +0.000 HD
ENDROOT
BRANCH  10  12
ATOM     12  C   UNL     1      -1.225  10.978  18.605  0.00  0.00    +0.000 A 
ATOM     13  C   UNL     1      -2.387  11.680  18.990  0.00  0.00    +0.000 A 
ATOM     14  C   UNL     1      -3.596  11.507  18.306  0.00  0.00    +0.000 A 
ATOM     15  C   UNL     1      -3.663  10.642  17.218  0.00  0.00    +0.000 A 
ATOM     16  C   UNL     1      -2.520   9.967  16.814  0.00  0.00    +0.000 A 
ATOM     17  F   UNL     1      -2.585   9.137  15.764  0.00  0.00    +0.000 F 
ATOM     18  C   UNL     1      -1.311  10.126  17.490  0.00  0.00    +0.000 A 
ENDBRANCH  10  12
BRANCH   1  20
ATOM     19  N   UNL     1      -1.493  12.073  22.601  0.00  0.00    +0.000 N 
ATOM     20  C   UNL     1      -0.556  12.128  21.589  0.00  0.00    +0.000 C 
ATOM     21  O   UNL     1       0.034  13.158  21.255  0.00  0.00    +0.000 OA
ATOM     22  H   UNL     1      -1.803  11.184  22.972  0.00  0.00    +0.000 HD
BRANCH  19  28
ATOM     23  C   UNL     1      -3.435  13.350  23.415  0.00  0.00    +0.000 A 
ATOM     24  C   UNL     1      -3.960  14.470  24.085  0.00  0.00    +0.000 A 
ATOM     25  C   UNL     1      -3.123  15.422  24.659  0.00  0.00    +0.000 A 
ATOM     26  C   UNL     1      -1.748  15.282  24.547  0.00  0.00    +0.000 A 
ATOM     27  C   UNL     1      -1.216  14.197  23.855  0.00  0.00    +0.000 A 
ATOM     28  C   UNL     1      -2.033  13.209  23.291  0.00  0.00    +0.000 A 
BRANCH  23  30
ATOM     29  C   UNL     1      -4.936  12.764  21.674  0.00  0.00    +0.000 C 
ATOM     30  O   UNL     1      -4.225  12.370  22.852  0.00  0.00    +0.000 OA
ENDBRANCH  23  30
ENDBRANCH  19  28
ENDBRANCH   1  20
TORSDOF 4
ENDMDL
MODEL 7
REMARK VINA RESULT:      -7.0      2.900      4.361
REMARK  Name = 
REMARK  6 active torsions:
REMARK  status: ('A' for Active; 'I' for Inactive)
REMARK    1  A    between atoms: C_1  and  O_2
REMARK    2  A    between atoms: O_2  and  C_3
REMARK    3  A    between atoms: C_8  and  N_9
REMARK    4  A    between atoms: C_10  and  C_12
REMARK    5  A    between atoms: C_13  and  C_14
REMARK    6  A    between atoms: C_21  and  C_22
REMARK                            x       y       z     vdW  Elec       q    Type
REMARK                         _______ _______ _______ _____ _____    ______ ____
ROOT
ATOM      1  C   UNL     1       2.798   5.386  18.257  0.00  0.00    +0.000 C 
ATOM      2  C   UNL     1       1.989   4.357  17.885  0.00  0.00    +0.000 C 
ATOM      3  C   UNL     1       0.688   4.474  17.138  0.00  0.00    +0.000 C 
ATOM      4  N   UNL     1       2.365   3.038  18.178  0.00  0.00    +0.000 N 
ATOM      5  C   UNL     1       3.399   2.731  18.989  0.00  0.00    +0.000 A 
ATOM      6  N   UNL     1       3.773   1.627  19.586  0.00  0.00    +0.000 NA
ATOM      7  N   UNL     1       4.887   1.968  20.335  0.00  0.00    +0.000 NA
ATOM      8  N   UNL     1       5.192   3.253  20.191  0.00  0.00    +0.000 NA
ATOM      9  N   UNL     1       4.275   3.714  19.328  0.00  0.00    +0.000 N 
ATOM     10  C   UNL     1       4.222   5.069  18.798  0.00  0.00    +0.000 C 
ATOM     11  H   UNL     1       1.687   2.306  17.972  0.00  0.00    +0.000 HD
ENDROOT
BRANCH  10  12
ATOM     12  C   UNL     1       5.328   5.222  17.740  0.00  0.00    +0.000 A 
ATOM     13  C   UNL     1       5.514   4.278  16.708  0.00  0.00    +0.000 A 
ATOM     14  C   UNL     1       6.581   4.391  15.808  0.00  0.00    +0.000 A 
ATOM     15  C   UNL     1       7.471   5.456  15.915  0.00  0.00    +0.000 A 
ATOM     16  C   UNL     1       7.282   6.405  16.908  0.00  0.00    +0.000 A 
ATOM     17  F   UNL     1       8.137   7.432  17.007  0.00  0.00    +0.000 F 
ATOM     18  C   UNL     1       6.226   6.301  17.814  0.00  0.00    +0.000 A 
ENDBRANCH  10  12
BRANCH   1  20
ATOM     19  N   UNL     1       1.837   7.455  19.274  0.00  0.00    +0.000 N 
ATOM     20  C   UNL     1       2.554   6.870  18.250  0.00  0.00    +0.000 C 
ATOM     21  O   UNL     1       3.130   7.506  17.365  0.00  0.00    +0.000 OA
ATOM     22  H   UNL     1       1.552   6.915  20.082  0.00  0.00    +0.000 HD
BRANCH  19  28
ATOM     23  C   UNL     1       0.902   9.348  20.541  0.00  0.00    +0.000 A 
ATOM     24  C   UNL     1       0.584  10.715  20.628  0.00  0.00    +0.000 A 
ATOM     25  C   UNL     1       0.898  11.593  19.594  0.00  0.00    +0.000 A 
ATOM     26  C   UNL     1       1.510  11.110  18.447  0.00  0.00    +0.000 A 
ATOM     27  C   UNL     1       1.797   9.753  18.335  0.00  0.00    +0.000 A 
ATOM     28  C   UNL     1       1.519   8.850  19.370  0.00  0.00    +0.000 A 
BRANCH  23  30
ATOM     29  C   UNL     1      -0.191   8.947  22.608  0.00  0.00    +0.000 C 
ATOM     30  O   UNL     1       0.632   8.447  21.550  0.00  0.00    +0.000 OA
ENDBRANCH  23  30
ENDBRANCH  19  28
ENDBRANCH   1  20
TORSDOF 4
ENDMDL
MODEL 8
REMARK VINA RESULT:      -7.0      8.259     11.346
REMARK  Name = 
REMARK  6 active torsions:
REMARK  status: ('A' for Active; 'I' for Inactive)
REMARK    1  A    between atoms: C_1  and  O_2
REMARK    2  A    between atoms: O_2  and  C_3
REMARK    3  A    between atoms: C_8  and  N_9
REMARK    4  A    between atoms: C_10  and  C_12
REMARK    5  A    between atoms: C_13  and  C_14
REMARK    6  A    between atoms: C_21  and  C_22
REMARK                            x       y       z     vdW  Elec       q    Type
REMARK                         _______ _______ _______ _____ _____    ______ ____
ROOT
ATOM      1  C   UNL     1       1.858  14.809  19.302  0.00  0.00    +0.000 C 
ATOM      2  C   UNL     1       2.848  14.277  18.533  0.00  0.00    +0.000 C 
ATOM      3  C   UNL     1       2.853  12.906  17.916  0.00  0.00    +0.000 C 
ATOM      4  N   UNL     1       3.982  15.045  18.235  0.00  0.00    +0.000 N 
ATOM      5  C   UNL     1       4.250  16.225  18.832  0.00  0.00    +0.000 A 
ATOM      6  N   UNL     1       5.323  16.973  18.901  0.00  0.00    +0.000 NA
ATOM      7  N   UNL     1       4.982  18.039  19.716  0.00  0.00    +0.000 NA
ATOM      8  N   UNL     1       3.723  17.949  20.130  0.00  0.00    +0.000 NA
ATOM      9  N   UNL     1       3.266  16.830  19.550  0.00  0.00    +0.000 N 
ATOM     10  C   UNL     1       1.903  16.325  19.648  0.00  0.00    +0.000 C 
ATOM     11  H   UNL     1       4.742  14.577  17.743  0.00  0.00    +0.000 HD
ENDROOT
BRANCH  10  12
ATOM     12  C   UNL     1       1.000  17.186  18.747  0.00  0.00    +0.000 A 
ATOM     13  C   UNL     1      -0.302  17.567  19.135  0.00  0.00    +0.000 A 
ATOM     14  C   UNL     1      -1.138  18.276  18.263  0.00  0.00    +0.000 A 
ATOM     15  C   UNL     1      -0.683  18.630  16.996  0.00  0.00    +0.000 A 
ATOM     16  C   UNL     1       0.606  18.285  16.615  0.00  0.00    +0.000 A 
ATOM     17  F   UNL     1       1.043  18.630  15.397  0.00  0.00    +0.000 F 
ATOM     18  C   UNL     1       1.446  17.574  17.471  0.00  0.00    +0.000 A 
ENDBRANCH  10  12
BRANCH   1  20
ATOM     19  N   UNL     1       0.610  13.963  21.293  0.00  0.00    +0.000 N 
ATOM     20  C   UNL     1       0.654  14.161  19.928  0.00  0.00    +0.000 C 
ATOM     21  O   UNL     1      -0.297  13.948  19.172  0.00  0.00    +0.000 OA
ATOM     22  H   UNL     1       1.336  14.333  21.894  0.00  0.00    +0.000 HD
BRANCH  19  28
ATOM     23  C   UNL     1      -0.439  11.941  22.228  0.00  0.00    +0.000 A 
ATOM     24  C   UNL     1      -1.502  11.330  22.918  0.00  0.00    +0.000 A 
ATOM     25  C   UNL     1      -2.564  12.082  23.414  0.00  0.00    +0.000 A 
ATOM     26  C   UNL     1      -2.590  13.452  23.203  0.00  0.00    +0.000 A 
ATOM     27  C   UNL     1      -1.562  14.064  22.491  0.00  0.00    +0.000 A 
ATOM     28  C   UNL     1      -0.467  13.337  22.004  0.00  0.00    +0.000 A 
BRANCH  23  30
ATOM     29  C   UNL     1       0.319  10.078  20.972  0.00  0.00    +0.000 C 
ATOM     30  O   UNL     1       0.643  11.240  21.741  0.00  0.00    +0.000 OA
ENDBRANCH  23  30
ENDBRANCH  19  28
ENDBRANCH   1  20
TORSDOF 4
ENDMDL
MODEL 9
REMARK VINA RESULT:      -7.0      8.217     11.150
REMARK  Name = 
REMARK  6 active torsions:
REMARK  status: ('A' for Active; 'I' for Inactive)
REMARK    1  A    between atoms: C_1  and  O_2
REMARK    2  A    between atoms: O_2  and  C_3
REMARK    3  A    between atoms: C_8  and  N_9
REMARK    4  A    between atoms: C_10  and  C_12
REMARK    5  A    between atoms: C_13  and  C_14
REMARK    6  A    between atoms: C_21  and  C_22
REMARK                            x       y       z     vdW  Elec       q    Type
REMARK                         _______ _______ _______ _____ _____    ______ ____
ROOT
ATOM      1  C   UNL     1       1.824  14.506  19.162  0.00  0.00    +0.000 C 
ATOM      2  C   UNL     1       2.766  13.855  18.428  0.00  0.00    +0.000 C 
ATOM      3  C   UNL     1       2.665  12.451  17.896  0.00  0.00    +0.000 C 
ATOM      4  N   UNL     1       3.954  14.514  18.082  0.00  0.00    +0.000 N 
ATOM      5  C   UNL     1       4.313  15.706  18.604  0.00  0.00    +0.000 A 
ATOM      6  N   UNL     1       5.440  16.373  18.627  0.00  0.00    +0.000 NA
ATOM      7  N   UNL     1       5.185  17.510  19.374  0.00  0.00    +0.000 NA
ATOM      8  N   UNL     1       3.924  17.542  19.793  0.00  0.00    +0.000 NA
ATOM      9  N   UNL     1       3.381  16.426  19.284  0.00  0.00    +0.000 N 
ATOM     10  C   UNL     1       1.985  16.033  19.413  0.00  0.00    +0.000 C 
ATOM     11  H   UNL     1       4.674  13.961  17.620  0.00  0.00    +0.000 HD
ENDROOT
BRANCH  10  12
ATOM     12  C   UNL     1       1.145  16.903  18.461  0.00  0.00    +0.000 A 
ATOM     13  C   UNL     1       1.698  17.503  17.309  0.00  0.00    +0.000 A 
ATOM     14  C   UNL     1       0.937  18.361  16.505  0.00  0.00    +0.000 A 
ATOM     15  C   UNL     1      -0.391  18.623  16.829  0.00  0.00    +0.000 A 
ATOM     16  C   UNL     1      -0.952  18.017  17.943  0.00  0.00    +0.000 A 
ATOM     17  F   UNL     1      -2.232  18.268  18.251  0.00  0.00    +0.000 F 
ATOM     18  C   UNL     1      -0.205  17.165  18.755  0.00  0.00    +0.000 A 
ENDBRANCH  10  12
BRANCH   1  20
ATOM     19  N   UNL     1       0.520  13.895  21.203  0.00  0.00    +0.000 N 
ATOM     20  C   UNL     1       0.577  13.991  19.827  0.00  0.00    +0.000 C 
ATOM     21  O   UNL     1      -0.387  13.792  19.085  0.00  0.00    +0.000 OA
ATOM     22  H   UNL     1       1.270  14.256  21.779  0.00  0.00    +0.000 HD
BRANCH  19  28
ATOM     23  C   UNL     1      -0.659  12.028  22.294  0.00  0.00    +0.000 A 
ATOM     24  C   UNL     1      -1.761  11.545  23.020  0.00  0.00    +0.000 A 
ATOM     25  C   UNL     1      -2.777  12.400  23.439  0.00  0.00    +0.000 A 
ATOM     26  C   UNL     1      -2.717  13.746  23.113  0.00  0.00    +0.000 A 
ATOM     27  C   UNL     1      -1.649  14.230  22.363  0.00  0.00    +0.000 A 
ATOM     28  C   UNL     1      -0.599  13.400  21.952  0.00  0.00    +0.000 A 
BRANCH  23  30
ATOM     29  C   UNL     1       0.302   9.860  22.306  0.00  0.00    +0.000 C 
ATOM     30  O   UNL     1       0.381  11.223  21.879  0.00  0.00    +0.000 OA
ENDBRANCH  23  30
ENDBRANCH  19  28
ENDBRANCH   1  20
TORSDOF 4
ENDMDL
