MODEL 1
REMARK VINA RESULT:      -7.0      0.000      0.000
REMARK  Name = 
REMARK  9 active torsions:
REMARK  status: ('A' for Active; 'I' for Inactive)
REMARK    1  A    between atoms: C_1  and  C_2
REMARK    2  A    between atoms: C_6  and  N_7
REMARK    3  A    between atoms: C_8  and  S_9
REMARK    4  A    between atoms: N_10  and  C_11
REMARK    5  A    between atoms: C_11  and  C_12
REMARK    6  A    between atoms: C_12  and  C_13
REMARK    7  A    between atoms: C_12  and  C_14
REMARK    8  A    between atoms: C_14  and  S_15
REMARK    9  A    between atoms: S_15  and  C_16
REMARK                            x       y       z     vdW  Elec       q    Type
REMARK                         _______ _______ _______ _____ _____    ______ ____
ROOT
ATOM      1  N   UNL     1       1.059   9.007  19.370  0.00  0.00    +0.000 NA
ATOM      2  C   UNL     1       1.322   8.492  20.524  0.00  0.00    +0.000 C 
ATOM      3  N   UNL     1       1.927   7.267  20.625  0.00  0.00    +0.000 N 
ATOM      4  H   UNL     1       2.237   6.998  21.549  0.00  0.00    +0.000 HD
ENDROOT
BRANCH   1  10
ATOM      5  C   UNL     1      -2.977  11.722  18.573  0.00  0.00    +0.000 C 
ATOM      6  C   UNL     1      -1.483  11.638  18.605  0.00  0.00    +0.000 A 
ATOM      7  C   UNL     1      -0.659  12.762  18.532  0.00  0.00    +0.000 A 
ATOM      8  C   UNL     1       0.715  12.625  18.681  0.00  0.00    +0.000 A 
ATOM      9  C   UNL     1       1.260  11.371  18.982  0.00  0.00    +0.000 A 
ATOM     10  C   UNL     1       0.445  10.230  19.081  0.00  0.00    +0.000 A 
ATOM     11  C   UNL     1      -0.904  10.375  18.797  0.00  0.00    +0.000 A 
ENDBRANCH   1  10
BRANCH   2  12
ATOM     12  S   UNL     1       1.027   9.139  22.124  0.00  0.00    +0.000 S 
ATOM     13  H   UNL     1       0.554   8.026  22.689  0.00  0.00    +0.000 HD
ENDBRANCH   2  12
BRANCH   3  14
ATOM     14  C   UNL     1       2.553   6.613  19.501  0.00  0.00    +0.000 C 
BRANCH  14  15
ATOM     15  C   UNL     1       2.447   5.084  19.624  0.00  0.00    +0.000 C 
ATOM     16  C   UNL     1       1.327   4.691  20.601  0.00  0.00    +0.000 C 
BRANCH  15  17
ATOM     17  C   UNL     1       2.177   4.458  18.240  0.00  0.00    +0.000 C 
BRANCH  17  18
ATOM     18  S   UNL     1       3.658   3.564  17.635  0.00  0.00    +0.000 S 
BRANCH  18  19
ATOM     19  C   UNL     1       4.970   4.770  17.666  0.00  0.00    +0.000 A 
ATOM     20  C   UNL     1       6.065   4.756  18.535  0.00  0.00    +0.000 A 
ATOM     21  C   UNL     1       7.009   5.790  18.500  0.00  0.00    +0.000 A 
ATOM     22  C   UNL     1       6.868   6.833  17.592  0.00  0.00    +0.000 A 
ATOM     23 CL   UNL     1       8.020   8.113  17.564  0.00  0.00    +0.000 Cl
ATOM     24  C   UNL     1       5.791   6.859  16.712  0.00  0.00    +0.000 A 
ATOM     25  C   UNL     1       4.852   5.827  16.750  0.00  0.00    +0.000 A 
ENDBRANCH  18  19
ENDBRANCH  17  18
ENDBRANCH  15  17
ENDBRANCH  14  15
ENDBRANCH   3  14
TORSDOF 7
ENDMDL
MODEL 2
REMARK VINA RESULT:      -7.0      0.368      1.470
REMARK  Name = 
REMARK  9 active torsions:
REMARK  status: ('A' for Active; 'I' for Inactive)
REMARK    1  A    between atoms: C_1  and  C_2
REMARK    2  A    between atoms: C_6  and  N_7
REMARK    3  A    between atoms: C_8  and  S_9
REMARK    4  A    between atoms: N_10  and  C_11
REMARK    5  A    between atoms: C_11  and  C_12
REMARK    6  A    between atoms: C_12  and  C_13
REMARK    7  A    between atoms: C_12  and  C_14
REMARK    8  A    between atoms: C_14  and  S_15
REMARK    9  A    between atoms: S_15  and  C_16
REMARK                            x       y       z     vdW  Elec       q    Type
REMARK                         _______ _______ _______ _____ _____    ______ ____
ROOT
ATOM      1  N   UNL     1       1.149   9.132  19.353  0.00  0.00    +0.000 NA
ATOM      2  C   UNL     1       1.322   8.580  20.507  0.00  0.00    +0.000 C 
ATOM      3  N   UNL     1       1.865   7.326  20.610  0.00  0.00    +0.000 N 
ATOM      4  H   UNL     1       2.109   7.023  21.543  0.00  0.00    +0.000 HD
ENDROOT
BRANCH   1  10
ATOM      5  C   UNL     1       1.642  13.991  18.682  0.00  0.00    +0.000 C 
ATOM      6  C   UNL     1       0.737  12.803  18.781  0.00  0.00    +0.000 A 
ATOM      7  C   UNL     1      -0.612  12.847  18.426  0.00  0.00    +0.000 A 
ATOM      8  C   UNL     1      -1.369  11.682  18.434  0.00  0.00    +0.000 A 
ATOM      9  C   UNL     1      -0.757  10.457  18.722  0.00  0.00    +0.000 A 
ATOM     10  C   UNL     1       0.606  10.388  19.061  0.00  0.00    +0.000 A 
ATOM     11  C   UNL     1       1.303  11.581  19.174  0.00  0.00    +0.000 A 
ENDBRANCH   1  10
BRANCH   2  12
ATOM     12  S   UNL     1       0.964   9.203  22.103  0.00  0.00    +0.000 S 
ATOM     13  H   UNL     1       2.193   9.620  22.418  0.00  0.00    +0.000 HD
ENDBRANCH   2  12
BRANCH   3  14
ATOM     14  C   UNL     1       2.525   6.670  19.507  0.00  0.00    +0.000 C 
BRANCH  14  15
ATOM     15  C   UNL     1       2.445   5.142  19.647  0.00  0.00    +0.000 C 
ATOM     16  C   UNL     1       1.383   4.743  20.685  0.00  0.00    +0.000 C 
BRANCH  15  17
ATOM     17  C   UNL     1       2.111   4.500  18.285  0.00  0.00    +0.000 C 
BRANCH  17  18
ATOM     18  S   UNL     1       3.560   3.594  17.623  0.00  0.00    +0.000 S 
BRANCH  18  19
ATOM     19  C   UNL     1       4.896   4.773  17.657  0.00  0.00    +0.000 A 
ATOM     20  C   UNL     1       5.990   4.736  18.525  0.00  0.00    +0.000 A 
ATOM     21  C   UNL     1       6.956   5.750  18.492  0.00  0.00    +0.000 A 
ATOM     22  C   UNL     1       6.835   6.797  17.585  0.00  0.00    +0.000 A 
ATOM     23 CL   UNL     1       8.013   8.053  17.559  0.00  0.00    +0.000 Cl
ATOM     24  C   UNL     1       5.759   6.846  16.706  0.00  0.00    +0.000 A 
ATOM     25  C   UNL     1       4.799   5.833  16.741  0.00  0.00    +0.000 A 
ENDBRANCH  18  19
ENDBRANCH  17  18
ENDBRANCH  15  17
ENDBRANCH  14  15
ENDBRANCH   3  14
TORSDOF 7
ENDMDL
MODEL 3
REMARK VINA RESULT:      -6.9      1.697      2.214
REMARK  Name = 
REMARK  9 active torsions:
REMARK  status: ('A' for Active; 'I' for Inactive)
REMARK    1  A    between atoms: C_1  and  C_2
REMARK    2  A    between atoms: C_6  and  N_7
REMARK    3  A    between atoms: C_8  and  S_9
REMARK    4  A    between atoms: N_10  and  C_11
REMARK    5  A    between atoms: C_11  and  C_12
REMARK    6  A    between atoms: C_12  and  C_13
REMARK    7  A    between atoms: C_12  and  C_14
REMARK    8  A    between atoms: C_14  and  S_15
REMARK    9  A    between atoms: S_15  and  C_16
REMARK                            x       y       z     vdW  Elec       q    Type
REMARK                         _______ _______ _______ _____ _____    ______ ____
ROOT
ATOM      1  N   UNL     1       1.242   7.825  21.064  0.00  0.00    +0.000 NA
ATOM      2  C   UNL     1       1.903   7.536  19.992  0.00  0.00    +0.000 C 
ATOM      3  N   UNL     1       2.569   6.344  19.878  0.00  0.00    +0.000 N 
ATOM      4  H   UNL     1       2.933   6.125  18.961  0.00  0.00    +0.000 HD
ENDROOT
BRANCH   1  10
ATOM      5  C   UNL     1      -1.058  11.942  19.631  0.00  0.00    +0.000 C 
ATOM      6  C   UNL     1      -0.578  11.074  20.752  0.00  0.00    +0.000 A 
ATOM      7  C   UNL     1      -0.964  11.269  22.079  0.00  0.00    +0.000 A 
ATOM      8  C   UNL     1      -0.573  10.359  23.055  0.00  0.00    +0.000 A 
ATOM      9  C   UNL     1       0.139   9.211  22.689  0.00  0.00    +0.000 A 
ATOM     10  C   UNL     1       0.519   8.986  21.354  0.00  0.00    +0.000 A 
ATOM     11  C   UNL     1       0.229   9.975  20.426  0.00  0.00    +0.000 A 
ENDBRANCH   1  10
BRANCH   2  12
ATOM     12  S   UNL     1       2.111   8.473  18.528  0.00  0.00    +0.000 S 
ATOM     13  H   UNL     1       2.231   7.455  17.673  0.00  0.00    +0.000 HD
ENDBRANCH   2  12
BRANCH   3  14
ATOM     14  C   UNL     1       2.356   5.243  20.786  0.00  0.00    +0.000 C 
BRANCH  14  15
ATOM     15  C   UNL     1       2.320   3.905  20.031  0.00  0.00    +0.000 C 
ATOM     16  C   UNL     1       1.141   3.040  20.505  0.00  0.00    +0.000 C 
BRANCH  15  17
ATOM     17  C   UNL     1       2.207   4.156  18.512  0.00  0.00    +0.000 C 
BRANCH  17  18
ATOM     18  S   UNL     1       3.614   3.388  17.623  0.00  0.00    +0.000 S 
BRANCH  18  19
ATOM     19  C   UNL     1       4.892   4.630  17.621  0.00  0.00    +0.000 A 
ATOM     20  C   UNL     1       6.126   4.527  18.268  0.00  0.00    +0.000 A 
ATOM     21  C   UNL     1       7.033   5.594  18.238  0.00  0.00    +0.000 A 
ATOM     22  C   UNL     1       6.714   6.761  17.554  0.00  0.00    +0.000 A 
ATOM     23 CL   UNL     1       7.823   8.079  17.534  0.00  0.00    +0.000 Cl
ATOM     24  C   UNL     1       5.495   6.880  16.895  0.00  0.00    +0.000 A 
ATOM     25  C   UNL     1       4.594   5.814  16.927  0.00  0.00    +0.000 A 
ENDBRANCH  18  19
ENDBRANCH  17  18
ENDBRANCH  15  17
ENDBRANCH  14  15
ENDBRANCH   3  14
TORSDOF 7
ENDMDL
MODEL 4
REMARK VINA RESULT:      -6.8      1.676      2.477
REMARK  Name = 
REMARK  9 active torsions:
REMARK  status: ('A' for Active; 'I' for Inactive)
REMARK    1  A    between atoms: C_1  and  C_2
REMARK    2  A    between atoms: C_6  and  N_7
REMARK    3  A    between atoms: C_8  and  S_9
REMARK    4  A    between atoms: N_10  and  C_11
REMARK    5  A    between atoms: C_11  and  C_12
REMARK    6  A    between atoms: C_12  and  C_13
REMARK    7  A    between atoms: C_12  and  C_14
REMARK    8  A    between atoms: C_14  and  S_15
REMARK    9  A    between atoms: S_15  and  C_16
REMARK                            x       y       z     vdW  Elec       q    Type
REMARK                         _______ _______ _______ _____ _____    ______ ____
ROOT
ATOM      1  N   UNL     1       1.317   7.718  20.934  0.00  0.00    +0.000 NA
ATOM      2  C   UNL     1       1.987   7.436  19.866  0.00  0.00    +0.000 C 
ATOM      3  N   UNL     1       2.659   6.249  19.752  0.00  0.00    +0.000 N 
ATOM      4  H   UNL     1       3.032   6.034  18.837  0.00  0.00    +0.000 HD
ENDROOT
BRANCH   1  10
ATOM      5  C   UNL     1      -1.143  11.738  19.489  0.00  0.00    +0.000 C 
ATOM      6  C   UNL     1      -0.586  10.918  20.611  0.00  0.00    +0.000 A 
ATOM      7  C   UNL     1      -0.905  11.151  21.950  0.00  0.00    +0.000 A 
ATOM      8  C   UNL     1      -0.445  10.283  22.933  0.00  0.00    +0.000 A 
ATOM      9  C   UNL     1       0.272   9.137  22.569  0.00  0.00    +0.000 A 
ATOM     10  C   UNL     1       0.585   8.874  21.223  0.00  0.00    +0.000 A 
ATOM     11  C   UNL     1       0.226   9.824  20.280  0.00  0.00    +0.000 A 
ENDBRANCH   1  10
BRANCH   2  12
ATOM     12  S   UNL     1       2.201   8.380  18.407  0.00  0.00    +0.000 S 
ATOM     13  H   UNL     1       2.799   7.444  17.668  0.00  0.00    +0.000 HD
ENDBRANCH   2  12
BRANCH   3  14
ATOM     14  C   UNL     1       2.445   5.143  20.654  0.00  0.00    +0.000 C 
BRANCH  14  15
ATOM     15  C   UNL     1       2.207   3.837  19.879  0.00  0.00    +0.000 C 
ATOM     16  C   UNL     1       1.512   4.118  18.537  0.00  0.00    +0.000 C 
BRANCH  15  17
ATOM     17  C   UNL     1       3.548   3.114  19.632  0.00  0.00    +0.000 C 
BRANCH  17  18
ATOM     18  S   UNL     1       4.010   3.195  17.861  0.00  0.00    +0.000 S 
BRANCH  18  19
ATOM     19  C   UNL     1       5.022   4.654  17.713  0.00  0.00    +0.000 A 
ATOM     20  C   UNL     1       4.790   5.718  16.837  0.00  0.00    +0.000 A 
ATOM     21  C   UNL     1       5.687   6.792  16.774  0.00  0.00    +0.000 A 
ATOM     22  C   UNL     1       6.810   6.811  17.593  0.00  0.00    +0.000 A 
ATOM     23 CL   UNL     1       7.922   8.123  17.501  0.00  0.00    +0.000 Cl
ATOM     24  C   UNL     1       7.053   5.767  18.479  0.00  0.00    +0.000 A 
ATOM     25  C   UNL     1       6.156   4.698  18.539  0.00  0.00    +0.000 A 
ENDBRANCH  18  19
ENDBRANCH  17  18
ENDBRANCH  15  17
ENDBRANCH  14  15
ENDBRANCH   3  14
TORSDOF 7
ENDMDL
MODEL 5
REMARK VINA RESULT:      -6.7      3.647      8.295
REMARK  Name = 
REMARK  9 active torsions:
REMARK  status: ('A' for Active; 'I' for Inactive)
REMARK    1  A    between atoms: C_1  and  C_2
REMARK    2  A    between atoms: C_6  and  N_7
REMARK    3  A    between atoms: C_8  and  S_9
REMARK    4  A    between atoms: N_10  and  C_11
REMARK    5  A    between atoms: C_11  and  C_12
REMARK    6  A    between atoms: C_12  and  C_13
REMARK    7  A    between atoms: C_12  and  C_14
REMARK    8  A    between atoms: C_14  and  S_15
REMARK    9  A    between atoms: S_15  and  C_16
REMARK                            x       y       z     vdW  Elec       q    Type
REMARK                         _______ _______ _______ _____ _____    ______ ____
ROOT
ATOM      1  N   UNL     1       1.663   6.216  20.623  0.00  0.00    +0.000 NA
ATOM      2  C   UNL     1       1.927   7.250  19.897  0.00  0.00    +0.000 C 
ATOM      3  N   UNL     1       1.653   8.514  20.348  0.00  0.00    +0.000 N 
ATOM      4  H   UNL     1       2.023   9.275  19.795  0.00  0.00    +0.000 HD
ENDROOT
BRANCH   1  10
ATOM      5  C   UNL     1       4.625   2.306  20.133  0.00  0.00    +0.000 C 
ATOM      6  C   UNL     1       3.257   2.896  19.985  0.00  0.00    +0.000 A 
ATOM      7  C   UNL     1       2.124   2.125  19.725  0.00  0.00    +0.000 A 
ATOM      8  C   UNL     1       0.868   2.720  19.711  0.00  0.00    +0.000 A 
ATOM      9  C   UNL     1       0.738   4.076  20.036  0.00  0.00    +0.000 A 
ATOM     10  C   UNL     1       1.866   4.865  20.322  0.00  0.00    +0.000 A 
ATOM     11  C   UNL     1       3.115   4.275  20.199  0.00  0.00    +0.000 A 
ENDBRANCH   1  10
BRANCH   2  12
ATOM     12  S   UNL     1       2.645   7.334  18.302  0.00  0.00    +0.000 S 
ATOM     13  H   UNL     1       1.523   7.526  17.605  0.00  0.00    +0.000 HD
ENDBRANCH   2  12
BRANCH   3  14
ATOM     14  C   UNL     1       1.329   8.796  21.727  0.00  0.00    +0.000 C 
BRANCH  14  15
ATOM     15  C   UNL     1       0.074   9.676  21.829  0.00  0.00    +0.000 C 
ATOM     16  C   UNL     1      -0.383   9.810  23.290  0.00  0.00    +0.000 C 
BRANCH  15  17
ATOM     17  C   UNL     1       0.357  11.074  21.240  0.00  0.00    +0.000 C 
BRANCH  17  18
ATOM     18  S   UNL     1      -1.208  11.925  20.812  0.00  0.00    +0.000 S 
BRANCH  18  19
ATOM     19  C   UNL     1      -1.677  11.261  19.226  0.00  0.00    +0.000 A 
ATOM     20  C   UNL     1      -0.954  10.315  18.496  0.00  0.00    +0.000 A 
ATOM     21  C   UNL     1      -1.398   9.905  17.232  0.00  0.00    +0.000 A 
ATOM     22  C   UNL     1      -2.570  10.430  16.701  0.00  0.00    +0.000 A 
ATOM     23 CL   UNL     1      -3.104   9.939  15.139  0.00  0.00    +0.000 Cl
ATOM     24  C   UNL     1      -3.310  11.366  17.417  0.00  0.00    +0.000 A 
ATOM     25  C   UNL     1      -2.864  11.772  18.676  0.00  0.00    +0.000 A 
ENDBRANCH  18  19
ENDBRANCH  17  18
ENDBRANCH  15  17
ENDBRANCH  14  15
ENDBRANCH   3  14
TORSDOF 7
ENDMDL
MODEL 6
REMARK VINA RESULT:      -6.7      3.124      7.501
REMARK  Name = 
REMARK  9 active torsions:
REMARK  status: ('A' for Active; 'I' for Inactive)
REMARK    1  A    between atoms: C_1  and  C_2
REMARK    2  A    between atoms: C_6  and  N_7
REMARK    3  A    between atoms: C_8  and  S_9
REMARK    4  A    between atoms: N_10  and  C_11
REMARK    5  A    between atoms: C_11  and  C_12
REMARK    6  A    between atoms: C_12  and  C_13
REMARK    7  A    between atoms: C_12  and  C_14
REMARK    8  A    between atoms: C_14  and  S_15
REMARK    9  A    between atoms: S_15  and  C_16
REMARK                            x       y       z     vdW  Elec       q    Type
REMARK                         _______ _______ _______ _____ _____    ______ ____
ROOT
ATOM      1  N   UNL     1       3.833   3.904  17.821  0.00  0.00    +0.000 NA
ATOM      2  C   UNL     1       3.384   2.793  18.303  0.00  0.00    +0.000 C 
ATOM      3  N   UNL     1       2.250   2.769  19.070  0.00  0.00    +0.000 N 
ATOM      4  H   UNL     1       1.877   1.853  19.284  0.00  0.00    +0.000 HD
ENDROOT
BRANCH   1  10
ATOM      5  C   UNL     1       6.107   3.899  13.447  0.00  0.00    +0.000 C 
ATOM      6  C   UNL     1       6.196   4.077  14.931  0.00  0.00    +0.000 A 
ATOM      7  C   UNL     1       7.319   4.615  15.562  0.00  0.00    +0.000 A 
ATOM      8  C   UNL     1       7.294   4.859  16.930  0.00  0.00    +0.000 A 
ATOM      9  C   UNL     1       6.117   4.636  17.655  0.00  0.00    +0.000 A 
ATOM     10  C   UNL     1       4.969   4.115  17.032  0.00  0.00    +0.000 A 
ATOM     11  C   UNL     1       5.065   3.758  15.696  0.00  0.00    +0.000 A 
ENDBRANCH   1  10
BRANCH   2  12
ATOM     12  S   UNL     1       4.016   1.170  18.129  0.00  0.00    +0.000 S 
ATOM     13  H   UNL     1       4.856   1.406  17.118  0.00  0.00    +0.000 HD
ENDBRANCH   2  12
BRANCH   3  14
ATOM     14  C   UNL     1       1.344   3.889  19.157  0.00  0.00    +0.000 C 
BRANCH  14  15
ATOM     15  C   UNL     1       1.060   4.255  20.622  0.00  0.00    +0.000 C 
ATOM     16  C   UNL     1       1.789   3.296  21.577  0.00  0.00    +0.000 C 
BRANCH  15  17
ATOM     17  C   UNL     1       1.502   5.707  20.901  0.00  0.00    +0.000 C 
BRANCH  17  18
ATOM     18  S   UNL     1       2.582   6.325  19.556  0.00  0.00    +0.000 S 
BRANCH  18  19
ATOM     19  C   UNL     1       1.993   7.971  19.209  0.00  0.00    +0.000 A 
ATOM     20  C   UNL     1       2.203   8.676  18.021  0.00  0.00    +0.000 A 
ATOM     21  C   UNL     1       1.733   9.988  17.884  0.00  0.00    +0.000 A 
ATOM     22  C   UNL     1       1.045  10.595  18.928  0.00  0.00    +0.000 A 
ATOM     23 CL   UNL     1       0.485  12.215  18.764  0.00  0.00    +0.000 Cl
ATOM     24  C   UNL     1       0.817   9.907  20.115  0.00  0.00    +0.000 A 
ATOM     25  C   UNL     1       1.286   8.598  20.248  0.00  0.00    +0.000 A 
ENDBRANCH  18  19
ENDBRANCH  17  18
ENDBRANCH  15  17
ENDBRANCH  14  15
ENDBRANCH   3  14
TORSDOF 7
ENDMDL
MODEL 7
REMARK VINA RESULT:      -6.7      1.816      2.077
REMARK  Name = 
REMARK  9 active torsions:
REMARK  status: ('A' for Active; 'I' for Inactive)
REMARK    1  A    between atoms: C_1  and  C_2
REMARK    2  A    between atoms: C_6  and  N_7
REMARK    3  A    between atoms: C_8  and  S_9
REMARK    4  A    between atoms: N_10  and  C_11
REMARK    5  A    between atoms: C_11  and  C_12
REMARK    6  A    between atoms: C_12  and  C_13
REMARK    7  A    between atoms: C_12  and  C_14
REMARK    8  A    between atoms: C_14  and  S_15
REMARK    9  A    between atoms: S_15  and  C_16
REMARK                            x       y       z     vdW  Elec       q    Type
REMARK                         _______ _______ _______ _____ _____    ______ ____
ROOT
ATOM      1  N   UNL     1       1.235   8.984  19.251  0.00  0.00    +0.000 NA
ATOM      2  C   UNL     1       1.470   8.447  20.402  0.00  0.00    +0.000 C 
ATOM      3  N   UNL     1       2.102   7.236  20.495  0.00  0.00    +0.000 N 
ATOM      4  H   UNL     1       2.385   6.953  21.424  0.00  0.00    +0.000 HD
ENDROOT
BRANCH   1  10
ATOM      5  C   UNL     1      -2.828  11.596  18.268  0.00  0.00    +0.000 C 
ATOM      6  C   UNL     1      -1.338  11.561  18.409  0.00  0.00    +0.000 A 
ATOM      7  C   UNL     1      -0.553  12.714  18.446  0.00  0.00    +0.000 A 
ATOM      8  C   UNL     1       0.811  12.616  18.693  0.00  0.00    +0.000 A 
ATOM      9  C   UNL     1       1.378  11.369  18.980  0.00  0.00    +0.000 A 
ATOM     10  C   UNL     1       0.600  10.198  18.969  0.00  0.00    +0.000 A 
ATOM     11  C   UNL     1      -0.729  10.310  18.590  0.00  0.00    +0.000 A 
ENDBRANCH   1  10
BRANCH   2  12
ATOM     12  S   UNL     1       1.099   9.047  22.004  0.00  0.00    +0.000 S 
ATOM     13  H   UNL     1       1.990  10.040  22.041  0.00  0.00    +0.000 HD
ENDBRANCH   2  12
BRANCH   3  14
ATOM     14  C   UNL     1       2.787   6.627  19.380  0.00  0.00    +0.000 C 
BRANCH  14  15
ATOM     15  C   UNL     1       2.430   5.136  19.264  0.00  0.00    +0.000 C 
ATOM     16  C   UNL     1       1.651   4.860  17.967  0.00  0.00    +0.000 C 
BRANCH  15  17
ATOM     17  C   UNL     1       3.713   4.279  19.296  0.00  0.00    +0.000 C 
BRANCH  17  18
ATOM     18  S   UNL     1       5.197   5.326  19.050  0.00  0.00    +0.000 S 
BRANCH  18  19
ATOM     19  C   UNL     1       5.748   4.965  17.394  0.00  0.00    +0.000 A 
ATOM     20  C   UNL     1       6.992   5.308  16.858  0.00  0.00    +0.000 A 
ATOM     21  C   UNL     1       7.293   5.015  15.522  0.00  0.00    +0.000 A 
ATOM     22  C   UNL     1       6.358   4.370  14.722  0.00  0.00    +0.000 A 
ATOM     23 CL   UNL     1       6.723   4.027  13.074  0.00  0.00    +0.000 Cl
ATOM     24  C   UNL     1       5.117   4.010  15.239  0.00  0.00    +0.000 A 
ATOM     25  C   UNL     1       4.821   4.304  16.572  0.00  0.00    +0.000 A 
ENDBRANCH  18  19
ENDBRANCH  17  18
ENDBRANCH  15  17
ENDBRANCH  14  15
ENDBRANCH   3  14
TORSDOF 7
ENDMDL
MODEL 8
REMARK VINA RESULT:      -6.7      1.828      2.347
REMARK  Name = 
REMARK  9 active torsions:
REMARK  status: ('A' for Active; 'I' for Inactive)
REMARK    1  A    between atoms: C_1  and  C_2
REMARK    2  A    between atoms: C_6  and  N_7
REMARK    3  A    between atoms: C_8  and  S_9
REMARK    4  A    between atoms: N_10  and  C_11
REMARK    5  A    between atoms: C_11  and  C_12
REMARK    6  A    between atoms: C_12  and  C_13
REMARK    7  A    between atoms: C_12  and  C_14
REMARK    8  A    between atoms: C_14  and  S_15
REMARK    9  A    between atoms: S_15  and  C_16
REMARK                            x       y       z     vdW  Elec       q    Type
REMARK                         _______ _______ _______ _____ _____    ______ ____
ROOT
ATOM      1  N   UNL     1       1.372   7.862  20.749  0.00  0.00    +0.000 NA
ATOM      2  C   UNL     1       2.072   7.346  19.795  0.00  0.00    +0.000 C 
ATOM      3  N   UNL     1       2.630   6.101  19.927  0.00  0.00    +0.000 N 
ATOM      4  H   UNL     1       3.032   5.703  19.089  0.00  0.00    +0.000 HD
ENDROOT
BRANCH   1  10
ATOM      5  C   UNL     1      -1.375  11.230  23.074  0.00  0.00    +0.000 C 
ATOM      6  C   UNL     1      -0.664  10.805  21.828  0.00  0.00    +0.000 A 
ATOM      7  C   UNL     1      -0.444  11.664  20.750  0.00  0.00    +0.000 A 
ATOM      8  C   UNL     1       0.321  11.241  19.671  0.00  0.00    +0.000 A 
ATOM      9  C   UNL     1       0.933   9.982  19.704  0.00  0.00    +0.000 A 
ATOM     10  C   UNL     1       0.742   9.110  20.790  0.00  0.00    +0.000 A 
ATOM     11  C   UNL     1      -0.132   9.508  21.790  0.00  0.00    +0.000 A 
ENDBRANCH   1  10
BRANCH   2  12
ATOM     12  S   UNL     1       2.462   8.005  18.220  0.00  0.00    +0.000 S 
ATOM     13  H   UNL     1       3.749   7.651  18.186  0.00  0.00    +0.000 HD
ENDBRANCH   2  12
BRANCH   3  14
ATOM     14  C   UNL     1       2.256   5.189  20.981  0.00  0.00    +0.000 C 
BRANCH  14  15
ATOM     15  C   UNL     1       2.483   3.730  20.552  0.00  0.00    +0.000 C 
ATOM     16  C   UNL     1       1.616   2.774  21.386  0.00  0.00    +0.000 C 
BRANCH  15  17
ATOM     17  C   UNL     1       2.156   3.561  19.053  0.00  0.00    +0.000 C 
BRANCH  17  18
ATOM     18  S   UNL     1       3.600   2.888  18.148  0.00  0.00    +0.000 S 
BRANCH  18  19
ATOM     19  C   UNL     1       4.676   4.285  17.890  0.00  0.00    +0.000 A 
ATOM     20  C   UNL     1       4.651   5.136  16.781  0.00  0.00    +0.000 A 
ATOM     21  C   UNL     1       5.584   6.174  16.664  0.00  0.00    +0.000 A 
ATOM     22  C   UNL     1       6.535   6.372  17.658  0.00  0.00    +0.000 A 
ATOM     23 CL   UNL     1       7.693   7.637  17.503  0.00  0.00    +0.000 Cl
ATOM     24  C   UNL     1       6.570   5.543  18.774  0.00  0.00    +0.000 A 
ATOM     25  C   UNL     1       5.638   4.509  18.888  0.00  0.00    +0.000 A 
ENDBRANCH  18  19
ENDBRANCH  17  18
ENDBRANCH  15  17
ENDBRANCH  14  15
ENDBRANCH   3  14
TORSDOF 7
ENDMDL
MODEL 9
REMARK VINA RESULT:      -6.7      3.118      7.503
REMARK  Name = 
REMARK  9 active torsions:
REMARK  status: ('A' for Active; 'I' for Inactive)
REMARK    1  A    between atoms: C_1  and  C_2
REMARK    2  A    between atoms: C_6  and  N_7
REMARK    3  A    between atoms: C_8  and  S_9
REMARK    4  A    between atoms: N_10  and  C_11
REMARK    5  A    between atoms: C_11  and  C_12
REMARK    6  A    between atoms: C_12  and  C_13
REMARK    7  A    between atoms: C_12  and  C_14
REMARK    8  A    between atoms: C_14  and  S_15
REMARK    9  A    between atoms: S_15  and  C_16
REMARK                            x       y       z     vdW  Elec       q    Type
REMARK                         _______ _______ _______ _____ _____    ______ ____
ROOT
ATOM      1  N   UNL     1       3.811   3.970  17.574  0.00  0.00    +0.000 NA
ATOM      2  C   UNL     1       3.396   2.860  18.085  0.00  0.00    +0.000 C 
ATOM      3  N   UNL     1       2.270   2.824  18.865  0.00  0.00    +0.000 N 
ATOM      4  H   UNL     1       1.923   1.905  19.103  0.00  0.00    +0.000 HD
ENDROOT
BRANCH   1  10
ATOM      5  C   UNL     1       6.086   3.791  13.204  0.00  0.00    +0.000 C 
ATOM      6  C   UNL     1       6.163   4.079  14.671  0.00  0.00    +0.000 A 
ATOM      7  C   UNL     1       7.251   4.727  15.259  0.00  0.00    +0.000 A 
ATOM      8  C   UNL     1       7.210   5.065  16.606  0.00  0.00    +0.000 A 
ATOM      9  C   UNL     1       6.048   4.825  17.349  0.00  0.00    +0.000 A 
ATOM     10  C   UNL     1       4.933   4.193  16.769  0.00  0.00    +0.000 A 
ATOM     11  C   UNL     1       5.052   3.748  15.461  0.00  0.00    +0.000 A 
ENDBRANCH   1  10
BRANCH   2  12
ATOM     12  S   UNL     1       4.067   1.250  17.939  0.00  0.00    +0.000 S 
ATOM     13  H   UNL     1       3.430   0.690  18.970  0.00  0.00    +0.000 HD
ENDBRANCH   2  12
BRANCH   3  14
ATOM     14  C   UNL     1       1.337   3.923  18.937  0.00  0.00    +0.000 C 
BRANCH  14  15
ATOM     15  C   UNL     1       0.907   4.185  20.389  0.00  0.00    +0.000 C 
ATOM     16  C   UNL     1       1.278   2.998  21.292  0.00  0.00    +0.000 C 
BRANCH  15  17
ATOM     17  C   UNL     1       1.573   5.472  20.916  0.00  0.00    +0.000 C 
BRANCH  17  18
ATOM     18  S   UNL     1       2.558   6.278  19.598  0.00  0.00    +0.000 S 
BRANCH  18  19
ATOM     19  C   UNL     1       1.890   7.925  19.463  0.00  0.00    +0.000 A 
ATOM     20  C   UNL     1       1.209   8.610  20.473  0.00  0.00    +0.000 A 
ATOM     21  C   UNL     1       0.682   9.886  20.232  0.00  0.00    +0.000 A 
ATOM     22  C   UNL     1       0.843  10.483  18.987  0.00  0.00    +0.000 A 
ATOM     23 CL   UNL     1       0.178  12.043  18.687  0.00  0.00    +0.000 Cl
ATOM     24  C   UNL     1       1.526   9.821  17.972  0.00  0.00    +0.000 A 
ATOM     25  C   UNL     1       2.051   8.550  18.216  0.00  0.00    +0.000 A 
ENDBRANCH  18  19
ENDBRANCH  17  18
ENDBRANCH  15  17
ENDBRANCH  14  15
ENDBRANCH   3  14
TORSDOF 7
ENDMDL
