MODEL 1
REMARK VINA RESULT:      -8.7      0.000      0.000
REMARK  Name = 
REMARK  5 active torsions:
REMARK  status: ('A' for Active; 'I' for Inactive)
REMARK    1  A    between atoms: C_1  and  O_2
REMARK    2  A    between atoms: O_2  and  C_3
REMARK    3  A    between atoms: C_7  and  C_8
REMARK    4  A    between atoms: N_10  and  C_11
REMARK    5  A    between atoms: C_13  and  C_14
REMARK                            x       y       z     vdW  Elec       q    Type
REMARK                         _______ _______ _______ _____ _____    ______ ____
ROOT
ATOM      1  C   UNL     1       2.712   6.624  18.083  0.00  0.00    +0.000 A 
ATOM      2  N   UNL     1       3.977   7.110  18.160  0.00  0.00    +0.000 NA
ATOM      3  C   UNL     1       4.935   6.205  18.376  0.00  0.00    +0.000 A 
ATOM      4  C   UNL     1       4.633   5.313  19.357  0.00  0.00    +0.000 A 
ATOM      5  C   UNL     1       3.567   4.552  18.954  0.00  0.00    +0.000 A 
ATOM      6  C   UNL     1       3.729   3.165  19.054  0.00  0.00    +0.000 A 
ATOM      7  C   UNL     1       2.700   2.320  18.697  0.00  0.00    +0.000 A 
ATOM      8  C   UNL     1       1.485   2.881  18.333  0.00  0.00    +0.000 A 
ATOM      9  C   UNL     1       1.340   4.295  18.176  0.00  0.00    +0.000 A 
ATOM     10  C   UNL     1       2.446   5.196  18.382  0.00  0.00    +0.000 A 
ENDROOT
BRANCH   3  11
ATOM     11  C   UNL     1       5.628   5.719  17.143  0.00  0.00    +0.000 A 
ATOM     12  C   UNL     1       5.109   5.929  15.866  0.00  0.00    +0.000 A 
ATOM     13  C   UNL     1       5.747   5.348  14.774  0.00  0.00    +0.000 A 
ATOM     14  C   UNL     1       6.859   4.539  14.977  0.00  0.00    +0.000 A 
ATOM     15  C   UNL     1       7.288   4.339  16.277  0.00  0.00    +0.000 A 
ATOM     16  N   UNL     1       6.724   4.930  17.345  0.00  0.00    +0.000 NA
ENDBRANCH   3  11
BRANCH   1  19
ATOM     17  C   UNL     1       1.711   8.840  18.169  0.00  0.00    +0.000 C 
ATOM     18  N   UNL     1       2.071   9.884  17.462  0.00  0.00    +0.000 NA
ATOM     19  N   UNL     1       1.783   7.566  17.555  0.00  0.00    +0.000 N 
ATOM     20  H   UNL     1       1.952  10.745  18.020  0.00  0.00    +0.000 HD
ATOM     21  H   UNL     1       2.028   7.700  16.580  0.00  0.00    +0.000 HD
BRANCH  17  26
ATOM     22  C   UNL     1      -0.189  10.379  21.058  0.00  0.00    +0.000 A 
ATOM     23  C   UNL     1       0.199   9.614  22.158  0.00  0.00    +0.000 A 
ATOM     24  C   UNL     1       1.056   8.536  21.972  0.00  0.00    +0.000 A 
ATOM     25  C   UNL     1       1.552   8.226  20.693  0.00  0.00    +0.000 A 
ATOM     26  C   UNL     1       1.179   9.017  19.581  0.00  0.00    +0.000 A 
ATOM     27  C   UNL     1       0.295  10.078  19.789  0.00  0.00    +0.000 A 
BRANCH  22  29
ATOM     28  C   UNL     1      -1.256  11.696  22.712  0.00  0.00    +0.000 C 
ATOM     29  O   UNL     1      -1.015  11.442  21.331  0.00  0.00    +0.000 OA
ENDBRANCH  22  29
ENDBRANCH  17  26
ENDBRANCH   1  19
TORSDOF 4
ENDMDL
MODEL 2
REMARK VINA RESULT:      -8.2      3.000      5.341
REMARK  Name = 
REMARK  5 active torsions:
REMARK  status: ('A' for Active; 'I' for Inactive)
REMARK    1  A    between atoms: C_1  and  O_2
REMARK    2  A    between atoms: O_2  and  C_3
REMARK    3  A    between atoms: C_7  and  C_8
REMARK    4  A    between atoms: N_10  and  C_11
REMARK    5  A    between atoms: C_13  and  C_14
REMARK                            x       y       z     vdW  Elec       q    Type
REMARK                         _______ _______ _______ _____ _____    ______ ____
ROOT
ATOM      1  C   UNL     1       5.417   4.372  17.872  0.00  0.00    +0.000 A 
ATOM      2  N   UNL     1       4.666   4.299  16.743  0.00  0.00    +0.000 NA
ATOM      3  C   UNL     1       4.895   5.247  15.831  0.00  0.00    +0.000 A 
ATOM      4  C   UNL     1       4.975   6.499  16.353  0.00  0.00    +0.000 A 
ATOM      5  C   UNL     1       6.075   6.574  17.166  0.00  0.00    +0.000 A 
ATOM      6  C   UNL     1       6.945   7.645  16.928  0.00  0.00    +0.000 A 
ATOM      7  C   UNL     1       8.064   7.816  17.714  0.00  0.00    +0.000 A 
ATOM      8  C   UNL     1       8.247   6.964  18.793  0.00  0.00    +0.000 A 
ATOM      9  C   UNL     1       7.390   5.838  18.999  0.00  0.00    +0.000 A 
ATOM     10  C   UNL     1       6.307   5.537  18.097  0.00  0.00    +0.000 A 
ENDROOT
BRANCH   3  11
ATOM     11  C   UNL     1       5.843   4.853  14.743  0.00  0.00    +0.000 A 
ATOM     12  C   UNL     1       7.057   5.507  14.540  0.00  0.00    +0.000 A 
ATOM     13  C   UNL     1       7.834   5.163  13.439  0.00  0.00    +0.000 A 
ATOM     14  C   UNL     1       7.370   4.210  12.540  0.00  0.00    +0.000 A 
ATOM     15  C   UNL     1       6.134   3.638  12.780  0.00  0.00    +0.000 A 
ATOM     16  N   UNL     1       5.386   3.912  13.865  0.00  0.00    +0.000 NA
ENDBRANCH   3  11
BRANCH   1  19
ATOM     17  C   UNL     1       4.138   2.462  18.673  0.00  0.00    +0.000 C 
ATOM     18  N   UNL     1       4.136   1.257  18.159  0.00  0.00    +0.000 NA
ATOM     19  N   UNL     1       5.355   3.188  18.661  0.00  0.00    +0.000 N 
ATOM     20  H   UNL     1       3.196   0.837  18.250  0.00  0.00    +0.000 HD
ATOM     21  H   UNL     1       6.085   2.571  18.317  0.00  0.00    +0.000 HD
BRANCH  17  26
ATOM     22  C   UNL     1       1.830   4.983  20.301  0.00  0.00    +0.000 A 
ATOM     23  C   UNL     1       0.710   4.230  20.652  0.00  0.00    +0.000 A 
ATOM     24  C   UNL     1       0.659   2.882  20.316  0.00  0.00    +0.000 A 
ATOM     25  C   UNL     1       1.734   2.268  19.649  0.00  0.00    +0.000 A 
ATOM     26  C   UNL     1       2.881   3.025  19.314  0.00  0.00    +0.000 A 
ATOM     27  C   UNL     1       2.897   4.384  19.639  0.00  0.00    +0.000 A 
BRANCH  22  29
ATOM     28  C   UNL     1       2.234   7.240  19.710  0.00  0.00    +0.000 C 
ATOM     29  O   UNL     1       1.813   6.298  20.693  0.00  0.00    +0.000 OA
ENDBRANCH  22  29
ENDBRANCH  17  26
ENDBRANCH   1  19
TORSDOF 4
ENDMDL
MODEL 3
REMARK VINA RESULT:      -8.0      3.106      7.363
REMARK  Name = 
REMARK  5 active torsions:
REMARK  status: ('A' for Active; 'I' for Inactive)
REMARK    1  A    between atoms: C_1  and  O_2
REMARK    2  A    between atoms: O_2  and  C_3
REMARK    3  A    between atoms: C_7  and  C_8
REMARK    4  A    between atoms: N_10  and  C_11
REMARK    5  A    between atoms: C_13  and  C_14
REMARK                            x       y       z     vdW  Elec       q    Type
REMARK                         _______ _______ _______ _____ _____    ______ ____
ROOT
ATOM      1  C   UNL     1       4.330   4.131  18.707  0.00  0.00    +0.000 A 
ATOM      2  N   UNL     1       3.917   5.050  17.798  0.00  0.00    +0.000 NA
ATOM      3  C   UNL     1       2.627   5.388  17.858  0.00  0.00    +0.000 A 
ATOM      4  C   UNL     1       1.789   4.323  17.977  0.00  0.00    +0.000 A 
ATOM      5  C   UNL     1       2.011   3.714  19.184  0.00  0.00    +0.000 A 
ATOM      6  C   UNL     1       0.878   3.484  19.975  0.00  0.00    +0.000 A 
ATOM      7  C   UNL     1       1.002   2.852  21.193  0.00  0.00    +0.000 A 
ATOM      8  C   UNL     1       2.249   2.372  21.562  0.00  0.00    +0.000 A 
ATOM      9  C   UNL     1       3.412   2.658  20.781  0.00  0.00    +0.000 A 
ATOM     10  C   UNL     1       3.342   3.459  19.585  0.00  0.00    +0.000 A 
ENDROOT
BRANCH   3  11
ATOM     11  C   UNL     1       2.339   6.628  18.643  0.00  0.00    +0.000 A 
ATOM     12  C   UNL     1       2.073   6.598  20.011  0.00  0.00    +0.000 A 
ATOM     13  C   UNL     1       1.700   7.774  20.653  0.00  0.00    +0.000 A 
ATOM     14  C   UNL     1       1.557   8.944  19.917  0.00  0.00    +0.000 A 
ATOM     15  C   UNL     1       1.791   8.887  18.554  0.00  0.00    +0.000 A 
ATOM     16  N   UNL     1       2.205   7.777  17.918  0.00  0.00    +0.000 NA
ENDBRANCH   3  11
BRANCH   1  19
ATOM     17  C   UNL     1       6.525   4.808  17.902  0.00  0.00    +0.000 C 
ATOM     18  N   UNL     1       7.275   5.762  18.398  0.00  0.00    +0.000 NA
ATOM     19  N   UNL     1       5.749   4.037  18.802  0.00  0.00    +0.000 N 
ATOM     20  H   UNL     1       7.799   6.228  17.640  0.00  0.00    +0.000 HD
ATOM     21  H   UNL     1       5.996   4.314  19.747  0.00  0.00    +0.000 HD
BRANCH  17  26
ATOM     22  C   UNL     1       7.509   5.102  14.258  0.00  0.00    +0.000 A 
ATOM     23  C   UNL     1       6.636   4.231  13.607  0.00  0.00    +0.000 A 
ATOM     24  C   UNL     1       5.734   3.482  14.352  0.00  0.00    +0.000 A 
ATOM     25  C   UNL     1       5.678   3.612  15.751  0.00  0.00    +0.000 A 
ATOM     26  C   UNL     1       6.546   4.514  16.412  0.00  0.00    +0.000 A 
ATOM     27  C   UNL     1       7.461   5.236  15.642  0.00  0.00    +0.000 A 
BRANCH  22  29
ATOM     28  C   UNL     1       8.036   5.801  12.058  0.00  0.00    +0.000 C 
ATOM     29  O   UNL     1       8.349   5.825  13.448  0.00  0.00    +0.000 OA
ENDBRANCH  22  29
ENDBRANCH  17  26
ENDBRANCH   1  19
TORSDOF 4
ENDMDL
MODEL 4
REMARK VINA RESULT:      -7.6      2.307      4.227
REMARK  Name = 
REMARK  5 active torsions:
REMARK  status: ('A' for Active; 'I' for Inactive)
REMARK    1  A    between atoms: C_1  and  O_2
REMARK    2  A    between atoms: O_2  and  C_3
REMARK    3  A    between atoms: C_7  and  C_8
REMARK    4  A    between atoms: N_10  and  C_11
REMARK    5  A    between atoms: C_13  and  C_14
REMARK                            x       y       z     vdW  Elec       q    Type
REMARK                         _______ _______ _______ _____ _____    ______ ____
ROOT
ATOM      1  C   UNL     1       5.502   4.353  18.649  0.00  0.00    +0.000 A 
ATOM      2  N   UNL     1       6.578   4.813  19.336  0.00  0.00    +0.000 NA
ATOM      3  C   UNL     1       7.592   5.266  18.594  0.00  0.00    +0.000 A 
ATOM      4  C   UNL     1       7.915   4.449  17.555  0.00  0.00    +0.000 A 
ATOM      5  C   UNL     1       6.869   4.416  16.672  0.00  0.00    +0.000 A 
ATOM      6  C   UNL     1       7.187   4.668  15.331  0.00  0.00    +0.000 A 
ATOM      7  C   UNL     1       6.203   4.629  14.367  0.00  0.00    +0.000 A 
ATOM      8  C   UNL     1       4.927   4.242  14.745  0.00  0.00    +0.000 A 
ATOM      9  C   UNL     1       4.592   4.040  16.121  0.00  0.00    +0.000 A 
ATOM     10  C   UNL     1       5.560   4.235  17.171  0.00  0.00    +0.000 A 
ENDROOT
BRANCH   3  11
ATOM     11  C   UNL     1       7.600   6.746  18.381  0.00  0.00    +0.000 A 
ATOM     12  C   UNL     1       6.747   7.373  17.475  0.00  0.00    +0.000 A 
ATOM     13  C   UNL     1       6.890   8.738  17.245  0.00  0.00    +0.000 A 
ATOM     14  C   UNL     1       7.904   9.441  17.886  0.00  0.00    +0.000 A 
ATOM     15  C   UNL     1       8.743   8.742  18.735  0.00  0.00    +0.000 A 
ATOM     16  N   UNL     1       8.594   7.435  19.017  0.00  0.00    +0.000 NA
ENDBRANCH   3  11
BRANCH   1  19
ATOM     17  C   UNL     1       3.112   4.660  18.985  0.00  0.00    +0.000 C 
ATOM     18  N   UNL     1       2.170   3.788  18.718  0.00  0.00    +0.000 NA
ATOM     19  N   UNL     1       4.351   4.173  19.468  0.00  0.00    +0.000 N 
ATOM     20  H   UNL     1       1.319   4.276  18.396  0.00  0.00    +0.000 HD
ATOM     21  H   UNL     1       4.258   3.174  19.622  0.00  0.00    +0.000 HD
BRANCH  17  26
ATOM     22  C   UNL     1       1.856   8.126  19.843  0.00  0.00    +0.000 A 
ATOM     23  C   UNL     1       2.116   8.869  18.692  0.00  0.00    +0.000 A 
ATOM     24  C   UNL     1       2.761   8.265  17.619  0.00  0.00    +0.000 A 
ATOM     25  C   UNL     1       3.130   6.909  17.676  0.00  0.00    +0.000 A 
ATOM     26  C   UNL     1       2.844   6.147  18.834  0.00  0.00    +0.000 A 
ATOM     27  C   UNL     1       2.219   6.785  19.908  0.00  0.00    +0.000 A 
BRANCH  22  29
ATOM     28  C   UNL     1       0.106   9.611  20.426  0.00  0.00    +0.000 C 
ATOM     29  O   UNL     1       1.192   8.790  20.845  0.00  0.00    +0.000 OA
ENDBRANCH  22  29
ENDBRANCH  17  26
ENDBRANCH   1  19
TORSDOF 4
ENDMDL
MODEL 5
REMARK VINA RESULT:      -7.2      2.915      7.306
REMARK  Name = 
REMARK  5 active torsions:
REMARK  status: ('A' for Active; 'I' for Inactive)
REMARK    1  A    between atoms: C_1  and  O_2
REMARK    2  A    between atoms: O_2  and  C_3
REMARK    3  A    between atoms: C_7  and  C_8
REMARK    4  A    between atoms: N_10  and  C_11
REMARK    5  A    between atoms: C_13  and  C_14
REMARK                            x       y       z     vdW  Elec       q    Type
REMARK                         _______ _______ _______ _____ _____    ______ ____
ROOT
ATOM      1  C   UNL     1       1.663   8.900  19.247  0.00  0.00    +0.000 A 
ATOM      2  N   UNL     1       1.159   9.496  18.137  0.00  0.00    +0.000 NA
ATOM      3  C   UNL     1       0.140  10.335  18.339  0.00  0.00    +0.000 A 
ATOM      4  C   UNL     1      -0.813   9.845  19.175  0.00  0.00    +0.000 A 
ATOM      5  C   UNL     1      -0.276   9.696  20.426  0.00  0.00    +0.000 A 
ATOM      6  C   UNL     1      -0.999  10.270  21.479  0.00  0.00    +0.000 A 
ATOM      7  C   UNL     1      -0.549  10.148  22.776  0.00  0.00    +0.000 A 
ATOM      8  C   UNL     1       0.573   9.368  23.012  0.00  0.00    +0.000 A 
ATOM      9  C   UNL     1       1.341   8.831  21.932  0.00  0.00    +0.000 A 
ATOM     10  C   UNL     1       0.989   9.080  20.556  0.00  0.00    +0.000 A 
ENDROOT
BRANCH   3  11
ATOM     11  C   UNL     1       0.527  11.776  18.447  0.00  0.00    +0.000 A 
ATOM     12  C   UNL     1       1.848  12.181  18.634  0.00  0.00    +0.000 A 
ATOM     13  C   UNL     1       2.118  13.530  18.842  0.00  0.00    +0.000 A 
ATOM     14  C   UNL     1       1.070  14.440  18.903  0.00  0.00    +0.000 A 
ATOM     15  C   UNL     1      -0.218  13.958  18.756  0.00  0.00    +0.000 A 
ATOM     16  N   UNL     1      -0.505  12.669  18.501  0.00  0.00    +0.000 NA
ENDBRANCH   3  11
BRANCH   1  19
ATOM     17  C   UNL     1       2.943   7.125  18.183  0.00  0.00    +0.000 C 
ATOM     18  N   UNL     1       3.594   7.209  17.048  0.00  0.00    +0.000 NA
ATOM     19  N   UNL     1       2.919   8.267  19.020  0.00  0.00    +0.000 N 
ATOM     20  H   UNL     1       3.549   6.306  16.548  0.00  0.00    +0.000 HD
ATOM     21  H   UNL     1       3.528   8.969  18.613  0.00  0.00    +0.000 HD
BRANCH  17  26
ATOM     22  C   UNL     1       1.902   4.254  20.419  0.00  0.00    +0.000 A 
ATOM     23  C   UNL     1       1.291   3.356  19.545  0.00  0.00    +0.000 A 
ATOM     24  C   UNL     1       1.155   3.692  18.203  0.00  0.00    +0.000 A 
ATOM     25  C   UNL     1       1.650   4.916  17.717  0.00  0.00    +0.000 A 
ATOM     26  C   UNL     1       2.293   5.817  18.598  0.00  0.00    +0.000 A 
ATOM     27  C   UNL     1       2.392   5.467  19.947  0.00  0.00    +0.000 A 
BRANCH  22  29
ATOM     28  C   UNL     1       1.605   2.497  21.978  0.00  0.00    +0.000 C 
ATOM     29  O   UNL     1       2.021   3.835  21.721  0.00  0.00    +0.000 OA
ENDBRANCH  22  29
ENDBRANCH  17  26
ENDBRANCH   1  19
TORSDOF 4
ENDMDL
MODEL 6
REMARK VINA RESULT:      -7.2      5.879      8.174
REMARK  Name = 
REMARK  5 active torsions:
REMARK  status: ('A' for Active; 'I' for Inactive)
REMARK    1  A    between atoms: C_1  and  O_2
REMARK    2  A    between atoms: O_2  and  C_3
REMARK    3  A    between atoms: C_7  and  C_8
REMARK    4  A    between atoms: N_10  and  C_11
REMARK    5  A    between atoms: C_13  and  C_14
REMARK                            x       y       z     vdW  Elec       q    Type
REMARK                         _______ _______ _______ _____ _____    ______ ____
ROOT
ATOM      1  C   UNL     1      -0.046  12.755  20.784  0.00  0.00    +0.000 A 
ATOM      2  N   UNL     1       0.042  12.792  19.431  0.00  0.00    +0.000 NA
ATOM      3  C   UNL     1      -0.062  11.615  18.808  0.00  0.00    +0.000 A 
ATOM      4  C   UNL     1       0.683  10.630  19.377  0.00  0.00    +0.000 A 
ATOM      5  C   UNL     1       0.195  10.367  20.629  0.00  0.00    +0.000 A 
ATOM      6  C   UNL     1      -0.073   9.023  20.916  0.00  0.00    +0.000 A 
ATOM      7  C   UNL     1      -0.542   8.661  22.160  0.00  0.00    +0.000 A 
ATOM      8  C   UNL     1      -0.646   9.641  23.135  0.00  0.00    +0.000 A 
ATOM      9  C   UNL     1      -0.427  11.020  22.824  0.00  0.00    +0.000 A 
ATOM     10  C   UNL     1      -0.096  11.450  21.489  0.00  0.00    +0.000 A 
ENDROOT
BRANCH   3  11
ATOM     11  C   UNL     1      -1.433  11.290  18.308  0.00  0.00    +0.000 A 
ATOM     12  C   UNL     1      -2.571  11.950  18.770  0.00  0.00    +0.000 A 
ATOM     13  C   UNL     1      -3.823  11.516  18.346  0.00  0.00    +0.000 A 
ATOM     14  C   UNL     1      -3.921  10.411  17.509  0.00  0.00    +0.000 A 
ATOM     15  C   UNL     1      -2.751   9.777  17.130  0.00  0.00    +0.000 A 
ATOM     16  N   UNL     1      -1.525  10.207  17.481  0.00  0.00    +0.000 NA
ENDBRANCH   3  11
BRANCH   1  19
ATOM     17  C   UNL     1      -1.187  14.160  22.411  0.00  0.00    +0.000 C 
ATOM     18  N   UNL     1      -0.753  14.476  23.606  0.00  0.00    +0.000 NA
ATOM     19  N   UNL     1      -0.236  14.040  21.368  0.00  0.00    +0.000 N 
ATOM     20  H   UNL     1      -1.548  14.550  24.262  0.00  0.00    +0.000 HD
ATOM     21  H   UNL     1       0.667  14.330  21.731  0.00  0.00    +0.000 HD
BRANCH  17  26
ATOM     22  C   UNL     1      -4.743  12.965  22.920  0.00  0.00    +0.000 A 
ATOM     23  C   UNL     1      -5.415  13.427  21.788  0.00  0.00    +0.000 A 
ATOM     24  C   UNL     1      -4.730  14.191  20.851  0.00  0.00    +0.000 A 
ATOM     25  C   UNL     1      -3.364  14.480  21.021  0.00  0.00    +0.000 A 
ATOM     26  C   UNL     1      -2.675  13.991  22.156  0.00  0.00    +0.000 A 
ATOM     27  C   UNL     1      -3.392  13.249  23.097  0.00  0.00    +0.000 A 
BRANCH  22  29
ATOM     28  C   UNL     1      -6.851  12.568  23.921  0.00  0.00    +0.000 C 
ATOM     29  O   UNL     1      -5.483  12.195  23.782  0.00  0.00    +0.000 OA
ENDBRANCH  22  29
ENDBRANCH  17  26
ENDBRANCH   1  19
TORSDOF 4
ENDMDL
MODEL 7
REMARK VINA RESULT:      -7.2      6.226      8.780
REMARK  Name = 
REMARK  5 active torsions:
REMARK  status: ('A' for Active; 'I' for Inactive)
REMARK    1  A    between atoms: C_1  and  O_2
REMARK    2  A    between atoms: O_2  and  C_3
REMARK    3  A    between atoms: C_7  and  C_8
REMARK    4  A    between atoms: N_10  and  C_11
REMARK    5  A    between atoms: C_13  and  C_14
REMARK                            x       y       z     vdW  Elec       q    Type
REMARK                         _______ _______ _______ _____ _____    ______ ____
ROOT
ATOM      1  C   UNL     1      -1.015  13.156  21.197  0.00  0.00    +0.000 A 
ATOM      2  N   UNL     1      -0.948  13.525  19.893  0.00  0.00    +0.000 NA
ATOM      3  C   UNL     1      -0.714  12.541  19.021  0.00  0.00    +0.000 A 
ATOM      4  C   UNL     1       0.284  11.700  19.402  0.00  0.00    +0.000 A 
ATOM      5  C   UNL     1      -0.103  11.032  20.534  0.00  0.00    +0.000 A 
ATOM      6  C   UNL     1       0.026   9.638  20.501  0.00  0.00    +0.000 A 
ATOM      7  C   UNL     1      -0.314   8.885  21.603  0.00  0.00    +0.000 A 
ATOM      8  C   UNL     1      -0.689   9.547  22.762  0.00  0.00    +0.000 A 
ATOM      9  C   UNL     1      -0.875  10.965  22.777  0.00  0.00    +0.000 A 
ATOM     10  C   UNL     1      -0.687  11.765  21.592  0.00  0.00    +0.000 A 
ENDROOT
BRANCH   3  11
ATOM     11  C   UNL     1      -1.938  11.968  18.379  0.00  0.00    +0.000 A 
ATOM     12  C   UNL     1      -3.164  11.903  19.038  0.00  0.00    +0.000 A 
ATOM     13  C   UNL     1      -4.229  11.252  18.422  0.00  0.00    +0.000 A 
ATOM     14  C   UNL     1      -4.042  10.645  17.186  0.00  0.00    +0.000 A 
ATOM     15  C   UNL     1      -2.784  10.711  16.614  0.00  0.00    +0.000 A 
ATOM     16  N   UNL     1      -1.752  11.378  17.161  0.00  0.00    +0.000 NA
ENDBRANCH   3  11
BRANCH   1  19
ATOM     17  C   UNL     1      -2.809  13.911  22.658  0.00  0.00    +0.000 C 
ATOM     18  N   UNL     1      -2.837  13.820  23.966  0.00  0.00    +0.000 NA
ATOM     19  N   UNL     1      -1.562  14.168  22.037  0.00  0.00    +0.000 N 
ATOM     20  H   UNL     1      -3.804  13.652  24.286  0.00  0.00    +0.000 HD
ATOM     21  H   UNL     1      -0.877  14.342  22.766  0.00  0.00    +0.000 HD
BRANCH  17  26
ATOM     22  C   UNL     1      -6.067  12.460  21.390  0.00  0.00    +0.000 A 
ATOM     23  C   UNL     1      -6.441  13.329  20.365  0.00  0.00    +0.000 A 
ATOM     24  C   UNL     1      -5.661  14.447  20.097  0.00  0.00    +0.000 A 
ATOM     25  C   UNL     1      -4.488  14.695  20.831  0.00  0.00    +0.000 A 
ATOM     26  C   UNL     1      -4.093  13.802  21.855  0.00  0.00    +0.000 A 
ATOM     27  C   UNL     1      -4.909  12.700  22.123  0.00  0.00    +0.000 A 
BRANCH  22  29
ATOM     28  C   UNL     1      -7.440  10.812  20.387  0.00  0.00    +0.000 C 
ATOM     29  O   UNL     1      -6.876  11.366  21.573  0.00  0.00    +0.000 OA
ENDBRANCH  22  29
ENDBRANCH  17  26
ENDBRANCH   1  19
TORSDOF 4
ENDMDL
MODEL 8
REMARK VINA RESULT:      -7.1      9.970     12.193
REMARK  Name = 
REMARK  5 active torsions:
REMARK  status: ('A' for Active; 'I' for Inactive)
REMARK    1  A    between atoms: C_1  and  O_2
REMARK    2  A    between atoms: O_2  and  C_3
REMARK    3  A    between atoms: C_7  and  C_8
REMARK    4  A    between atoms: N_10  and  C_11
REMARK    5  A    between atoms: C_13  and  C_14
REMARK                            x       y       z     vdW  Elec       q    Type
REMARK                         _______ _______ _______ _____ _____    ______ ____
ROOT
ATOM      1  C   UNL     1      10.570  16.629  19.479  0.00  0.00    +0.000 A 
ATOM      2  N   UNL     1      11.142  16.355  20.678  0.00  0.00    +0.000 NA
ATOM      3  C   UNL     1      10.303  16.237  21.710  0.00  0.00    +0.000 A 
ATOM      4  C   UNL     1       9.364  17.219  21.764  0.00  0.00    +0.000 A 
ATOM      5  C   UNL     1       8.541  17.110  20.675  0.00  0.00    +0.000 A 
ATOM      6  C   UNL     1       7.166  17.093  20.942  0.00  0.00    +0.000 A 
ATOM      7  C   UNL     1       6.261  17.013  19.906  0.00  0.00    +0.000 A 
ATOM      8  C   UNL     1       6.743  17.048  18.606  0.00  0.00    +0.000 A 
ATOM      9  C   UNL     1       8.147  17.008  18.337  0.00  0.00    +0.000 A 
ATOM     10  C   UNL     1       9.119  16.924  19.399  0.00  0.00    +0.000 A 
ENDROOT
BRANCH   3  11
ATOM     11  C   UNL     1       9.903  14.833  22.034  0.00  0.00    +0.000 A 
ATOM     12  C   UNL     1      10.224  13.757  21.208  0.00  0.00    +0.000 A 
ATOM     13  C   UNL     1       9.719  12.496  21.513  0.00  0.00    +0.000 A 
ATOM     14  C   UNL     1       8.873  12.340  22.605  0.00  0.00    +0.000 A 
ATOM     15  C   UNL     1       8.561  13.462  23.351  0.00  0.00    +0.000 A 
ATOM     16  N   UNL     1       9.077  14.681  23.111  0.00  0.00    +0.000 NA
ENDBRANCH   3  11
BRANCH   1  19
ATOM     17  C   UNL     1      11.108  15.480  17.402  0.00  0.00    +0.000 C 
ATOM     18  N   UNL     1      10.846  15.902  16.189  0.00  0.00    +0.000 NA
ATOM     19  N   UNL     1      11.458  16.443  18.380  0.00  0.00    +0.000 N 
ATOM     20  H   UNL     1      10.627  15.100  15.576  0.00  0.00    +0.000 HD
ATOM     21  H   UNL     1      11.542  17.343  17.919  0.00  0.00    +0.000 HD
BRANCH  17  26
ATOM     22  C   UNL     1       9.721  11.994  17.907  0.00  0.00    +0.000 A 
ATOM     23  C   UNL     1      10.808  11.271  18.399  0.00  0.00    +0.000 A 
ATOM     24  C   UNL     1      12.043  11.896  18.529  0.00  0.00    +0.000 A 
ATOM     25  C   UNL     1      12.198  13.253  18.192  0.00  0.00    +0.000 A 
ATOM     26  C   UNL     1      11.091  13.993  17.716  0.00  0.00    +0.000 A 
ATOM     27  C   UNL     1       9.867  13.335  17.569  0.00  0.00    +0.000 A 
BRANCH  22  29
ATOM     28  C   UNL     1       8.583   9.942  18.228  0.00  0.00    +0.000 C 
ATOM     29  O   UNL     1       8.532  11.311  17.835  0.00  0.00    +0.000 OA
ENDBRANCH  22  29
ENDBRANCH  17  26
ENDBRANCH   1  19
TORSDOF 4
ENDMDL
MODEL 9
REMARK VINA RESULT:      -7.1      7.501     11.037
REMARK  Name = 
REMARK  5 active torsions:
REMARK  status: ('A' for Active; 'I' for Inactive)
REMARK    1  A    between atoms: C_1  and  O_2
REMARK    2  A    between atoms: O_2  and  C_3
REMARK    3  A    between atoms: C_7  and  C_8
REMARK    4  A    between atoms: N_10  and  C_11
REMARK    5  A    between atoms: C_13  and  C_14
REMARK                            x       y       z     vdW  Elec       q    Type
REMARK                         _______ _______ _______ _____ _____    ______ ____
ROOT
ATOM      1  C   UNL     1      -6.234  12.648  21.277  0.00  0.00    +0.000 A 
ATOM      2  N   UNL     1      -6.308  11.473  20.602  0.00  0.00    +0.000 NA
ATOM      3  C   UNL     1      -6.394  11.570  19.273  0.00  0.00    +0.000 A 
ATOM      4  C   UNL     1      -7.293  12.498  18.851  0.00  0.00    +0.000 A 
ATOM      5  C   UNL     1      -6.861  13.742  19.229  0.00  0.00    +0.000 A 
ATOM      6  C   UNL     1      -6.818  14.712  18.220  0.00  0.00    +0.000 A 
ATOM      7  C   UNL     1      -6.421  15.999  18.513  0.00  0.00    +0.000 A 
ATOM      8  C   UNL     1      -6.163  16.322  19.837  0.00  0.00    +0.000 A 
ATOM      9  C   UNL     1      -6.152  15.319  20.855  0.00  0.00    +0.000 A 
ATOM     10  C   UNL     1      -6.402  13.932  20.552  0.00  0.00    +0.000 A 
ENDROOT
BRANCH   3  11
ATOM     11  C   UNL     1      -5.092  11.440  18.549  0.00  0.00    +0.000 A 
ATOM     12  C   UNL     1      -3.868  11.685  19.170  0.00  0.00    +0.000 A 
ATOM     13  C   UNL     1      -2.705  11.658  18.405  0.00  0.00    +0.000 A 
ATOM     14  C   UNL     1      -2.787  11.433  17.036  0.00  0.00    +0.000 A 
ATOM     15  C   UNL     1      -4.042  11.246  16.483  0.00  0.00    +0.000 A 
ATOM     16  N   UNL     1      -5.176  11.213  17.205  0.00  0.00    +0.000 NA
ENDBRANCH   3  11
BRANCH   1  19
ATOM     17  C   UNL     1      -4.760  13.273  23.109  0.00  0.00    +0.000 C 
ATOM     18  N   UNL     1      -5.008  14.165  24.037  0.00  0.00    +0.000 NA
ATOM     19  N   UNL     1      -5.841  12.489  22.636  0.00  0.00    +0.000 N 
ATOM     20  H   UNL     1      -4.135  14.649  24.303  0.00  0.00    +0.000 HD
ATOM     21  H   UNL     1      -6.656  12.703  23.202  0.00  0.00    +0.000 HD
BRANCH  17  26
ATOM     22  C   UNL     1      -1.293  11.773  22.864  0.00  0.00    +0.000 A 
ATOM     23  C   UNL     1      -0.641  12.592  21.942  0.00  0.00    +0.000 A 
ATOM     24  C   UNL     1      -1.339  13.628  21.334  0.00  0.00    +0.000 A 
ATOM     25  C   UNL     1      -2.685  13.873  21.658  0.00  0.00    +0.000 A 
ATOM     26  C   UNL     1      -3.341  13.059  22.611  0.00  0.00    +0.000 A 
ATOM     27  C   UNL     1      -2.626  12.007  23.188  0.00  0.00    +0.000 A 
BRANCH  22  29
ATOM     28  C   UNL     1      -0.217   9.681  22.601  0.00  0.00    +0.000 C 
ATOM     29  O   UNL     1      -0.526  10.790  23.439  0.00  0.00    +0.000 OA
ENDBRANCH  22  29
ENDBRANCH  17  26
ENDBRANCH   1  19
TORSDOF 4
ENDMDL
