MODEL 1
REMARK VINA RESULT:      -5.7      0.000      0.000
REMARK  Name = 
REMARK  5 active torsions:
REMARK  status: ('A' for Active; 'I' for Inactive)
REMARK    1  A    between atoms: C_1  and  C_2
REMARK    2  A    between atoms: C_2  and  O_3
REMARK    3  A    between atoms: O_3  and  C_4
REMARK    4  A    between atoms: C_4  and  C_6
REMARK    5  A    between atoms: C_8  and  C_9
REMARK                            x       y       z     vdW  Elec       q    Type
REMARK                         _______ _______ _______ _____ _____    ______ ____
ROOT
ATOM      1  C   UNL     1       6.632   4.528  16.135  0.00  0.00    +0.000 A 
ATOM      2  C   UNL     1       5.353   4.397  16.745  0.00  0.00    +0.000 A 
ATOM      3  C   UNL     1       5.596   4.240  18.092  0.00  0.00    +0.000 A 
ATOM      4  N   UNL     1       6.952   4.337  18.227  0.00  0.00    +0.000 N 
ATOM      5  N   UNL     1       7.601   4.503  17.068  0.00  0.00    +0.000 NA
ATOM      6  H   UNL     1       7.504   4.277  19.078  0.00  0.00    +0.000 HD
ENDROOT
BRANCH   1   7
ATOM      7  C   UNL     1       6.911   4.589  14.693  0.00  0.00    +0.000 C 
ATOM      8  O   UNL     1       7.655   5.425  14.192  0.00  0.00    +0.000 OA
BRANCH   7   9
ATOM      9  O   UNL     1       6.161   3.695  13.981  0.00  0.00    +0.000 OA
BRANCH   9  11
ATOM     10  C   UNL     1       5.138   3.181  11.883  0.00  0.00    +0.000 C 
ATOM     11  C   UNL     1       6.407   3.657  12.572  0.00  0.00    +0.000 C 
ENDBRANCH   9  11
ENDBRANCH   7   9
ENDBRANCH   1   7
BRANCH   3  12
ATOM     12  C   UNL     1       4.702   3.971  19.245  0.00  0.00    +0.000 C 
ATOM     13  I   UNL     1       3.206   5.471  19.358  0.00  0.00    +0.000 I 
ENDBRANCH   3  12
TORSDOF 4
ENDMDL
MODEL 2
REMARK VINA RESULT:      -5.5      2.567      3.106
REMARK  Name = 
REMARK  5 active torsions:
REMARK  status: ('A' for Active; 'I' for Inactive)
REMARK    1  A    between atoms: C_1  and  C_2
REMARK    2  A    between atoms: C_2  and  O_3
REMARK    3  A    between atoms: O_3  and  C_4
REMARK    4  A    between atoms: C_4  and  C_6
REMARK    5  A    between atoms: C_8  and  C_9
REMARK                            x       y       z     vdW  Elec       q    Type
REMARK                         _______ _______ _______ _____ _____    ______ ____
ROOT
ATOM      1  C   UNL     1       6.469   4.126  13.658  0.00  0.00    +0.000 A 
ATOM      2  C   UNL     1       6.181   3.767  15.004  0.00  0.00    +0.000 A 
ATOM      3  C   UNL     1       6.942   4.610  15.785  0.00  0.00    +0.000 A 
ATOM      4  N   UNL     1       7.581   5.438  14.907  0.00  0.00    +0.000 N 
ATOM      5  N   UNL     1       7.322   5.167  13.622  0.00  0.00    +0.000 NA
ATOM      6  H   UNL     1       8.225   6.195  15.113  0.00  0.00    +0.000 HD
ENDROOT
BRANCH   1   7
ATOM      7  C   UNL     1       6.003   3.431  12.449  0.00  0.00    +0.000 C 
ATOM      8  O   UNL     1       6.735   2.731  11.757  0.00  0.00    +0.000 OA
BRANCH   7   9
ATOM      9  O   UNL     1       4.713   3.751  12.131  0.00  0.00    +0.000 OA
BRANCH   9  11
ATOM     10  C   UNL     1       3.259   3.801  10.235  0.00  0.00    +0.000 C 
ATOM     11  C   UNL     1       4.086   2.916  11.154  0.00  0.00    +0.000 C 
ENDBRANCH   9  11
ENDBRANCH   7   9
ENDBRANCH   1   7
BRANCH   3  12
ATOM     12  C   UNL     1       7.160   4.690  17.250  0.00  0.00    +0.000 C 
ATOM     13  I   UNL     1       7.362   6.719  17.835  0.00  0.00    +0.000 I 
ENDBRANCH   3  12
TORSDOF 4
ENDMDL
MODEL 3
REMARK VINA RESULT:      -5.5      1.913      2.454
REMARK  Name = 
REMARK  5 active torsions:
REMARK  status: ('A' for Active; 'I' for Inactive)
REMARK    1  A    between atoms: C_1  and  C_2
REMARK    2  A    between atoms: C_2  and  O_3
REMARK    3  A    between atoms: O_3  and  C_4
REMARK    4  A    between atoms: C_4  and  C_6
REMARK    5  A    between atoms: C_8  and  C_9
REMARK                            x       y       z     vdW  Elec       q    Type
REMARK                         _______ _______ _______ _____ _____    ______ ____
ROOT
ATOM      1  C   UNL     1       6.579   4.310  14.000  0.00  0.00    +0.000 A 
ATOM      2  C   UNL     1       6.093   3.899  15.273  0.00  0.00    +0.000 A 
ATOM      3  C   UNL     1       6.781   4.655  16.197  0.00  0.00    +0.000 A 
ATOM      4  N   UNL     1       7.574   5.491  15.461  0.00  0.00    +0.000 N 
ATOM      5  N   UNL     1       7.479   5.301  14.140  0.00  0.00    +0.000 NA
ATOM      6  H   UNL     1       8.220   6.199  15.796  0.00  0.00    +0.000 HD
ENDROOT
BRANCH   1   7
ATOM      7  C   UNL     1       6.248   3.706  12.701  0.00  0.00    +0.000 C 
ATOM      8  O   UNL     1       7.098   3.403  11.871  0.00  0.00    +0.000 OA
BRANCH   7   9
ATOM      9  O   UNL     1       4.900   3.637  12.490  0.00  0.00    +0.000 OA
BRANCH   9  11
ATOM     10  C   UNL     1       3.482   3.671  10.566  0.00  0.00    +0.000 C 
ATOM     11  C   UNL     1       4.485   2.855  11.366  0.00  0.00    +0.000 C 
ENDBRANCH   9  11
ENDBRANCH   7   9
ENDBRANCH   1   7
BRANCH   3  12
ATOM     12  C   UNL     1       6.801   4.648  17.680  0.00  0.00    +0.000 C 
ATOM     13  I   UNL     1       4.817   4.535  18.424  0.00  0.00    +0.000 I 
ENDBRANCH   3  12
TORSDOF 4
ENDMDL
MODEL 4
REMARK VINA RESULT:      -5.4      4.522      5.870
REMARK  Name = 
REMARK  5 active torsions:
REMARK  status: ('A' for Active; 'I' for Inactive)
REMARK    1  A    between atoms: C_1  and  C_2
REMARK    2  A    between atoms: C_2  and  O_3
REMARK    3  A    between atoms: O_3  and  C_4
REMARK    4  A    between atoms: C_4  and  C_6
REMARK    5  A    between atoms: C_8  and  C_9
REMARK                            x       y       z     vdW  Elec       q    Type
REMARK                         _______ _______ _______ _____ _____    ______ ____
ROOT
ATOM      1  C   UNL     1       3.354   3.626  18.543  0.00  0.00    +0.000 A 
ATOM      2  C   UNL     1       4.093   4.836  18.431  0.00  0.00    +0.000 A 
ATOM      3  C   UNL     1       5.342   4.559  18.942  0.00  0.00    +0.000 A 
ATOM      4  N   UNL     1       5.312   3.233  19.269  0.00  0.00    +0.000 N 
ATOM      5  N   UNL     1       4.128   2.648  19.047  0.00  0.00    +0.000 NA
ATOM      6  H   UNL     1       6.055   2.668  19.670  0.00  0.00    +0.000 HD
ENDROOT
BRANCH   1   7
ATOM      7  C   UNL     1       1.924   3.444  18.251  0.00  0.00    +0.000 C 
ATOM      8  O   UNL     1       1.369   3.963  17.288  0.00  0.00    +0.000 OA
BRANCH   7   9
ATOM      9  O   UNL     1       1.280   2.741  19.229  0.00  0.00    +0.000 OA
BRANCH   9  11
ATOM     10  C   UNL     1       1.511   2.725  21.607  0.00  0.00    +0.000 C 
ATOM     11  C   UNL     1       0.949   3.475  20.411  0.00  0.00    +0.000 C 
ENDBRANCH   9  11
ENDBRANCH   7   9
ENDBRANCH   1   7
BRANCH   3  12
ATOM     12  C   UNL     1       6.533   5.408  19.189  0.00  0.00    +0.000 C 
ATOM     13  I   UNL     1       7.012   6.500  17.434  0.00  0.00    +0.000 I 
ENDBRANCH   3  12
TORSDOF 4
ENDMDL
MODEL 5
REMARK VINA RESULT:      -5.4      1.514      1.992
REMARK  Name = 
REMARK  5 active torsions:
REMARK  status: ('A' for Active; 'I' for Inactive)
REMARK    1  A    between atoms: C_1  and  C_2
REMARK    2  A    between atoms: C_2  and  O_3
REMARK    3  A    between atoms: O_3  and  C_4
REMARK    4  A    between atoms: C_4  and  C_6
REMARK    5  A    between atoms: C_8  and  C_9
REMARK                            x       y       z     vdW  Elec       q    Type
REMARK                         _______ _______ _______ _____ _____    ______ ____
ROOT
ATOM      1  C   UNL     1       5.910   4.949  17.525  0.00  0.00    +0.000 A 
ATOM      2  C   UNL     1       4.518   4.680  17.649  0.00  0.00    +0.000 A 
ATOM      3  C   UNL     1       4.396   3.843  18.737  0.00  0.00    +0.000 A 
ATOM      4  N   UNL     1       5.663   3.703  19.228  0.00  0.00    +0.000 N 
ATOM      5  N   UNL     1       6.594   4.350  18.517  0.00  0.00    +0.000 NA
ATOM      6  H   UNL     1       5.968   3.163  20.033  0.00  0.00    +0.000 HD
ENDROOT
BRANCH   1   7
ATOM      7  C   UNL     1       6.563   5.690  16.436  0.00  0.00    +0.000 C 
ATOM      8  O   UNL     1       6.303   6.860  16.175  0.00  0.00    +0.000 OA
BRANCH   7   9
ATOM      9  O   UNL     1       7.389   4.896  15.690  0.00  0.00    +0.000 OA
BRANCH   9  11
ATOM     10  C   UNL     1       6.045   3.922  13.971  0.00  0.00    +0.000 C 
ATOM     11  C   UNL     1       7.159   4.909  14.278  0.00  0.00    +0.000 C 
ENDBRANCH   9  11
ENDBRANCH   7   9
ENDBRANCH   1   7
BRANCH   3  12
ATOM     12  C   UNL     1       3.234   3.139  19.332  0.00  0.00    +0.000 C 
ATOM     13  I   UNL     1       2.095   4.495  20.501  0.00  0.00    +0.000 I 
ENDBRANCH   3  12
TORSDOF 4
ENDMDL
MODEL 6
REMARK VINA RESULT:      -5.3      1.887      2.262
REMARK  Name = 
REMARK  5 active torsions:
REMARK  status: ('A' for Active; 'I' for Inactive)
REMARK    1  A    between atoms: C_1  and  C_2
REMARK    2  A    between atoms: C_2  and  O_3
REMARK    3  A    between atoms: O_3  and  C_4
REMARK    4  A    between atoms: C_4  and  C_6
REMARK    5  A    between atoms: C_8  and  C_9
REMARK                            x       y       z     vdW  Elec       q    Type
REMARK                         _______ _______ _______ _____ _____    ______ ____
ROOT
ATOM      1  C   UNL     1       5.469   4.873  17.443  0.00  0.00    +0.000 A 
ATOM      2  C   UNL     1       4.248   4.145  17.380  0.00  0.00    +0.000 A 
ATOM      3  C   UNL     1       4.300   3.241  18.419  0.00  0.00    +0.000 A 
ATOM      4  N   UNL     1       5.476   3.498  19.064  0.00  0.00    +0.000 N 
ATOM      5  N   UNL     1       6.203   4.468  18.496  0.00  0.00    +0.000 NA
ATOM      6  H   UNL     1       5.857   3.035  19.884  0.00  0.00    +0.000 HD
ENDROOT
BRANCH   1   7
ATOM      7  C   UNL     1       5.947   5.865  16.468  0.00  0.00    +0.000 C 
ATOM      8  O   UNL     1       6.405   6.954  16.795  0.00  0.00    +0.000 OA
BRANCH   7   9
ATOM      9  O   UNL     1       5.711   5.480  15.178  0.00  0.00    +0.000 OA
BRANCH   9  11
ATOM     10  C   UNL     1       6.102   3.806  13.518  0.00  0.00    +0.000 C 
ATOM     11  C   UNL     1       6.744   4.710  14.558  0.00  0.00    +0.000 C 
ENDBRANCH   9  11
ENDBRANCH   7   9
ENDBRANCH   1   7
BRANCH   3  12
ATOM     12  C   UNL     1       3.389   2.148  18.840  0.00  0.00    +0.000 C 
ATOM     13  I   UNL     1       1.381   2.832  18.802  0.00  0.00    +0.000 I 
ENDBRANCH   3  12
TORSDOF 4
ENDMDL
MODEL 7
REMARK VINA RESULT:      -5.3      3.968      5.817
REMARK  Name = 
REMARK  5 active torsions:
REMARK  status: ('A' for Active; 'I' for Inactive)
REMARK    1  A    between atoms: C_1  and  C_2
REMARK    2  A    between atoms: C_2  and  O_3
REMARK    3  A    between atoms: O_3  and  C_4
REMARK    4  A    between atoms: C_4  and  C_6
REMARK    5  A    between atoms: C_8  and  C_9
REMARK                            x       y       z     vdW  Elec       q    Type
REMARK                         _______ _______ _______ _____ _____    ______ ____
ROOT
ATOM      1  C   UNL     1       3.931   3.232  18.477  0.00  0.00    +0.000 A 
ATOM      2  C   UNL     1       4.438   3.768  17.261  0.00  0.00    +0.000 A 
ATOM      3  C   UNL     1       5.705   4.225  17.555  0.00  0.00    +0.000 A 
ATOM      4  N   UNL     1       5.910   3.901  18.866  0.00  0.00    +0.000 N 
ATOM      5  N   UNL     1       4.859   3.311  19.448  0.00  0.00    +0.000 NA
ATOM      6  H   UNL     1       6.734   4.074  19.434  0.00  0.00    +0.000 HD
ENDROOT
BRANCH   1   7
ATOM      7  C   UNL     1       2.566   2.739  18.713  0.00  0.00    +0.000 C 
ATOM      8  O   UNL     1       1.802   2.430  17.805  0.00  0.00    +0.000 OA
BRANCH   7   9
ATOM      9  O   UNL     1       2.220   2.781  20.034  0.00  0.00    +0.000 OA
BRANCH   9  11
ATOM     10  C   UNL     1       1.562   4.999  20.636  0.00  0.00    +0.000 C 
ATOM     11  C   UNL     1       1.080   3.585  20.355  0.00  0.00    +0.000 C 
ENDBRANCH   9  11
ENDBRANCH   7   9
ENDBRANCH   1   7
BRANCH   3  12
ATOM     12  C   UNL     1       6.714   4.959  16.753  0.00  0.00    +0.000 C 
ATOM     13  I   UNL     1       6.408   4.577  14.689  0.00  0.00    +0.000 I 
ENDBRANCH   3  12
TORSDOF 4
ENDMDL
MODEL 8
REMARK VINA RESULT:      -5.3      1.848      2.392
REMARK  Name = 
REMARK  5 active torsions:
REMARK  status: ('A' for Active; 'I' for Inactive)
REMARK    1  A    between atoms: C_1  and  C_2
REMARK    2  A    between atoms: C_2  and  O_3
REMARK    3  A    between atoms: O_3  and  C_4
REMARK    4  A    between atoms: C_4  and  C_6
REMARK    5  A    between atoms: C_8  and  C_9
REMARK                            x       y       z     vdW  Elec       q    Type
REMARK                         _______ _______ _______ _____ _____    ______ ____
ROOT
ATOM      1  C   UNL     1       6.329   5.456  17.784  0.00  0.00    +0.000 A 
ATOM      2  C   UNL     1       4.965   5.624  18.152  0.00  0.00    +0.000 A 
ATOM      3  C   UNL     1       4.660   4.547  18.956  0.00  0.00    +0.000 A 
ATOM      4  N   UNL     1       5.825   3.842  19.072  0.00  0.00    +0.000 N 
ATOM      5  N   UNL     1       6.842   4.360  18.374  0.00  0.00    +0.000 NA
ATOM      6  H   UNL     1       5.991   2.987  19.594  0.00  0.00    +0.000 HD
ENDROOT
BRANCH   1   7
ATOM      7  C   UNL     1       7.085   6.278  16.827  0.00  0.00    +0.000 C 
ATOM      8  O   UNL     1       7.399   7.442  17.051  0.00  0.00    +0.000 OA
BRANCH   7   9
ATOM      9  O   UNL     1       7.284   5.638  15.637  0.00  0.00    +0.000 OA
BRANCH   9  11
ATOM     10  C   UNL     1       6.389   4.035  14.107  0.00  0.00    +0.000 C 
ATOM     11  C   UNL     1       6.102   5.295  14.908  0.00  0.00    +0.000 C 
ENDBRANCH   9  11
ENDBRANCH   7   9
ENDBRANCH   1   7
BRANCH   3  12
ATOM     12  C   UNL     1       3.395   4.095  19.584  0.00  0.00    +0.000 C 
ATOM     13  I   UNL     1       2.616   2.435  18.516  0.00  0.00    +0.000 I 
ENDBRANCH   3  12
TORSDOF 4
ENDMDL
MODEL 9
REMARK VINA RESULT:      -5.2      1.569      1.569
REMARK  Name = 
REMARK  5 active torsions:
REMARK  status: ('A' for Active; 'I' for Inactive)
REMARK    1  A    between atoms: C_1  and  C_2
REMARK    2  A    between atoms: C_2  and  O_3
REMARK    3  A    between atoms: O_3  and  C_4
REMARK    4  A    between atoms: C_4  and  C_6
REMARK    5  A    between atoms: C_8  and  C_9
REMARK                            x       y       z     vdW  Elec       q    Type
REMARK                         _______ _______ _______ _____ _____    ______ ____
ROOT
ATOM      1  C   UNL     1       6.078   5.423  15.598  0.00  0.00    +0.000 A 
ATOM      2  C   UNL     1       4.945   4.822  16.213  0.00  0.00    +0.000 A 
ATOM      3  C   UNL     1       4.652   5.609  17.305  0.00  0.00    +0.000 A 
ATOM      4  N   UNL     1       5.552   6.636  17.262  0.00  0.00    +0.000 N 
ATOM      5  N   UNL     1       6.425   6.547  16.251  0.00  0.00    +0.000 NA
ATOM      6  H   UNL     1       5.642   7.419  17.902  0.00  0.00    +0.000 HD
ENDROOT
BRANCH   1   7
ATOM      7  C   UNL     1       6.849   4.883  14.469  0.00  0.00    +0.000 C 
ATOM      8  O   UNL     1       7.803   5.471  13.970  0.00  0.00    +0.000 OA
BRANCH   7   9
ATOM      9  O   UNL     1       6.310   3.728  13.977  0.00  0.00    +0.000 OA
BRANCH   9  11
ATOM     10  C   UNL     1       4.961   3.381  12.035  0.00  0.00    +0.000 C 
ATOM     11  C   UNL     1       6.376   3.563  12.557  0.00  0.00    +0.000 C 
ENDBRANCH   9  11
ENDBRANCH   7   9
ENDBRANCH   1   7
BRANCH   3  12
ATOM     12  C   UNL     1       3.653   5.478  18.394  0.00  0.00    +0.000 C 
ATOM     13  I   UNL     1       2.231   3.988  17.887  0.00  0.00    +0.000 I 
ENDBRANCH   3  12
TORSDOF 4
ENDMDL
