MODEL 1
REMARK VINA RESULT:      -6.4      0.000      0.000
REMARK  Name = 
REMARK  11 active torsions:
REMARK  status: ('A' for Active; 'I' for Inactive)
REMARK    1  A    between atoms: C_1  and  C_2
REMARK    2  A    between atoms: C_2  and  O_4
REMARK    3  A    between atoms: O_4  and  C_5
REMARK    4  A    between atoms: C_8  and  C_9
REMARK    5  A    between atoms: N_17  and  O_18
REMARK    6  A    between atoms: C_19  and  C_20
REMARK    7  A    between atoms: C_21  and  C_22
REMARK    8  A    between atoms: C_22  and  C_23
REMARK    9  A    between atoms: C_22  and  O_24
REMARK   10  A    between atoms: O_24  and  C_25
REMARK   11  A    between atoms: C_25  and  C_26
REMARK                            x       y       z     vdW  Elec       q    Type
REMARK                         _______ _______ _______ _____ _____    ______ ____
ROOT
ATOM      1  C   UNL     1      -2.784  15.857  25.072  0.00  0.00    +0.000 C 
ATOM      2  C   UNL     1      -2.998  16.603  23.758  0.00  0.00    +0.000 C 
ATOM      3  C   UNL     1      -2.170  16.006  22.601  0.00  0.00    +0.000 C 
ATOM      4  C   UNL     1      -2.282  14.445  22.420  0.00  0.00    +0.000 C 
ATOM      5  C   UNL     1      -3.312  14.254  21.281  0.00  0.00    +0.000 C 
ATOM      6  C   UNL     1      -2.595  13.743  23.793  0.00  0.00    +0.000 C 
ATOM      7  C   UNL     1      -2.857  12.254  23.677  0.00  0.00    +0.000 C 
ATOM      8  C   UNL     1      -1.528  11.611  23.264  0.00  0.00    +0.000 C 
ATOM      9  C   UNL     1      -1.044  12.158  21.900  0.00  0.00    +0.000 C 
ATOM     10  C   UNL     1      -0.913  13.722  22.000  0.00  0.00    +0.000 C 
ATOM     11  C   UNL     1      -0.194  14.225  20.774  0.00  0.00    +0.000 C 
ATOM     12  C   UNL     1       0.997  13.283  20.644  0.00  0.00    +0.000 C 
ATOM     13  N   UNL     1       2.135  13.433  21.273  0.00  0.00    +0.000 NA
ATOM     14  C   UNL     1       0.851  11.883  19.926  0.00  0.00    +0.000 C 
ATOM     15  C   UNL     1       1.498  12.691  18.740  0.00  0.00    +0.000 C 
ATOM     16  C   UNL     1       0.091  10.787  19.130  0.00  0.00    +0.000 C 
ATOM     17  C   UNL     1       0.163   9.513  19.992  0.00  0.00    +0.000 C 
ATOM     18  C   UNL     1       0.183   9.949  21.419  0.00  0.00    +0.000 C 
ATOM     19  C   UNL     1       0.307  11.474  21.407  0.00  0.00    +0.000 C 
ATOM     20  C   UNL     1      -3.436  14.479  24.841  0.00  0.00    +0.000 C 
ENDROOT
BRANCH  13  21
ATOM     21  O   UNL     1       2.132  14.395  22.263  0.00  0.00    +0.000 OA
ATOM     22  H   UNL     1       2.557  13.914  23.004  0.00  0.00    +0.000 HD
ENDBRANCH  13  21
BRANCH  16  23
ATOM     23  C   UNL     1      -1.284  10.941  18.454  0.00  0.00    +0.000 C 
ATOM     24  C   UNL     1      -1.554  12.334  17.896  0.00  0.00    +0.000 C 
BRANCH  23  25
ATOM     25  O   UNL     1      -1.234  10.089  17.265  0.00  0.00    +0.000 OA
BRANCH  25  26
ATOM     26  C   UNL     1      -2.381   9.837  16.589  0.00  0.00    +0.000 C 
ATOM     27  C   UNL     1      -3.488   9.536  17.559  0.00  0.00    +0.000 C 
ATOM     28  O   UNL     1      -2.525   9.909  15.378  0.00  0.00    +0.000 OA
ENDBRANCH  25  26
ENDBRANCH  23  25
ENDBRANCH  16  23
BRANCH   1  29
ATOM     29  O   UNL     1      -1.382  15.599  25.391  0.00  0.00    +0.000 OA
BRANCH  29  31
ATOM     30  C   UNL     1       0.343  17.162  25.092  0.00  0.00    +0.000 C 
ATOM     31  C   UNL     1      -0.613  16.499  26.048  0.00  0.00    +0.000 C 
ATOM     32  O   UNL     1      -0.714  16.791  27.230  0.00  0.00    +0.000 OA
ENDBRANCH  29  31
ENDBRANCH   1  29
TORSDOF 6
ENDMDL
MODEL 2
REMARK VINA RESULT:      -6.2      2.835      7.095
REMARK  Name = 
REMARK  11 active torsions:
REMARK  status: ('A' for Active; 'I' for Inactive)
REMARK    1  A    between atoms: C_1  and  C_2
REMARK    2  A    between atoms: C_2  and  O_4
REMARK    3  A    between atoms: O_4  and  C_5
REMARK    4  A    between atoms: C_8  and  C_9
REMARK    5  A    between atoms: N_17  and  O_18
REMARK    6  A    between atoms: C_19  and  C_20
REMARK    7  A    between atoms: C_21  and  C_22
REMARK    8  A    between atoms: C_22  and  C_23
REMARK    9  A    between atoms: C_22  and  O_24
REMARK   10  A    between atoms: O_24  and  C_25
REMARK   11  A    between atoms: C_25  and  C_26
REMARK                            x       y       z     vdW  Elec       q    Type
REMARK                         _______ _______ _______ _____ _____    ______ ____
ROOT
ATOM      1  C   UNL     1       1.625   9.428  18.251  0.00  0.00    +0.000 C 
ATOM      2  C   UNL     1       0.156   9.412  17.836  0.00  0.00    +0.000 C 
ATOM      3  C   UNL     1      -0.723  10.290  18.751  0.00  0.00    +0.000 C 
ATOM      4  C   UNL     1      -0.195  11.753  19.001  0.00  0.00    +0.000 C 
ATOM      5  C   UNL     1      -0.999  12.634  18.015  0.00  0.00    +0.000 C 
ATOM      6  C   UNL     1       1.374  11.807  18.895  0.00  0.00    +0.000 C 
ATOM      7  C   UNL     1       1.947  13.208  18.984  0.00  0.00    +0.000 C 
ATOM      8  C   UNL     1       1.689  13.692  20.416  0.00  0.00    +0.000 C 
ATOM      9  C   UNL     1       0.173  13.734  20.724  0.00  0.00    +0.000 C 
ATOM     10  C   UNL     1      -0.431  12.302  20.490  0.00  0.00    +0.000 C 
ATOM     11  C   UNL     1      -1.834  12.273  21.041  0.00  0.00    +0.000 C 
ATOM     12  C   UNL     1      -1.694  12.918  22.414  0.00  0.00    +0.000 C 
ATOM     13  N   UNL     1      -1.342  12.279  23.502  0.00  0.00    +0.000 NA
ATOM     14  C   UNL     1      -1.710  14.489  22.582  0.00  0.00    +0.000 C 
ATOM     15  C   UNL     1      -3.201  14.192  22.992  0.00  0.00    +0.000 C 
ATOM     16  C   UNL     1      -1.851  15.952  22.078  0.00  0.00    +0.000 C 
ATOM     17  C   UNL     1      -0.539  16.659  22.466  0.00  0.00    +0.000 C 
ATOM     18  C   UNL     1       0.544  15.633  22.420  0.00  0.00    +0.000 C 
ATOM     19  C   UNL     1      -0.142  14.285  22.184  0.00  0.00    +0.000 C 
ATOM     20  C   UNL     1       2.098  10.861  17.932  0.00  0.00    +0.000 C 
ENDROOT
BRANCH  13  21
ATOM     21  O   UNL     1      -0.874  10.997  23.300  0.00  0.00    +0.000 OA
ATOM     22  H   UNL     1      -1.486  10.672  22.606  0.00  0.00    +0.000 HD
ENDBRANCH  13  21
BRANCH  16  23
ATOM     23  C   UNL     1      -2.346  16.392  20.688  0.00  0.00    +0.000 C 
ATOM     24  C   UNL     1      -3.735  17.021  20.689  0.00  0.00    +0.000 C 
BRANCH  23  25
ATOM     25  O   UNL     1      -1.464  17.491  20.288  0.00  0.00    +0.000 OA
BRANCH  25  26
ATOM     26  C   UNL     1      -1.173  17.655  18.976  0.00  0.00    +0.000 C 
ATOM     27  C   UNL     1      -0.380  16.480  18.479  0.00  0.00    +0.000 C 
ATOM     28  O   UNL     1      -1.551  18.579  18.272  0.00  0.00    +0.000 OA
ENDBRANCH  25  26
ENDBRANCH  23  25
ENDBRANCH  16  23
BRANCH   1  29
ATOM     29  O   UNL     1       1.843   9.232  19.682  0.00  0.00    +0.000 OA
BRANCH  29  31
ATOM     30  C   UNL     1       0.730   8.163  21.450  0.00  0.00    +0.000 C 
ATOM     31  C   UNL     1       1.671   8.031  20.282  0.00  0.00    +0.000 C 
ATOM     32  O   UNL     1       2.148   6.973  19.902  0.00  0.00    +0.000 OA
ENDBRANCH  29  31
ENDBRANCH   1  29
TORSDOF 6
ENDMDL
MODEL 3
REMARK VINA RESULT:      -6.0      2.949      6.040
REMARK  Name = 
REMARK  11 active torsions:
REMARK  status: ('A' for Active; 'I' for Inactive)
REMARK    1  A    between atoms: C_1  and  C_2
REMARK    2  A    between atoms: C_2  and  O_4
REMARK    3  A    between atoms: O_4  and  C_5
REMARK    4  A    between atoms: C_8  and  C_9
REMARK    5  A    between atoms: N_17  and  O_18
REMARK    6  A    between atoms: C_19  and  C_20
REMARK    7  A    between atoms: C_21  and  C_22
REMARK    8  A    between atoms: C_22  and  C_23
REMARK    9  A    between atoms: C_22  and  O_24
REMARK   10  A    between atoms: O_24  and  C_25
REMARK   11  A    between atoms: C_25  and  C_26
REMARK                            x       y       z     vdW  Elec       q    Type
REMARK                         _______ _______ _______ _____ _____    ______ ____
ROOT
ATOM      1  C   UNL     1      -5.294  13.561  23.255  0.00  0.00    +0.000 C 
ATOM      2  C   UNL     1      -4.294  12.566  23.838  0.00  0.00    +0.000 C 
ATOM      3  C   UNL     1      -3.049  12.391  22.944  0.00  0.00    +0.000 C 
ATOM      4  C   UNL     1      -2.353  13.726  22.479  0.00  0.00    +0.000 C 
ATOM      5  C   UNL     1      -1.164  13.909  23.452  0.00  0.00    +0.000 C 
ATOM      6  C   UNL     1      -3.396  14.901  22.394  0.00  0.00    +0.000 C 
ATOM      7  C   UNL     1      -2.777  16.251  22.090  0.00  0.00    +0.000 C 
ATOM      8  C   UNL     1      -2.244  16.170  20.655  0.00  0.00    +0.000 C 
ATOM      9  C   UNL     1      -1.166  15.067  20.523  0.00  0.00    +0.000 C 
ATOM     10  C   UNL     1      -1.788  13.696  20.978  0.00  0.00    +0.000 C 
ATOM     11  C   UNL     1      -0.838  12.587  20.601  0.00  0.00    +0.000 C 
ATOM     12  C   UNL     1      -0.464  12.909  19.160  0.00  0.00    +0.000 C 
ATOM     13  N   UNL     1      -1.165  12.554  18.112  0.00  0.00    +0.000 NA
ATOM     14  C   UNL     1       0.686  13.942  18.829  0.00  0.00    +0.000 C 
ATOM     15  C   UNL     1       1.500  12.610  18.629  0.00  0.00    +0.000 C 
ATOM     16  C   UNL     1       1.839  14.918  19.187  0.00  0.00    +0.000 C 
ATOM     17  C   UNL     1       1.448  16.276  18.575  0.00  0.00    +0.000 C 
ATOM     18  C   UNL     1      -0.042  16.358  18.603  0.00  0.00    +0.000 C 
ATOM     19  C   UNL     1      -0.545  14.986  19.060  0.00  0.00    +0.000 C 
ATOM     20  C   UNL     1      -4.584  14.925  23.362  0.00  0.00    +0.000 C 
ENDROOT
BRANCH  13  21
ATOM     21  O   UNL     1      -2.417  12.046  18.394  0.00  0.00    +0.000 OA
ATOM     22  H   UNL     1      -2.454  12.148  19.369  0.00  0.00    +0.000 HD
ENDBRANCH  13  21
BRANCH  16  23
ATOM     23  C   UNL     1       2.495  15.085  20.570  0.00  0.00    +0.000 C 
ATOM     24  C   UNL     1       3.918  14.544  20.657  0.00  0.00    +0.000 C 
BRANCH  23  25
ATOM     25  O   UNL     1       2.657  16.528  20.756  0.00  0.00    +0.000 OA
BRANCH  25  26
ATOM     26  C   UNL     1       2.591  17.040  22.008  0.00  0.00    +0.000 C 
ATOM     27  C   UNL     1       1.277  16.676  22.639  0.00  0.00    +0.000 C 
ATOM     28  O   UNL     1       3.485  17.649  22.576  0.00  0.00    +0.000 OA
ENDBRANCH  25  26
ENDBRANCH  23  25
ENDBRANCH  16  23
BRANCH   1  29
ATOM     29  O   UNL     1      -5.582  13.357  21.837  0.00  0.00    +0.000 OA
BRANCH  29  31
ATOM     30  C   UNL     1      -5.996  11.996  19.971  0.00  0.00    +0.000 C 
ATOM     31  C   UNL     1      -6.349  12.333  21.395  0.00  0.00    +0.000 C 
ATOM     32  O   UNL     1      -7.166  11.717  22.063  0.00  0.00    +0.000 OA
ENDBRANCH  29  31
ENDBRANCH   1  29
TORSDOF 6
ENDMDL
MODEL 4
REMARK VINA RESULT:      -5.9      3.192      7.698
REMARK  Name = 
REMARK  11 active torsions:
REMARK  status: ('A' for Active; 'I' for Inactive)
REMARK    1  A    between atoms: C_1  and  C_2
REMARK    2  A    between atoms: C_2  and  O_4
REMARK    3  A    between atoms: O_4  and  C_5
REMARK    4  A    between atoms: C_8  and  C_9
REMARK    5  A    between atoms: N_17  and  O_18
REMARK    6  A    between atoms: C_19  and  C_20
REMARK    7  A    between atoms: C_21  and  C_22
REMARK    8  A    between atoms: C_22  and  C_23
REMARK    9  A    between atoms: C_22  and  O_24
REMARK   10  A    between atoms: O_24  and  C_25
REMARK   11  A    between atoms: C_25  and  C_26
REMARK                            x       y       z     vdW  Elec       q    Type
REMARK                         _______ _______ _______ _____ _____    ______ ____
ROOT
ATOM      1  C   UNL     1       0.206  11.995  20.300  0.00  0.00    +0.000 C 
ATOM      2  C   UNL     1      -0.048  13.266  19.495  0.00  0.00    +0.000 C 
ATOM      3  C   UNL     1      -1.530  13.692  19.521  0.00  0.00    +0.000 C 
ATOM      4  C   UNL     1      -2.195  13.754  20.948  0.00  0.00    +0.000 C 
ATOM      5  C   UNL     1      -2.148  15.250  21.339  0.00  0.00    +0.000 C 
ATOM      6  C   UNL     1      -1.507  12.735  21.929  0.00  0.00    +0.000 C 
ATOM      7  C   UNL     1      -1.998  12.835  23.361  0.00  0.00    +0.000 C 
ATOM      8  C   UNL     1      -3.457  12.364  23.353  0.00  0.00    +0.000 C 
ATOM      9  C   UNL     1      -4.328  13.265  22.445  0.00  0.00    +0.000 C 
ATOM     10  C   UNL     1      -3.720  13.259  20.995  0.00  0.00    +0.000 C 
ATOM     11  C   UNL     1      -4.705  13.909  20.057  0.00  0.00    +0.000 C 
ATOM     12  C   UNL     1      -6.033  13.256  20.420  0.00  0.00    +0.000 C 
ATOM     13  N   UNL     1      -6.455  12.113  19.939  0.00  0.00    +0.000 NA
ATOM     14  C   UNL     1      -6.900  13.792  21.627  0.00  0.00    +0.000 C 
ATOM     15  C   UNL     1      -7.685  14.480  20.448  0.00  0.00    +0.000 C 
ATOM     16  C   UNL     1      -7.238  14.768  22.787  0.00  0.00    +0.000 C 
ATOM     17  C   UNL     1      -7.346  13.897  24.053  0.00  0.00    +0.000 C 
ATOM     18  C   UNL     1      -6.399  12.755  23.883  0.00  0.00    +0.000 C 
ATOM     19  C   UNL     1      -5.863  12.843  22.452  0.00  0.00    +0.000 C 
ATOM     20  C   UNL     1      -0.017  12.419  21.766  0.00  0.00    +0.000 C 
ENDROOT
BRANCH  13  21
ATOM     21  O   UNL     1      -5.512  11.395  19.232  0.00  0.00    +0.000 OA
ATOM     22  H   UNL     1      -5.989  11.218  18.394  0.00  0.00    +0.000 HD
ENDBRANCH  13  21
BRANCH  16  23
ATOM     23  C   UNL     1      -6.543  16.111  23.078  0.00  0.00    +0.000 C 
ATOM     24  C   UNL     1      -7.494  17.299  23.174  0.00  0.00    +0.000 C 
BRANCH  23  25
ATOM     25  O   UNL     1      -6.000  15.986  24.432  0.00  0.00    +0.000 OA
BRANCH  25  26
ATOM     26  C   UNL     1      -4.914  16.720  24.775  0.00  0.00    +0.000 C 
ATOM     27  C   UNL     1      -3.688  15.853  24.761  0.00  0.00    +0.000 C 
ATOM     28  O   UNL     1      -4.908  17.921  24.996  0.00  0.00    +0.000 OA
ENDBRANCH  25  26
ENDBRANCH  23  25
ENDBRANCH  16  23
BRANCH   1  29
ATOM     29  O   UNL     1      -0.746  10.919  20.034  0.00  0.00    +0.000 OA
BRANCH  29  31
ATOM     30  C   UNL     1      -2.173  10.291  18.281  0.00  0.00    +0.000 C 
ATOM     31  C   UNL     1      -0.781  10.261  18.851  0.00  0.00    +0.000 C 
ATOM     32  O   UNL     1       0.183   9.768  18.284  0.00  0.00    +0.000 OA
ENDBRANCH  29  31
ENDBRANCH   1  29
TORSDOF 6
ENDMDL
MODEL 5
REMARK VINA RESULT:      -5.8      1.974      7.822
REMARK  Name = 
REMARK  11 active torsions:
REMARK  status: ('A' for Active; 'I' for Inactive)
REMARK    1  A    between atoms: C_1  and  C_2
REMARK    2  A    between atoms: C_2  and  O_4
REMARK    3  A    between atoms: O_4  and  C_5
REMARK    4  A    between atoms: C_8  and  C_9
REMARK    5  A    between atoms: N_17  and  O_18
REMARK    6  A    between atoms: C_19  and  C_20
REMARK    7  A    between atoms: C_21  and  C_22
REMARK    8  A    between atoms: C_22  and  C_23
REMARK    9  A    between atoms: C_22  and  O_24
REMARK   10  A    between atoms: O_24  and  C_25
REMARK   11  A    between atoms: C_25  and  C_26
REMARK                            x       y       z     vdW  Elec       q    Type
REMARK                         _______ _______ _______ _____ _____    ______ ____
ROOT
ATOM      1  C   UNL     1      -0.185  10.033  18.926  0.00  0.00    +0.000 C 
ATOM      2  C   UNL     1       0.593  11.282  18.518  0.00  0.00    +0.000 C 
ATOM      3  C   UNL     1       0.017  12.565  19.153  0.00  0.00    +0.000 C 
ATOM      4  C   UNL     1      -0.229  12.503  20.708  0.00  0.00    +0.000 C 
ATOM      5  C   UNL     1       1.005  13.199  21.330  0.00  0.00    +0.000 C 
ATOM      6  C   UNL     1      -0.528  11.028  21.168  0.00  0.00    +0.000 C 
ATOM      7  C   UNL     1      -0.636  10.864  22.672  0.00  0.00    +0.000 C 
ATOM      8  C   UNL     1      -1.903  11.614  23.098  0.00  0.00    +0.000 C 
ATOM      9  C   UNL     1      -1.805  13.119  22.749  0.00  0.00    +0.000 C 
ATOM     10  C   UNL     1      -1.551  13.263  21.204  0.00  0.00    +0.000 C 
ATOM     11  C   UNL     1      -1.722  14.711  20.821  0.00  0.00    +0.000 C 
ATOM     12  C   UNL     1      -3.022  15.114  21.506  0.00  0.00    +0.000 C 
ATOM     13  N   UNL     1      -4.216  14.926  21.003  0.00  0.00    +0.000 NA
ATOM     14  C   UNL     1      -3.038  15.562  23.021  0.00  0.00    +0.000 C 
ATOM     15  C   UNL     1      -3.075  16.987  22.353  0.00  0.00    +0.000 C 
ATOM     16  C   UNL     1      -2.387  15.916  24.386  0.00  0.00    +0.000 C 
ATOM     17  C   UNL     1      -3.036  14.976  25.419  0.00  0.00    +0.000 C 
ATOM     18  C   UNL     1      -3.363  13.703  24.711  0.00  0.00    +0.000 C 
ATOM     19  C   UNL     1      -3.079  13.945  23.227  0.00  0.00    +0.000 C 
ATOM     20  C   UNL     1       0.128   9.859  20.426  0.00  0.00    +0.000 C 
ENDROOT
BRANCH  13  21
ATOM     21  O   UNL     1      -4.256  14.119  19.884  0.00  0.00    +0.000 OA
ATOM     22  H   UNL     1      -4.790  13.363  20.207  0.00  0.00    +0.000 HD
ENDBRANCH  13  21
BRANCH  16  23
ATOM     23  C   UNL     1      -0.883  16.106  24.656  0.00  0.00    +0.000 C 
ATOM     24  C   UNL     1      -0.105  16.682  23.478  0.00  0.00    +0.000 C 
BRANCH  23  25
ATOM     25  O   UNL     1      -0.797  17.151  25.678  0.00  0.00    +0.000 OA
BRANCH  25  26
ATOM     26  C   UNL     1      -0.152  16.883  26.838  0.00  0.00    +0.000 C 
ATOM     27  C   UNL     1      -0.264  18.058  27.767  0.00  0.00    +0.000 C 
ATOM     28  O   UNL     1       0.385  15.824  27.126  0.00  0.00    +0.000 OA
ENDBRANCH  25  26
ENDBRANCH  23  25
ENDBRANCH  16  23
BRANCH   1  29
ATOM     29  O   UNL     1      -1.635  10.171  18.821  0.00  0.00    +0.000 OA
BRANCH  29  31
ATOM     30  C   UNL     1      -3.265  11.441  17.708  0.00  0.00    +0.000 C 
ATOM     31  C   UNL     1      -2.263  10.319  17.631  0.00  0.00    +0.000 C 
ATOM     32  O   UNL     1      -2.017   9.689  16.614  0.00  0.00    +0.000 OA
ENDBRANCH  29  31
ENDBRANCH   1  29
TORSDOF 6
ENDMDL
MODEL 6
REMARK VINA RESULT:      -5.7      3.222      6.228
REMARK  Name = 
REMARK  11 active torsions:
REMARK  status: ('A' for Active; 'I' for Inactive)
REMARK    1  A    between atoms: C_1  and  C_2
REMARK    2  A    between atoms: C_2  and  O_4
REMARK    3  A    between atoms: O_4  and  C_5
REMARK    4  A    between atoms: C_8  and  C_9
REMARK    5  A    between atoms: N_17  and  O_18
REMARK    6  A    between atoms: C_19  and  C_20
REMARK    7  A    between atoms: C_21  and  C_22
REMARK    8  A    between atoms: C_22  and  C_23
REMARK    9  A    between atoms: C_22  and  O_24
REMARK   10  A    between atoms: O_24  and  C_25
REMARK   11  A    between atoms: C_25  and  C_26
REMARK                            x       y       z     vdW  Elec       q    Type
REMARK                         _______ _______ _______ _____ _____    ______ ____
ROOT
ATOM      1  C   UNL     1      -4.971  13.198  23.319  0.00  0.00    +0.000 C 
ATOM      2  C   UNL     1      -3.804  12.389  23.878  0.00  0.00    +0.000 C 
ATOM      3  C   UNL     1      -2.565  12.431  22.959  0.00  0.00    +0.000 C 
ATOM      4  C   UNL     1      -2.118  13.866  22.487  0.00  0.00    +0.000 C 
ATOM      5  C   UNL     1      -0.959  14.249  23.438  0.00  0.00    +0.000 C 
ATOM      6  C   UNL     1      -3.349  14.845  22.428  0.00  0.00    +0.000 C 
ATOM      7  C   UNL     1      -2.977  16.282  22.118  0.00  0.00    +0.000 C 
ATOM      8  C   UNL     1      -2.465  16.294  20.673  0.00  0.00    +0.000 C 
ATOM      9  C   UNL     1      -1.217  15.393  20.515  0.00  0.00    +0.000 C 
ATOM     10  C   UNL     1      -1.586  13.935  20.976  0.00  0.00    +0.000 C 
ATOM     11  C   UNL     1      -0.468  13.006  20.575  0.00  0.00    +0.000 C 
ATOM     12  C   UNL     1      -0.182  13.389  19.129  0.00  0.00    +0.000 C 
ATOM     13  N   UNL     1      -0.833  12.920  18.093  0.00  0.00    +0.000 NA
ATOM     14  C   UNL     1       0.766  14.605  18.781  0.00  0.00    +0.000 C 
ATOM     15  C   UNL     1       1.793  13.432  18.559  0.00  0.00    +0.000 C 
ATOM     16  C   UNL     1       1.742  15.764  19.120  0.00  0.00    +0.000 C 
ATOM     17  C   UNL     1       1.112  17.036  18.523  0.00  0.00    +0.000 C 
ATOM     18  C   UNL     1      -0.370  16.860  18.580  0.00  0.00    +0.000 C 
ATOM     19  C   UNL     1      -0.621  15.422  19.040  0.00  0.00    +0.000 C 
ATOM     20  C   UNL     1      -4.504  14.664  23.418  0.00  0.00    +0.000 C 
ENDROOT
BRANCH  13  21
ATOM     21  O   UNL     1      -1.973  12.205  18.397  0.00  0.00    +0.000 OA
ATOM     22  H   UNL     1      -1.602  11.448  18.899  0.00  0.00    +0.000 HD
ENDBRANCH  13  21
BRANCH  16  23
ATOM     23  C   UNL     1       2.387  16.039  20.492  0.00  0.00    +0.000 C 
ATOM     24  C   UNL     1       2.253  14.892  21.487  0.00  0.00    +0.000 C 
BRANCH  23  25
ATOM     25  O   UNL     1       3.827  16.119  20.239  0.00  0.00    +0.000 OA
BRANCH  25  26
ATOM     26  C   UNL     1       4.396  17.335  20.059  0.00  0.00    +0.000 C 
ATOM     27  C   UNL     1       3.959  18.268  21.153  0.00  0.00    +0.000 C 
ATOM     28  O   UNL     1       5.199  17.623  19.186  0.00  0.00    +0.000 OA
ENDBRANCH  25  26
ENDBRANCH  23  25
ENDBRANCH  16  23
BRANCH   1  29
ATOM     29  O   UNL     1      -5.247  12.949  21.906  0.00  0.00    +0.000 OA
BRANCH  29  31
ATOM     30  C   UNL     1      -7.418  12.387  22.599  0.00  0.00    +0.000 C 
ATOM     31  C   UNL     1      -6.408  12.396  21.482  0.00  0.00    +0.000 C 
ATOM     32  O   UNL     1      -6.640  12.017  20.344  0.00  0.00    +0.000 OA
ENDBRANCH  29  31
ENDBRANCH   1  29
TORSDOF 6
ENDMDL
MODEL 7
REMARK VINA RESULT:      -5.7      3.147      7.178
REMARK  Name = 
REMARK  11 active torsions:
REMARK  status: ('A' for Active; 'I' for Inactive)
REMARK    1  A    between atoms: C_1  and  C_2
REMARK    2  A    between atoms: C_2  and  O_4
REMARK    3  A    between atoms: O_4  and  C_5
REMARK    4  A    between atoms: C_8  and  C_9
REMARK    5  A    between atoms: N_17  and  O_18
REMARK    6  A    between atoms: C_19  and  C_20
REMARK    7  A    between atoms: C_21  and  C_22
REMARK    8  A    between atoms: C_22  and  C_23
REMARK    9  A    between atoms: C_22  and  O_24
REMARK   10  A    between atoms: O_24  and  C_25
REMARK   11  A    between atoms: C_25  and  C_26
REMARK                            x       y       z     vdW  Elec       q    Type
REMARK                         _______ _______ _______ _____ _____    ______ ____
ROOT
ATOM      1  C   UNL     1       0.783  11.423  20.882  0.00  0.00    +0.000 C 
ATOM      2  C   UNL     1      -0.343  11.355  19.853  0.00  0.00    +0.000 C 
ATOM      3  C   UNL     1      -1.688  11.855  20.420  0.00  0.00    +0.000 C 
ATOM      4  C   UNL     1      -1.641  13.248  21.153  0.00  0.00    +0.000 C 
ATOM      5  C   UNL     1      -2.137  14.265  20.098  0.00  0.00    +0.000 C 
ATOM      6  C   UNL     1      -0.220  13.502  21.780  0.00  0.00    +0.000 C 
ATOM      7  C   UNL     1      -0.053  14.884  22.382  0.00  0.00    +0.000 C 
ATOM      8  C   UNL     1      -0.976  14.939  23.605  0.00  0.00    +0.000 C 
ATOM      9  C   UNL     1      -2.454  14.729  23.196  0.00  0.00    +0.000 C 
ATOM     10  C   UNL     1      -2.581  13.352  22.448  0.00  0.00    +0.000 C 
ATOM     11  C   UNL     1      -4.044  13.024  22.289  0.00  0.00    +0.000 C 
ATOM     12  C   UNL     1      -4.625  13.291  23.672  0.00  0.00    +0.000 C 
ATOM     13  N   UNL     1      -4.624  12.431  24.658  0.00  0.00    +0.000 NA
ATOM     14  C   UNL     1      -5.049  14.750  24.107  0.00  0.00    +0.000 C 
ATOM     15  C   UNL     1      -6.473  14.191  23.736  0.00  0.00    +0.000 C 
ATOM     16  C   UNL     1      -5.283  16.269  23.882  0.00  0.00    +0.000 C 
ATOM     17  C   UNL     1      -4.435  16.990  24.947  0.00  0.00    +0.000 C 
ATOM     18  C   UNL     1      -3.235  16.139  25.202  0.00  0.00    +0.000 C 
ATOM     19  C   UNL     1      -3.453  14.835  24.431  0.00  0.00    +0.000 C 
ATOM     20  C   UNL     1       1.022  12.932  21.088  0.00  0.00    +0.000 C 
ENDROOT
BRANCH  13  21
ATOM     21  O   UNL     1      -3.848  11.308  24.451  0.00  0.00    +0.000 OA
ATOM     22  H   UNL     1      -4.102  10.750  25.216  0.00  0.00    +0.000 HD
ENDBRANCH  13  21
BRANCH  16  23
ATOM     23  C   UNL     1      -5.244  17.006  22.530  0.00  0.00    +0.000 C 
ATOM     24  C   UNL     1      -6.455  17.894  22.267  0.00  0.00    +0.000 C 
BRANCH  23  25
ATOM     25  O   UNL     1      -4.130  17.951  22.631  0.00  0.00    +0.000 OA
BRANCH  25  26
ATOM     26  C   UNL     1      -3.186  17.959  21.659  0.00  0.00    +0.000 C 
ATOM     27  C   UNL     1      -1.850  18.309  22.250  0.00  0.00    +0.000 C 
ATOM     28  O   UNL     1      -3.366  17.660  20.488  0.00  0.00    +0.000 OA
ENDBRANCH  25  26
ENDBRANCH  23  25
ENDBRANCH  16  23
BRANCH   1  29
ATOM     29  O   UNL     1       0.429  10.880  22.191  0.00  0.00    +0.000 OA
BRANCH  29  31
ATOM     30  C   UNL     1       1.311   8.746  21.771  0.00  0.00    +0.000 C 
ATOM     31  C   UNL     1       0.205   9.559  22.389  0.00  0.00    +0.000 C 
ATOM     32  O   UNL     1      -0.718   9.085  23.033  0.00  0.00    +0.000 OA
ENDBRANCH  29  31
ENDBRANCH   1  29
TORSDOF 6
ENDMDL
MODEL 8
REMARK VINA RESULT:      -5.6      2.990      6.024
REMARK  Name = 
REMARK  11 active torsions:
REMARK  status: ('A' for Active; 'I' for Inactive)
REMARK    1  A    between atoms: C_1  and  C_2
REMARK    2  A    between atoms: C_2  and  O_4
REMARK    3  A    between atoms: O_4  and  C_5
REMARK    4  A    between atoms: C_8  and  C_9
REMARK    5  A    between atoms: N_17  and  O_18
REMARK    6  A    between atoms: C_19  and  C_20
REMARK    7  A    between atoms: C_21  and  C_22
REMARK    8  A    between atoms: C_22  and  C_23
REMARK    9  A    between atoms: C_22  and  O_24
REMARK   10  A    between atoms: O_24  and  C_25
REMARK   11  A    between atoms: C_25  and  C_26
REMARK                            x       y       z     vdW  Elec       q    Type
REMARK                         _______ _______ _______ _____ _____    ______ ____
ROOT
ATOM      1  C   UNL     1      -4.987  13.110  23.335  0.00  0.00    +0.000 C 
ATOM      2  C   UNL     1      -3.777  12.388  23.921  0.00  0.00    +0.000 C 
ATOM      3  C   UNL     1      -2.533  12.494  23.014  0.00  0.00    +0.000 C 
ATOM      4  C   UNL     1      -2.173  13.946  22.520  0.00  0.00    +0.000 C 
ATOM      5  C   UNL     1      -1.052  14.419  23.476  0.00  0.00    +0.000 C 
ATOM      6  C   UNL     1      -3.464  14.841  22.430  0.00  0.00    +0.000 C 
ATOM      7  C   UNL     1      -3.181  16.294  22.098  0.00  0.00    +0.000 C 
ATOM      8  C   UNL     1      -2.656  16.314  20.658  0.00  0.00    +0.000 C 
ATOM      9  C   UNL     1      -1.350  15.492  20.530  0.00  0.00    +0.000 C 
ATOM     10  C   UNL     1      -1.630  14.022  21.013  0.00  0.00    +0.000 C 
ATOM     11  C   UNL     1      -0.450  13.160  20.641  0.00  0.00    +0.000 C 
ATOM     12  C   UNL     1      -0.173  13.535  19.191  0.00  0.00    +0.000 C 
ATOM     13  N   UNL     1      -0.780  13.006  18.158  0.00  0.00    +0.000 NA
ATOM     14  C   UNL     1       0.699  14.802  18.830  0.00  0.00    +0.000 C 
ATOM     15  C   UNL     1       1.801  13.695  18.641  0.00  0.00    +0.000 C 
ATOM     16  C   UNL     1       1.595  16.028  19.158  0.00  0.00    +0.000 C 
ATOM     17  C   UNL     1       0.891  17.246  18.530  0.00  0.00    +0.000 C 
ATOM     18  C   UNL     1      -0.577  16.976  18.576  0.00  0.00    +0.000 C 
ATOM     19  C   UNL     1      -0.740  15.533  19.060  0.00  0.00    +0.000 C 
ATOM     20  C   UNL     1      -4.616  14.604  23.412  0.00  0.00    +0.000 C 
ENDROOT
BRANCH  13  21
ATOM     21  O   UNL     1      -1.876  12.225  18.463  0.00  0.00    +0.000 OA
ATOM     22  H   UNL     1      -2.457  12.391  17.691  0.00  0.00    +0.000 HD
ENDBRANCH  13  21
BRANCH  16  23
ATOM     23  C   UNL     1       2.205  16.369  20.531  0.00  0.00    +0.000 C 
ATOM     24  C   UNL     1       1.266  17.130  21.461  0.00  0.00    +0.000 C 
BRANCH  23  25
ATOM     25  O   UNL     1       2.399  15.083  21.203  0.00  0.00    +0.000 OA
BRANCH  25  26
ATOM     26  C   UNL     1       3.560  14.855  21.861  0.00  0.00    +0.000 C 
ATOM     27  C   UNL     1       4.673  14.645  20.874  0.00  0.00    +0.000 C 
ATOM     28  O   UNL     1       3.709  14.882  23.073  0.00  0.00    +0.000 OA
ENDBRANCH  25  26
ENDBRANCH  23  25
ENDBRANCH  16  23
BRANCH   1  29
ATOM     29  O   UNL     1      -5.231  12.819  21.924  0.00  0.00    +0.000 OA
BRANCH  29  31
ATOM     30  C   UNL     1      -6.329  12.043  20.001  0.00  0.00    +0.000 C 
ATOM     31  C   UNL     1      -6.336  12.161  21.502  0.00  0.00    +0.000 C 
ATOM     32  O   UNL     1      -7.190  11.670  22.224  0.00  0.00    +0.000 OA
ENDBRANCH  29  31
ENDBRANCH   1  29
TORSDOF 6
ENDMDL
MODEL 9
REMARK VINA RESULT:      -5.6      3.402      6.277
REMARK  Name = 
REMARK  11 active torsions:
REMARK  status: ('A' for Active; 'I' for Inactive)
REMARK    1  A    between atoms: C_1  and  C_2
REMARK    2  A    between atoms: C_2  and  O_4
REMARK    3  A    between atoms: O_4  and  C_5
REMARK    4  A    between atoms: C_8  and  C_9
REMARK    5  A    between atoms: N_17  and  O_18
REMARK    6  A    between atoms: C_19  and  C_20
REMARK    7  A    between atoms: C_21  and  C_22
REMARK    8  A    between atoms: C_22  and  C_23
REMARK    9  A    between atoms: C_22  and  O_24
REMARK   10  A    between atoms: O_24  and  C_25
REMARK   11  A    between atoms: C_25  and  C_26
REMARK                            x       y       z     vdW  Elec       q    Type
REMARK                         _______ _______ _______ _____ _____    ______ ____
ROOT
ATOM      1  C   UNL     1       3.307  16.697  18.104  0.00  0.00    +0.000 C 
ATOM      2  C   UNL     1       3.407  15.180  18.238  0.00  0.00    +0.000 C 
ATOM      3  C   UNL     1       2.450  14.621  19.311  0.00  0.00    +0.000 C 
ATOM      4  C   UNL     1       0.955  15.108  19.210  0.00  0.00    +0.000 C 
ATOM      5  C   UNL     1       0.214  13.958  18.488  0.00  0.00    +0.000 C 
ATOM      6  C   UNL     1       0.876  16.536  18.552  0.00  0.00    +0.000 C 
ATOM      7  C   UNL     1      -0.539  17.014  18.291  0.00  0.00    +0.000 C 
ATOM      8  C   UNL     1      -1.180  17.240  19.665  0.00  0.00    +0.000 C 
ATOM      9  C   UNL     1      -1.222  15.926  20.483  0.00  0.00    +0.000 C 
ATOM     10  C   UNL     1       0.243  15.371  20.623  0.00  0.00    +0.000 C 
ATOM     11  C   UNL     1       0.240  14.253  21.634  0.00  0.00    +0.000 C 
ATOM     12  C   UNL     1      -0.563  14.821  22.797  0.00  0.00    +0.000 C 
ATOM     13  N   UNL     1      -0.065  15.570  23.749  0.00  0.00    +0.000 NA
ATOM     14  C   UNL     1      -2.143  14.764  22.800  0.00  0.00    +0.000 C 
ATOM     15  C   UNL     1      -1.860  13.532  23.738  0.00  0.00    +0.000 C 
ATOM     16  C   UNL     1      -3.533  14.365  22.234  0.00  0.00    +0.000 C 
ATOM     17  C   UNL     1      -4.312  15.682  22.060  0.00  0.00    +0.000 C 
ATOM     18  C   UNL     1      -3.313  16.744  21.738  0.00  0.00    +0.000 C 
ATOM     19  C   UNL     1      -1.932  16.105  21.897  0.00  0.00    +0.000 C 
ATOM     20  C   UNL     1       1.911  16.937  17.496  0.00  0.00    +0.000 C 
ENDROOT
BRANCH  13  21
ATOM     21  O   UNL     1       1.221  16.018  23.524  0.00  0.00    +0.000 OA
ATOM     22  H   UNL     1       1.588  16.024  24.433  0.00  0.00    +0.000 HD
ENDBRANCH  13  21
BRANCH  16  23
ATOM     23  C   UNL     1      -3.796  13.390  21.071  0.00  0.00    +0.000 C 
ATOM     24  C   UNL     1      -2.577  12.580  20.645  0.00  0.00    +0.000 C 
BRANCH  23  25
ATOM     25  O   UNL     1      -4.717  12.384  21.605  0.00  0.00    +0.000 OA
BRANCH  25  26
ATOM     26  C   UNL     1      -6.040  12.497  21.338  0.00  0.00    +0.000 C 
ATOM     27  C   UNL     1      -6.378  11.718  20.098  0.00  0.00    +0.000 C 
ATOM     28  O   UNL     1      -6.858  13.083  22.029  0.00  0.00    +0.000 OA
ENDBRANCH  25  26
ENDBRANCH  23  25
ENDBRANCH  16  23
BRANCH   1  29
ATOM     29  O   UNL     1       3.330  17.412  19.377  0.00  0.00    +0.000 OA
BRANCH  29  31
ATOM     30  C   UNL     1       4.270  17.014  21.490  0.00  0.00    +0.000 C 
ATOM     31  C   UNL     1       4.463  17.563  20.102  0.00  0.00    +0.000 C 
ATOM     32  O   UNL     1       5.518  18.014  19.684  0.00  0.00    +0.000 OA
ENDBRANCH  29  31
ENDBRANCH   1  29
TORSDOF 6
ENDMDL
