MODEL 1
REMARK VINA RESULT:      -7.6      0.000      0.000
REMARK  Name = 
REMARK  2 active torsions:
REMARK  status: ('A' for Active; 'I' for Inactive)
REMARK    1  A    between atoms: C_1  and  C_2
REMARK    2  A    between atoms: C_8  and  O_9
REMARK                            x       y       z     vdW  Elec       q    Type
REMARK                         _______ _______ _______ _____ _____    ______ ____
ROOT
ATOM      1  C   UNL     1       7.870   7.729  17.872  0.00  0.00    +0.000 C 
ATOM      2  C   UNL     1       6.640   6.897  17.710  0.00  0.00    +0.000 C 
ATOM      3  C   UNL     1       5.465   7.517  17.446  0.00  0.00    +0.000 C 
ATOM      4  C   UNL     1       4.366   6.551  17.359  0.00  0.00    +0.000 C 
ATOM      5  C   UNL     1       3.154   6.333  18.244  0.00  0.00    +0.000 C 
ATOM      6  C   UNL     1       3.103   4.828  18.526  0.00  0.00    +0.000 A 
ATOM      7  N   UNL     1       1.975   4.477  19.216  0.00  0.00    +0.000 NA
ATOM      8  C   UNL     1       1.588   3.208  19.073  0.00  0.00    +0.000 A 
ATOM      9  C   UNL     1       2.217   2.273  18.285  0.00  0.00    +0.000 A 
ATOM     10  C   UNL     1       3.440   2.622  17.696  0.00  0.00    +0.000 A 
ATOM     11  C   UNL     1       3.999   3.906  17.889  0.00  0.00    +0.000 A 
ATOM     12  C   UNL     1       5.313   4.398  17.082  0.00  0.00    +0.000 C 
ATOM     13  C   UNL     1       6.646   5.263  17.793  0.00  0.00    +0.000 C 
ATOM     14  N   UNL     1       5.958   3.298  16.343  0.00  0.00    +0.000 NA
ATOM     15  C   UNL     1       5.666   3.256  14.920  0.00  0.00    +0.000 C 
ATOM     16  C   UNL     1       5.970   4.582  14.223  0.00  0.00    +0.000 C 
ATOM     17  C   UNL     1       5.563   5.827  15.028  0.00  0.00    +0.000 C 
ATOM     18  C   UNL     1       4.642   5.483  16.225  0.00  0.00    +0.000 C 
ATOM     19  H   UNL     1       5.828   2.397  16.796  0.00  0.00    +0.000 HD
ENDROOT
BRANCH   8  20
ATOM     20  O   UNL     1       0.438   2.942  19.752  0.00  0.00    +0.000 OA
ATOM     21  H   UNL     1       0.362   1.974  19.586  0.00  0.00    +0.000 HD
ENDBRANCH   8  20
TORSDOF 1
ENDMDL
MODEL 2
REMARK VINA RESULT:      -7.3      2.410      3.809
REMARK  Name = 
REMARK  2 active torsions:
REMARK  status: ('A' for Active; 'I' for Inactive)
REMARK    1  A    between atoms: C_1  and  C_2
REMARK    2  A    between atoms: C_8  and  O_9
REMARK                            x       y       z     vdW  Elec       q    Type
REMARK                         _______ _______ _______ _____ _____    ______ ____
ROOT
ATOM      1  C   UNL     1       7.413   4.555  17.111  0.00  0.00    +0.000 C 
ATOM      2  C   UNL     1       6.039   4.947  17.547  0.00  0.00    +0.000 C 
ATOM      3  C   UNL     1       5.244   5.612  16.674  0.00  0.00    +0.000 C 
ATOM      4  C   UNL     1       3.953   5.946  17.285  0.00  0.00    +0.000 C 
ATOM      5  C   UNL     1       3.339   7.284  17.653  0.00  0.00    +0.000 C 
ATOM      6  C   UNL     1       2.827   7.131  19.089  0.00  0.00    +0.000 A 
ATOM      7  N   UNL     1       2.132   8.234  19.502  0.00  0.00    +0.000 NA
ATOM      8  C   UNL     1       1.250   8.023  20.481  0.00  0.00    +0.000 A 
ATOM      9  C   UNL     1       0.992   6.804  21.062  0.00  0.00    +0.000 A 
ATOM     10  C   UNL     1       1.808   5.719  20.714  0.00  0.00    +0.000 A 
ATOM     11  C   UNL     1       2.854   5.870  19.775  0.00  0.00    +0.000 A 
ATOM     12  C   UNL     1       3.696   4.605  19.220  0.00  0.00    +0.000 C 
ATOM     13  C   UNL     1       5.425   4.576  19.019  0.00  0.00    +0.000 C 
ATOM     14  N   UNL     1       3.406   3.370  19.970  0.00  0.00    +0.000 NA
ATOM     15  C   UNL     1       2.484   2.454  19.320  0.00  0.00    +0.000 C 
ATOM     16  C   UNL     1       2.924   2.094  17.901  0.00  0.00    +0.000 C 
ATOM     17  C   UNL     1       3.490   3.275  17.095  0.00  0.00    +0.000 C 
ATOM     18  C   UNL     1       3.200   4.641  17.765  0.00  0.00    +0.000 C 
ATOM     19  H   UNL     1       3.158   3.554  20.939  0.00  0.00    +0.000 HD
ENDROOT
BRANCH   8  20
ATOM     20  O   UNL     1       0.567   9.154  20.810  0.00  0.00    +0.000 OA
ATOM     21  H   UNL     1       0.283   8.920  21.724  0.00  0.00    +0.000 HD
ENDBRANCH   8  20
TORSDOF 1
ENDMDL
MODEL 3
REMARK VINA RESULT:      -7.3      3.091      5.048
REMARK  Name = 
REMARK  2 active torsions:
REMARK  status: ('A' for Active; 'I' for Inactive)
REMARK    1  A    between atoms: C_1  and  C_2
REMARK    2  A    between atoms: C_8  and  O_9
REMARK                            x       y       z     vdW  Elec       q    Type
REMARK                         _______ _______ _______ _____ _____    ______ ____
ROOT
ATOM      1  C   UNL     1       6.164   4.715  17.756  0.00  0.00    +0.000 C 
ATOM      2  C   UNL     1       4.877   5.381  18.120  0.00  0.00    +0.000 C 
ATOM      3  C   UNL     1       4.149   5.969  17.141  0.00  0.00    +0.000 C 
ATOM      4  C   UNL     1       2.944   6.602  17.687  0.00  0.00    +0.000 C 
ATOM      5  C   UNL     1       2.539   8.061  17.785  0.00  0.00    +0.000 C 
ATOM      6  C   UNL     1       2.069   8.270  19.228  0.00  0.00    +0.000 A 
ATOM      7  N   UNL     1       1.553   9.523  19.419  0.00  0.00    +0.000 NA
ATOM      8  C   UNL     1       0.691   9.639  20.430  0.00  0.00    +0.000 A 
ATOM      9  C   UNL     1       0.287   8.610  21.247  0.00  0.00    +0.000 A 
ATOM     10  C   UNL     1       0.929   7.370  21.115  0.00  0.00    +0.000 A 
ATOM     11  C   UNL     1       1.946   7.179  20.153  0.00  0.00    +0.000 A 
ATOM     12  C   UNL     1       2.579   5.720  19.854  0.00  0.00    +0.000 C 
ATOM     13  C   UNL     1       4.278   5.401  19.643  0.00  0.00    +0.000 C 
ATOM     14  N   UNL     1       2.149   4.713  20.840  0.00  0.00    +0.000 NA
ATOM     15  C   UNL     1       1.082   3.832  20.398  0.00  0.00    +0.000 C 
ATOM     16  C   UNL     1       1.410   3.138  19.075  0.00  0.00    +0.000 C 
ATOM     17  C   UNL     1       2.103   4.042  18.042  0.00  0.00    +0.000 C 
ATOM     18  C   UNL     1       2.035   5.541  18.428  0.00  0.00    +0.000 C 
ATOM     19  H   UNL     1       1.968   5.119  21.755  0.00  0.00    +0.000 HD
ENDROOT
BRANCH   8  20
ATOM     20  O   UNL     1       0.187  10.900  20.533  0.00  0.00    +0.000 OA
ATOM     21  H   UNL     1      -0.645  10.793  20.017  0.00  0.00    +0.000 HD
ENDBRANCH   8  20
TORSDOF 1
ENDMDL
MODEL 4
REMARK VINA RESULT:      -7.2      2.712      4.919
REMARK  Name = 
REMARK  2 active torsions:
REMARK  status: ('A' for Active; 'I' for Inactive)
REMARK    1  A    between atoms: C_1  and  C_2
REMARK    2  A    between atoms: C_8  and  O_9
REMARK                            x       y       z     vdW  Elec       q    Type
REMARK                         _______ _______ _______ _____ _____    ______ ____
ROOT
ATOM      1  C   UNL     1       1.549   6.717  20.398  0.00  0.00    +0.000 C 
ATOM      2  C   UNL     1       2.598   6.064  19.558  0.00  0.00    +0.000 C 
ATOM      3  C   UNL     1       3.859   5.974  20.046  0.00  0.00    +0.000 C 
ATOM      4  C   UNL     1       4.757   5.342  19.074  0.00  0.00    +0.000 C 
ATOM      5  C   UNL     1       5.935   5.896  18.295  0.00  0.00    +0.000 C 
ATOM      6  C   UNL     1       5.715   5.469  16.840  0.00  0.00    +0.000 A 
ATOM      7  N   UNL     1       6.780   5.799  16.047  0.00  0.00    +0.000 NA
ATOM      8  C   UNL     1       6.921   5.063  14.943  0.00  0.00    +0.000 A 
ATOM      9  C   UNL     1       6.105   4.018  14.580  0.00  0.00    +0.000 A 
ATOM     10  C   UNL     1       4.949   3.787  15.339  0.00  0.00    +0.000 A 
ATOM     11  C   UNL     1       4.644   4.594  16.459  0.00  0.00    +0.000 A 
ATOM     12  C   UNL     1       3.420   4.244  17.457  0.00  0.00    +0.000 C 
ATOM     13  C   UNL     1       2.292   5.411  18.089  0.00  0.00    +0.000 C 
ATOM     14  N   UNL     1       2.559   3.170  16.930  0.00  0.00    +0.000 NA
ATOM     15  C   UNL     1       2.793   1.854  17.501  0.00  0.00    +0.000 C 
ATOM     16  C   UNL     1       2.718   1.860  19.028  0.00  0.00    +0.000 C 
ATOM     17  C   UNL     1       3.373   3.085  19.689  0.00  0.00    +0.000 C 
ATOM     18  C   UNL     1       4.252   3.891  18.700  0.00  0.00    +0.000 C 
ATOM     19  H   UNL     1       2.535   3.156  15.914  0.00  0.00    +0.000 HD
ENDROOT
BRANCH   8  20
ATOM     20  O   UNL     1       8.022   5.419  14.225  0.00  0.00    +0.000 OA
ATOM     21  H   UNL     1       7.838   4.943  13.383  0.00  0.00    +0.000 HD
ENDBRANCH   8  20
TORSDOF 1
ENDMDL
MODEL 5
REMARK VINA RESULT:      -7.1      2.490      4.451
REMARK  Name = 
REMARK  2 active torsions:
REMARK  status: ('A' for Active; 'I' for Inactive)
REMARK    1  A    between atoms: C_1  and  C_2
REMARK    2  A    between atoms: C_8  and  O_9
REMARK                            x       y       z     vdW  Elec       q    Type
REMARK                         _______ _______ _______ _____ _____    ______ ____
ROOT
ATOM      1  C   UNL     1       3.688   1.407  18.215  0.00  0.00    +0.000 C 
ATOM      2  C   UNL     1       3.659   2.879  18.470  0.00  0.00    +0.000 C 
ATOM      3  C   UNL     1       3.807   3.322  19.741  0.00  0.00    +0.000 C 
ATOM      4  C   UNL     1       3.714   4.785  19.805  0.00  0.00    +0.000 C 
ATOM      5  C   UNL     1       2.678   5.693  20.439  0.00  0.00    +0.000 C 
ATOM      6  C   UNL     1       2.321   6.733  19.373  0.00  0.00    +0.000 A 
ATOM      7  N   UNL     1       1.483   7.697  19.862  0.00  0.00    +0.000 NA
ATOM      8  C   UNL     1       1.517   8.866  19.219  0.00  0.00    +0.000 A 
ATOM      9  C   UNL     1       2.330   9.157  18.150  0.00  0.00    +0.000 A 
ATOM     10  C   UNL     1       3.080   8.114  17.588  0.00  0.00    +0.000 A 
ATOM     11  C   UNL     1       3.018   6.806  18.120  0.00  0.00    +0.000 A 
ATOM     12  C   UNL     1       4.001   5.626  17.610  0.00  0.00    +0.000 C 
ATOM     13  C   UNL     1       3.500   3.992  17.280  0.00  0.00    +0.000 C 
ATOM     14  N   UNL     1       4.761   6.013  16.408  0.00  0.00    +0.000 NA
ATOM     15  C   UNL     1       6.134   6.423  16.650  0.00  0.00    +0.000 C 
ATOM     16  C   UNL     1       6.925   5.376  17.434  0.00  0.00    +0.000 C 
ATOM     17  C   UNL     1       6.136   4.710  18.574  0.00  0.00    +0.000 C 
ATOM     18  C   UNL     1       4.821   5.461  18.900  0.00  0.00    +0.000 C 
ATOM     19  H   UNL     1       4.253   6.673  15.824  0.00  0.00    +0.000 HD
ENDROOT
BRANCH   8  20
ATOM     20  O   UNL     1       0.691   9.788  19.786  0.00  0.00    +0.000 OA
ATOM     21  H   UNL     1       0.741   9.504  20.728  0.00  0.00    +0.000 HD
ENDBRANCH   8  20
TORSDOF 1
ENDMDL
MODEL 6
REMARK VINA RESULT:      -6.9      3.095      5.409
REMARK  Name = 
REMARK  2 active torsions:
REMARK  status: ('A' for Active; 'I' for Inactive)
REMARK    1  A    between atoms: C_1  and  C_2
REMARK    2  A    between atoms: C_8  and  O_9
REMARK                            x       y       z     vdW  Elec       q    Type
REMARK                         _______ _______ _______ _____ _____    ______ ____
ROOT
ATOM      1  C   UNL     1       1.220   2.278  19.700  0.00  0.00    +0.000 C 
ATOM      2  C   UNL     1       1.620   3.716  19.646  0.00  0.00    +0.000 C 
ATOM      3  C   UNL     1       1.840   4.374  20.809  0.00  0.00    +0.000 C 
ATOM      4  C   UNL     1       2.184   5.779  20.564  0.00  0.00    +0.000 C 
ATOM      5  C   UNL     1       1.440   7.060  20.888  0.00  0.00    +0.000 C 
ATOM      6  C   UNL     1       1.454   7.891  19.601  0.00  0.00    +0.000 A 
ATOM      7  N   UNL     1       0.921   9.136  19.793  0.00  0.00    +0.000 NA
ATOM      8  C   UNL     1       1.329  10.072  18.933  0.00  0.00    +0.000 A 
ATOM      9  C   UNL     1       2.235   9.873  17.919  0.00  0.00    +0.000 A 
ATOM     10  C   UNL     1       2.663   8.564  17.663  0.00  0.00    +0.000 A 
ATOM     11  C   UNL     1       2.192   7.481  18.440  0.00  0.00    +0.000 A 
ATOM     12  C   UNL     1       2.799   5.989  18.287  0.00  0.00    +0.000 C 
ATOM     13  C   UNL     1       1.848   4.531  18.245  0.00  0.00    +0.000 C 
ATOM     14  N   UNL     1       3.689   5.866  17.119  0.00  0.00    +0.000 NA
ATOM     15  C   UNL     1       5.110   5.916  17.416  0.00  0.00    +0.000 C 
ATOM     16  C   UNL     1       5.520   4.893  18.475  0.00  0.00    +0.000 C 
ATOM     17  C   UNL     1       4.523   4.750  19.637  0.00  0.00    +0.000 C 
ATOM     18  C   UNL     1       3.479   5.894  19.663  0.00  0.00    +0.000 C 
ATOM     19  H   UNL     1       3.425   6.492  16.363  0.00  0.00    +0.000 HD
ENDROOT
BRANCH   8  20
ATOM     20  O   UNL     1       0.791  11.292  19.210  0.00  0.00    +0.000 OA
ATOM     21  H   UNL     1       0.004  11.270  18.618  0.00  0.00    +0.000 HD
ENDBRANCH   8  20
TORSDOF 1
ENDMDL
MODEL 7
REMARK VINA RESULT:      -6.7      1.370      3.437
REMARK  Name = 
REMARK  2 active torsions:
REMARK  status: ('A' for Active; 'I' for Inactive)
REMARK    1  A    between atoms: C_1  and  C_2
REMARK    2  A    between atoms: C_8  and  O_9
REMARK                            x       y       z     vdW  Elec       q    Type
REMARK                         _______ _______ _______ _____ _____    ______ ____
ROOT
ATOM      1  C   UNL     1       6.314   4.068  13.277  0.00  0.00    +0.000 C 
ATOM      2  C   UNL     1       5.764   4.226  14.657  0.00  0.00    +0.000 C 
ATOM      3  C   UNL     1       5.906   3.204  15.535  0.00  0.00    +0.000 C 
ATOM      4  C   UNL     1       5.275   3.521  16.821  0.00  0.00    +0.000 C 
ATOM      5  C   UNL     1       4.070   2.920  17.517  0.00  0.00    +0.000 C 
ATOM      6  C   UNL     1       3.203   4.104  17.956  0.00  0.00    +0.000 A 
ATOM      7  N   UNL     1       2.137   3.702  18.714  0.00  0.00    +0.000 NA
ATOM      8  C   UNL     1       1.638   4.627  19.536  0.00  0.00    +0.000 A 
ATOM      9  C   UNL     1       2.125   5.904  19.678  0.00  0.00    +0.000 A 
ATOM     10  C   UNL     1       3.129   6.330  18.798  0.00  0.00    +0.000 A 
ATOM     11  C   UNL     1       3.641   5.463  17.806  0.00  0.00    +0.000 A 
ATOM     12  C   UNL     1       4.918   5.861  16.896  0.00  0.00    +0.000 C 
ATOM     13  C   UNL     1       5.033   5.594  15.179  0.00  0.00    +0.000 C 
ATOM     14  N   UNL     1       5.302   7.275  17.061  0.00  0.00    +0.000 NA
ATOM     15  C   UNL     1       6.436   7.509  17.938  0.00  0.00    +0.000 C 
ATOM     16  C   UNL     1       7.664   6.695  17.532  0.00  0.00    +0.000 C 
ATOM     17  C   UNL     1       7.351   5.255  17.090  0.00  0.00    +0.000 C 
ATOM     18  C   UNL     1       5.908   4.826  17.453  0.00  0.00    +0.000 C 
ATOM     19  H   UNL     1       4.506   7.869  17.282  0.00  0.00    +0.000 HD
ENDROOT
BRANCH   8  20
ATOM     20  O   UNL     1       0.610   4.144  20.287  0.00  0.00    +0.000 OA
ATOM     21  H   UNL     1       0.833   3.185  20.284  0.00  0.00    +0.000 HD
ENDBRANCH   8  20
TORSDOF 1
ENDMDL
MODEL 8
REMARK VINA RESULT:      -6.6      2.614      4.379
REMARK  Name = 
REMARK  2 active torsions:
REMARK  status: ('A' for Active; 'I' for Inactive)
REMARK    1  A    between atoms: C_1  and  C_2
REMARK    2  A    between atoms: C_8  and  O_9
REMARK                            x       y       z     vdW  Elec       q    Type
REMARK                         _______ _______ _______ _____ _____    ______ ____
ROOT
ATOM      1  C   UNL     1       7.830   4.398  17.819  0.00  0.00    +0.000 C 
ATOM      2  C   UNL     1       6.461   4.996  17.836  0.00  0.00    +0.000 C 
ATOM      3  C   UNL     1       5.818   5.184  16.658  0.00  0.00    +0.000 C 
ATOM      4  C   UNL     1       4.510   5.814  16.865  0.00  0.00    +0.000 C 
ATOM      5  C   UNL     1       3.986   7.182  16.473  0.00  0.00    +0.000 C 
ATOM      6  C   UNL     1       3.324   7.755  17.730  0.00  0.00    +0.000 A 
ATOM      7  N   UNL     1       2.695   8.943  17.478  0.00  0.00    +0.000 NA
ATOM      8  C   UNL     1       1.706   9.257  18.317  0.00  0.00    +0.000 A 
ATOM      9  C   UNL     1       1.283   8.477  19.367  0.00  0.00    +0.000 A 
ATOM     10  C   UNL     1       2.028   7.333  19.683  0.00  0.00    +0.000 A 
ATOM     11  C   UNL     1       3.170   6.980  18.928  0.00  0.00    +0.000 A 
ATOM     12  C   UNL     1       3.944   5.577  19.153  0.00  0.00    +0.000 C 
ATOM     13  C   UNL     1       5.675   5.398  19.214  0.00  0.00    +0.000 C 
ATOM     14  N   UNL     1       3.472   4.864  20.353  0.00  0.00    +0.000 NA
ATOM     15  C   UNL     1       2.539   3.780  20.101  0.00  0.00    +0.000 C 
ATOM     16  C   UNL     1       3.081   2.767  19.093  0.00  0.00    +0.000 C 
ATOM     17  C   UNL     1       3.828   3.396  17.905  0.00  0.00    +0.000 C 
ATOM     18  C   UNL     1       3.598   4.925  17.804  0.00  0.00    +0.000 C 
ATOM     19  H   UNL     1       3.147   5.500  21.078  0.00  0.00    +0.000 HD
ENDROOT
BRANCH   8  20
ATOM     20  O   UNL     1       1.099  10.429  17.980  0.00  0.00    +0.000 OA
ATOM     21  H   UNL     1       1.878  10.934  17.649  0.00  0.00    +0.000 HD
ENDBRANCH   8  20
TORSDOF 1
ENDMDL
MODEL 9
REMARK VINA RESULT:      -6.5      8.060     11.160
REMARK  Name = 
REMARK  2 active torsions:
REMARK  status: ('A' for Active; 'I' for Inactive)
REMARK    1  A    between atoms: C_1  and  C_2
REMARK    2  A    between atoms: C_8  and  O_9
REMARK                            x       y       z     vdW  Elec       q    Type
REMARK                         _______ _______ _______ _____ _____    ______ ____
ROOT
ATOM      1  C   UNL     1       8.358   9.408  17.851  0.00  0.00    +0.000 C 
ATOM      2  C   UNL     1       8.890  10.621  18.541  0.00  0.00    +0.000 C 
ATOM      3  C   UNL     1       9.676  10.457  19.633  0.00  0.00    +0.000 C 
ATOM      4  C   UNL     1      10.072  11.751  20.198  0.00  0.00    +0.000 C 
ATOM      5  C   UNL     1       9.723  12.414  21.517  0.00  0.00    +0.000 C 
ATOM      6  C   UNL     1       9.299  13.845  21.169  0.00  0.00    +0.000 A 
ATOM      7  N   UNL     1       9.077  14.597  22.289  0.00  0.00    +0.000 NA
ATOM      8  C   UNL     1       9.203  15.916  22.128  0.00  0.00    +0.000 A 
ATOM      9  C   UNL     1       9.552  16.539  20.953  0.00  0.00    +0.000 A 
ATOM     10  C   UNL     1       9.644  15.758  19.793  0.00  0.00    +0.000 A 
ATOM     11  C   UNL     1       9.406  14.365  19.835  0.00  0.00    +0.000 A 
ATOM     12  C   UNL     1       9.677  13.411  18.557  0.00  0.00    +0.000 C 
ATOM     13  C   UNL     1       8.608  12.146  18.019  0.00  0.00    +0.000 C 
ATOM     14  N   UNL     1       9.956  14.184  17.333  0.00  0.00    +0.000 NA
ATOM     15  C   UNL     1      11.359  14.287  16.973  0.00  0.00    +0.000 C 
ATOM     16  C   UNL     1      12.037  12.921  16.874  0.00  0.00    +0.000 C 
ATOM     17  C   UNL     1      11.623  11.928  17.973  0.00  0.00    +0.000 C 
ATOM     18  C   UNL     1      10.859  12.615  19.132  0.00  0.00    +0.000 C 
ATOM     19  H   UNL     1       9.483  15.085  17.327  0.00  0.00    +0.000 HD
ENDROOT
BRANCH   8  20
ATOM     20  O   UNL     1       9.010  16.596  23.292  0.00  0.00    +0.000 OA
ATOM     21  H   UNL     1       8.473  17.352  22.960  0.00  0.00    +0.000 HD
ENDBRANCH   8  20
TORSDOF 1
ENDMDL
