MODEL 1
REMARK VINA RESULT:      -7.0      0.000      0.000
REMARK  Name = 
REMARK  9 active torsions:
REMARK  status: ('A' for Active; 'I' for Inactive)
REMARK    1  A    between atoms: C_1  and  C_2
REMARK    2  A    between atoms: C_2  and  O_3
REMARK    3  A    between atoms: O_3  and  C_4
REMARK    4  A    between atoms: C_4  and  C_6
REMARK    5  A    between atoms: C_9  and  N_10
REMARK    6  A    between atoms: C_11  and  C_13
REMARK    7  A    between atoms: C_16  and  N_17
REMARK    8  A    between atoms: N_17  and  S_18
REMARK    9  A    between atoms: S_18  and  C_19
REMARK                            x       y       z     vdW  Elec       q    Type
REMARK                         _______ _______ _______ _____ _____    ______ ____
ROOT
ATOM      1  N   UNL     1       2.612   7.297  18.662  0.00  0.00    +0.000 N 
ATOM      2  C   UNL     1       2.065   8.500  18.241  0.00  0.00    +0.000 C 
ATOM      3  O   UNL     1       2.256   9.018  17.147  0.00  0.00    +0.000 OA
ATOM      4  H   UNL     1       2.286   6.890  19.528  0.00  0.00    +0.000 HD
ENDROOT
BRANCH   1   8
ATOM      5  C   UNL     1       5.500   5.027  16.549  0.00  0.00    +0.000 A 
ATOM      6  C   UNL     1       5.757   6.363  16.853  0.00  0.00    +0.000 A 
ATOM      7  C   UNL     1       4.812   7.122  17.549  0.00  0.00    +0.000 A 
ATOM      8  C   UNL     1       3.600   6.565  17.960  0.00  0.00    +0.000 A 
ATOM      9  C   UNL     1       3.354   5.213  17.681  0.00  0.00    +0.000 A 
ATOM     10  C   UNL     1       4.294   4.451  16.968  0.00  0.00    +0.000 A 
BRANCH   5  11
ATOM     11  C   UNL     1       6.508   4.305  15.729  0.00  0.00    +0.000 C 
ATOM     12  O   UNL     1       7.713   4.403  15.905  0.00  0.00    +0.000 OA
BRANCH  11  13
ATOM     13  O   UNL     1       5.899   3.631  14.723  0.00  0.00    +0.000 OA
BRANCH  13  15
ATOM     14  C   UNL     1       5.404   3.378  12.399  0.00  0.00    +0.000 C 
ATOM     15  C   UNL     1       6.390   3.937  13.410  0.00  0.00    +0.000 C 
ENDBRANCH  13  15
ENDBRANCH  11  13
ENDBRANCH   5  11
ENDBRANCH   1   8
BRANCH   2  16
ATOM     16  C   UNL     1       1.184   9.240  19.192  0.00  0.00    +0.000 A 
ATOM     17  C   UNL     1       0.418  10.281  18.641  0.00  0.00    +0.000 A 
ATOM     18  C   UNL     1      -0.442  11.035  19.438  0.00  0.00    +0.000 A 
ATOM     19  C   UNL     1      -0.537  10.761  20.796  0.00  0.00    +0.000 A 
ATOM     20  C   UNL     1       0.197   9.712  21.356  0.00  0.00    +0.000 A 
ATOM     21  C   UNL     1       1.062   8.949  20.554  0.00  0.00    +0.000 A 
BRANCH  19  22
ATOM     22  N   UNL     1      -1.410  11.561  21.583  0.00  0.00    +0.000 N 
ATOM     23  H   UNL     1      -2.407  11.483  21.377  0.00  0.00    +0.000 HD
BRANCH  22  24
ATOM     24  S   UNL     1      -0.990  13.170  21.866  0.00  0.00    +0.000 S 
ATOM     25  C   UNL     1      -1.695  13.447  23.479  0.00  0.00    +0.000 C 
ATOM     26  O   UNL     1       0.447  13.302  21.940  0.00  0.00    +0.000 OA
ATOM     27  O   UNL     1      -1.766  13.937  20.913  0.00  0.00    +0.000 OA
ENDBRANCH  22  24
ENDBRANCH  19  22
ENDBRANCH   2  16
TORSDOF 7
ENDMDL
MODEL 2
REMARK VINA RESULT:      -6.9      6.702      8.394
REMARK  Name = 
REMARK  9 active torsions:
REMARK  status: ('A' for Active; 'I' for Inactive)
REMARK    1  A    between atoms: C_1  and  C_2
REMARK    2  A    between atoms: C_2  and  O_3
REMARK    3  A    between atoms: O_3  and  C_4
REMARK    4  A    between atoms: C_4  and  C_6
REMARK    5  A    between atoms: C_9  and  N_10
REMARK    6  A    between atoms: C_11  and  C_13
REMARK    7  A    between atoms: C_16  and  N_17
REMARK    8  A    between atoms: N_17  and  S_18
REMARK    9  A    between atoms: S_18  and  C_19
REMARK                            x       y       z     vdW  Elec       q    Type
REMARK                         _______ _______ _______ _____ _____    ______ ____
ROOT
ATOM      1  N   UNL     1       7.891   8.918  17.387  0.00  0.00    +0.000 N 
ATOM      2  C   UNL     1       8.641   9.612  18.325  0.00  0.00    +0.000 C 
ATOM      3  O   UNL     1       8.932   9.200  19.442  0.00  0.00    +0.000 OA
ATOM      4  H   UNL     1       7.821   9.288  16.449  0.00  0.00    +0.000 HD
ENDROOT
BRANCH   1   8
ATOM      5  C   UNL     1       5.935   5.245  18.189  0.00  0.00    +0.000 A 
ATOM      6  C   UNL     1       5.295   6.217  17.421  0.00  0.00    +0.000 A 
ATOM      7  C   UNL     1       5.930   7.432  17.150  0.00  0.00    +0.000 A 
ATOM      8  C   UNL     1       7.212   7.700  17.633  0.00  0.00    +0.000 A 
ATOM      9  C   UNL     1       7.867   6.711  18.380  0.00  0.00    +0.000 A 
ATOM     10  C   UNL     1       7.228   5.495  18.667  0.00  0.00    +0.000 A 
BRANCH   5  11
ATOM     11  C   UNL     1       5.168   4.014  18.515  0.00  0.00    +0.000 C 
ATOM     12  O   UNL     1       5.344   3.361  19.533  0.00  0.00    +0.000 OA
BRANCH  11  13
ATOM     13  O   UNL     1       4.349   3.686  17.487  0.00  0.00    +0.000 OA
BRANCH  13  15
ATOM     14  C   UNL     1       2.002   4.100  17.670  0.00  0.00    +0.000 C 
ATOM     15  C   UNL     1       3.108   3.079  17.876  0.00  0.00    +0.000 C 
ENDBRANCH  13  15
ENDBRANCH  11  13
ENDBRANCH   5  11
ENDBRANCH   1   8
BRANCH   2  16
ATOM     16  C   UNL     1       9.125  10.977  17.963  0.00  0.00    +0.000 A 
ATOM     17  C   UNL     1      10.517  11.132  17.861  0.00  0.00    +0.000 A 
ATOM     18  C   UNL     1      11.078  12.363  17.526  0.00  0.00    +0.000 A 
ATOM     19  C   UNL     1      10.251  13.455  17.297  0.00  0.00    +0.000 A 
ATOM     20  C   UNL     1       8.862  13.313  17.368  0.00  0.00    +0.000 A 
ATOM     21  C   UNL     1       8.295  12.073  17.704  0.00  0.00    +0.000 A 
BRANCH  19  22
ATOM     22  N   UNL     1      10.856  14.700  16.974  0.00  0.00    +0.000 N 
ATOM     23  H   UNL     1      11.819  14.664  16.640  0.00  0.00    +0.000 HD
BRANCH  22  24
ATOM     24  S   UNL     1      10.649  15.994  18.036  0.00  0.00    +0.000 S 
ATOM     25  C   UNL     1      12.048  17.019  17.631  0.00  0.00    +0.000 C 
ATOM     26  O   UNL     1       9.428  16.702  17.724  0.00  0.00    +0.000 OA
ATOM     27  O   UNL     1      10.880  15.442  19.355  0.00  0.00    +0.000 OA
ENDBRANCH  22  24
ENDBRANCH  19  22
ENDBRANCH   2  16
TORSDOF 7
ENDMDL
MODEL 3
REMARK VINA RESULT:      -6.9      6.715      8.328
REMARK  Name = 
REMARK  9 active torsions:
REMARK  status: ('A' for Active; 'I' for Inactive)
REMARK    1  A    between atoms: C_1  and  C_2
REMARK    2  A    between atoms: C_2  and  O_3
REMARK    3  A    between atoms: O_3  and  C_4
REMARK    4  A    between atoms: C_4  and  C_6
REMARK    5  A    between atoms: C_9  and  N_10
REMARK    6  A    between atoms: C_11  and  C_13
REMARK    7  A    between atoms: C_16  and  N_17
REMARK    8  A    between atoms: N_17  and  S_18
REMARK    9  A    between atoms: S_18  and  C_19
REMARK                            x       y       z     vdW  Elec       q    Type
REMARK                         _______ _______ _______ _____ _____    ______ ____
ROOT
ATOM      1  N   UNL     1       7.965   8.855  17.411  0.00  0.00    +0.000 N 
ATOM      2  C   UNL     1       8.736   9.514  18.357  0.00  0.00    +0.000 C 
ATOM      3  O   UNL     1       9.023   9.073  19.465  0.00  0.00    +0.000 OA
ATOM      4  H   UNL     1       7.899   9.245  16.480  0.00  0.00    +0.000 HD
ENDROOT
BRANCH   1   8
ATOM      5  C   UNL     1       5.924   5.217  18.159  0.00  0.00    +0.000 A 
ATOM      6  C   UNL     1       5.337   6.185  17.344  0.00  0.00    +0.000 A 
ATOM      7  C   UNL     1       6.001   7.389  17.090  0.00  0.00    +0.000 A 
ATOM      8  C   UNL     1       7.259   7.649  17.637  0.00  0.00    +0.000 A 
ATOM      9  C   UNL     1       7.861   6.663  18.431  0.00  0.00    +0.000 A 
ATOM     10  C   UNL     1       7.192   5.459  18.701  0.00  0.00    +0.000 A 
BRANCH   5  11
ATOM     11  C   UNL     1       5.125   4.000  18.460  0.00  0.00    +0.000 C 
ATOM     12  O   UNL     1       5.224   3.372  19.503  0.00  0.00    +0.000 OA
BRANCH  11  13
ATOM     13  O   UNL     1       4.378   3.651  17.385  0.00  0.00    +0.000 OA
BRANCH  13  15
ATOM     14  C   UNL     1       2.011   3.814  17.670  0.00  0.00    +0.000 C 
ATOM     15  C   UNL     1       3.208   2.879  17.691  0.00  0.00    +0.000 C 
ENDBRANCH  13  15
ENDBRANCH  11  13
ENDBRANCH   5  11
ENDBRANCH   1   8
BRANCH   2  16
ATOM     16  C   UNL     1       9.250  10.874  18.019  0.00  0.00    +0.000 A 
ATOM     17  C   UNL     1       8.278  11.856  17.768  0.00  0.00    +0.000 A 
ATOM     18  C   UNL     1       8.646  13.161  17.447  0.00  0.00    +0.000 A 
ATOM     19  C   UNL     1       9.992  13.495  17.365  0.00  0.00    +0.000 A 
ATOM     20  C   UNL     1      10.973  12.537  17.638  0.00  0.00    +0.000 A 
ATOM     21  C   UNL     1      10.603  11.222  17.964  0.00  0.00    +0.000 A 
BRANCH  19  22
ATOM     22  N   UNL     1      10.333  14.830  17.017  0.00  0.00    +0.000 N 
ATOM     23  H   UNL     1      10.882  14.953  16.166  0.00  0.00    +0.000 HD
BRANCH  22  24
ATOM     24  S   UNL     1      10.890  15.860  18.232  0.00  0.00    +0.000 S 
ATOM     25  C   UNL     1      10.480  17.460  17.563  0.00  0.00    +0.000 C 
ATOM     26  O   UNL     1      10.142  15.642  19.449  0.00  0.00    +0.000 OA
ATOM     27  O   UNL     1      12.332  15.733  18.203  0.00  0.00    +0.000 OA
ENDBRANCH  22  24
ENDBRANCH  19  22
ENDBRANCH   2  16
TORSDOF 7
ENDMDL
MODEL 4
REMARK VINA RESULT:      -6.9      6.868     10.068
REMARK  Name = 
REMARK  9 active torsions:
REMARK  status: ('A' for Active; 'I' for Inactive)
REMARK    1  A    between atoms: C_1  and  C_2
REMARK    2  A    between atoms: C_2  and  O_3
REMARK    3  A    between atoms: O_3  and  C_4
REMARK    4  A    between atoms: C_4  and  C_6
REMARK    5  A    between atoms: C_9  and  N_10
REMARK    6  A    between atoms: C_11  and  C_13
REMARK    7  A    between atoms: C_16  and  N_17
REMARK    8  A    between atoms: N_17  and  S_18
REMARK    9  A    between atoms: S_18  and  C_19
REMARK                            x       y       z     vdW  Elec       q    Type
REMARK                         _______ _______ _______ _____ _____    ______ ____
ROOT
ATOM      1  N   UNL     1       9.011   9.035  19.070  0.00  0.00    +0.000 N 
ATOM      2  C   UNL     1       8.120   8.744  18.047  0.00  0.00    +0.000 C 
ATOM      3  O   UNL     1       7.791   9.519  17.156  0.00  0.00    +0.000 OA
ATOM      4  H   UNL     1       9.318   8.285  19.675  0.00  0.00    +0.000 HD
ENDROOT
BRANCH   1   8
ATOM      5  C   UNL     1      10.641  12.884  19.764  0.00  0.00    +0.000 A 
ATOM      6  C   UNL     1      10.045  12.185  20.814  0.00  0.00    +0.000 A 
ATOM      7  C   UNL     1       9.504  10.915  20.596  0.00  0.00    +0.000 A 
ATOM      8  C   UNL     1       9.550  10.316  19.336  0.00  0.00    +0.000 A 
ATOM      9  C   UNL     1      10.176  11.006  18.289  0.00  0.00    +0.000 A 
ATOM     10  C   UNL     1      10.708  12.289  18.498  0.00  0.00    +0.000 A 
BRANCH   5  11
ATOM     11  C   UNL     1      11.115  14.265  20.043  0.00  0.00    +0.000 C 
ATOM     12  O   UNL     1      12.217  14.677  19.713  0.00  0.00    +0.000 OA
BRANCH  11  13
ATOM     13  O   UNL     1      10.202  14.934  20.788  0.00  0.00    +0.000 OA
BRANCH  13  15
ATOM     14  C   UNL     1       7.991  15.815  20.580  0.00  0.00    +0.000 C 
ATOM     15  C   UNL     1       9.417  15.890  20.063  0.00  0.00    +0.000 C 
ENDBRANCH  13  15
ENDBRANCH  11  13
ENDBRANCH   5  11
ENDBRANCH   1   8
BRANCH   2  16
ATOM     16  C   UNL     1       7.495   7.389  18.026  0.00  0.00    +0.000 A 
ATOM     17  C   UNL     1       6.410   7.224  17.150  0.00  0.00    +0.000 A 
ATOM     18  C   UNL     1       5.753   5.998  17.047  0.00  0.00    +0.000 A 
ATOM     19  C   UNL     1       6.171   4.928  17.828  0.00  0.00    +0.000 A 
ATOM     20  C   UNL     1       7.266   5.067  18.686  0.00  0.00    +0.000 A 
ATOM     21  C   UNL     1       7.930   6.300  18.788  0.00  0.00    +0.000 A 
BRANCH  19  22
ATOM     22  N   UNL     1       5.468   3.698  17.712  0.00  0.00    +0.000 N 
ATOM     23  H   UNL     1       5.092   3.475  16.789  0.00  0.00    +0.000 HD
BRANCH  22  24
ATOM     24  S   UNL     1       4.359   3.288  18.915  0.00  0.00    +0.000 S 
ATOM     25  C   UNL     1       3.264   2.192  18.037  0.00  0.00    +0.000 C 
ATOM     26  O   UNL     1       5.022   2.560  19.973  0.00  0.00    +0.000 OA
ATOM     27  O   UNL     1       3.628   4.509  19.188  0.00  0.00    +0.000 OA
ENDBRANCH  22  24
ENDBRANCH  19  22
ENDBRANCH   2  16
TORSDOF 7
ENDMDL
MODEL 5
REMARK VINA RESULT:      -6.9      3.407     10.266
REMARK  Name = 
REMARK  9 active torsions:
REMARK  status: ('A' for Active; 'I' for Inactive)
REMARK    1  A    between atoms: C_1  and  C_2
REMARK    2  A    between atoms: C_2  and  O_3
REMARK    3  A    between atoms: O_3  and  C_4
REMARK    4  A    between atoms: C_4  and  C_6
REMARK    5  A    between atoms: C_9  and  N_10
REMARK    6  A    between atoms: C_11  and  C_13
REMARK    7  A    between atoms: C_16  and  N_17
REMARK    8  A    between atoms: N_17  and  S_18
REMARK    9  A    between atoms: S_18  and  C_19
REMARK                            x       y       z     vdW  Elec       q    Type
REMARK                         _______ _______ _______ _____ _____    ______ ____
ROOT
ATOM      1  N   UNL     1       1.926   7.899  19.714  0.00  0.00    +0.000 N 
ATOM      2  C   UNL     1       2.047   6.541  19.971  0.00  0.00    +0.000 C 
ATOM      3  O   UNL     1       1.427   5.927  20.832  0.00  0.00    +0.000 OA
ATOM      4  H   UNL     1       2.380   8.282  18.896  0.00  0.00    +0.000 HD
ENDROOT
BRANCH   1   8
ATOM      5  C   UNL     1      -0.306  10.679  22.004  0.00  0.00    +0.000 A 
ATOM      6  C   UNL     1       0.318   9.604  22.637  0.00  0.00    +0.000 A 
ATOM      7  C   UNL     1       1.056   8.681  21.891  0.00  0.00    +0.000 A 
ATOM      8  C   UNL     1       1.192   8.812  20.509  0.00  0.00    +0.000 A 
ATOM      9  C   UNL     1       0.590   9.909  19.877  0.00  0.00    +0.000 A 
ATOM     10  C   UNL     1      -0.166  10.831  20.619  0.00  0.00    +0.000 A 
BRANCH   5  11
ATOM     11  C   UNL     1      -1.150  11.571  22.842  0.00  0.00    +0.000 C 
ATOM     12  O   UNL     1      -2.119  11.180  23.476  0.00  0.00    +0.000 OA
BRANCH  11  13
ATOM     13  O   UNL     1      -0.750  12.858  22.707  0.00  0.00    +0.000 OA
BRANCH  13  15
ATOM     14  C   UNL     1      -1.359  14.642  24.177  0.00  0.00    +0.000 C 
ATOM     15  C   UNL     1      -1.771  13.835  22.958  0.00  0.00    +0.000 C 
ENDBRANCH  13  15
ENDBRANCH  11  13
ENDBRANCH   5  11
ENDBRANCH   1   8
BRANCH   2  16
ATOM     16  C   UNL     1       3.017   5.756  19.152  0.00  0.00    +0.000 A 
ATOM     17  C   UNL     1       2.494   5.124  18.012  0.00  0.00    +0.000 A 
ATOM     18  C   UNL     1       3.312   4.369  17.174  0.00  0.00    +0.000 A 
ATOM     19  C   UNL     1       4.661   4.231  17.472  0.00  0.00    +0.000 A 
ATOM     20  C   UNL     1       5.205   4.875  18.588  0.00  0.00    +0.000 A 
ATOM     21  C   UNL     1       4.383   5.638  19.432  0.00  0.00    +0.000 A 
BRANCH  19  22
ATOM     22  N   UNL     1       5.463   3.439  16.606  0.00  0.00    +0.000 N 
ATOM     23  H   UNL     1       5.941   2.643  17.030  0.00  0.00    +0.000 HD
BRANCH  22  24
ATOM     24  S   UNL     1       6.480   4.222  15.512  0.00  0.00    +0.000 S 
ATOM     25  C   UNL     1       5.627   5.768  15.271  0.00  0.00    +0.000 C 
ATOM     26  O   UNL     1       7.766   4.472  16.122  0.00  0.00    +0.000 OA
ATOM     27  O   UNL     1       6.367   3.466  14.282  0.00  0.00    +0.000 OA
ENDBRANCH  22  24
ENDBRANCH  19  22
ENDBRANCH   2  16
TORSDOF 7
ENDMDL
MODEL 6
REMARK VINA RESULT:      -6.8      0.970      1.020
REMARK  Name = 
REMARK  9 active torsions:
REMARK  status: ('A' for Active; 'I' for Inactive)
REMARK    1  A    between atoms: C_1  and  C_2
REMARK    2  A    between atoms: C_2  and  O_3
REMARK    3  A    between atoms: O_3  and  C_4
REMARK    4  A    between atoms: C_4  and  C_6
REMARK    5  A    between atoms: C_9  and  N_10
REMARK    6  A    between atoms: C_11  and  C_13
REMARK    7  A    between atoms: C_16  and  N_17
REMARK    8  A    between atoms: N_17  and  S_18
REMARK    9  A    between atoms: S_18  and  C_19
REMARK                            x       y       z     vdW  Elec       q    Type
REMARK                         _______ _______ _______ _____ _____    ______ ____
ROOT
ATOM      1  N   UNL     1       3.108   6.938  18.674  0.00  0.00    +0.000 N 
ATOM      2  C   UNL     1       2.323   8.057  18.436  0.00  0.00    +0.000 C 
ATOM      3  O   UNL     1       2.216   8.627  17.357  0.00  0.00    +0.000 OA
ATOM      4  H   UNL     1       3.023   6.463  19.563  0.00  0.00    +0.000 HD
ENDROOT
BRANCH   1   8
ATOM      5  C   UNL     1       5.791   5.190  15.898  0.00  0.00    +0.000 A 
ATOM      6  C   UNL     1       6.049   6.465  16.402  0.00  0.00    +0.000 A 
ATOM      7  C   UNL     1       5.171   7.051  17.317  0.00  0.00    +0.000 A 
ATOM      8  C   UNL     1       4.026   6.380  17.752  0.00  0.00    +0.000 A 
ATOM      9  C   UNL     1       3.784   5.087  17.269  0.00  0.00    +0.000 A 
ATOM     10  C   UNL     1       4.654   4.500  16.337  0.00  0.00    +0.000 A 
BRANCH   5  11
ATOM     11  C   UNL     1       6.716   4.664  14.860  0.00  0.00    +0.000 C 
ATOM     12  O   UNL     1       7.819   5.141  14.638  0.00  0.00    +0.000 OA
BRANCH  11  13
ATOM     13  O   UNL     1       6.116   3.675  14.155  0.00  0.00    +0.000 OA
BRANCH  13  15
ATOM     14  C   UNL     1       5.158   3.219  12.013  0.00  0.00    +0.000 C 
ATOM     15  C   UNL     1       6.405   3.679  12.749  0.00  0.00    +0.000 C 
ENDBRANCH  13  15
ENDBRANCH  11  13
ENDBRANCH   5  11
ENDBRANCH   1   8
BRANCH   2  16
ATOM     16  C   UNL     1       1.557   8.631  19.581  0.00  0.00    +0.000 A 
ATOM     17  C   UNL     1       1.001   9.904  19.375  0.00  0.00    +0.000 A 
ATOM     18  C   UNL     1       0.262  10.533  20.376  0.00  0.00    +0.000 A 
ATOM     19  C   UNL     1       0.080   9.897  21.597  0.00  0.00    +0.000 A 
ATOM     20  C   UNL     1       0.603   8.619  21.810  0.00  0.00    +0.000 A 
ATOM     21  C   UNL     1       1.345   7.983  20.802  0.00  0.00    +0.000 A 
BRANCH  19  22
ATOM     22  N   UNL     1      -0.664  10.574  22.602  0.00  0.00    +0.000 N 
ATOM     23  H   UNL     1      -1.352  10.018  23.111  0.00  0.00    +0.000 HD
BRANCH  22  24
ATOM     24  S   UNL     1      -1.285  12.103  22.250  0.00  0.00    +0.000 S 
ATOM     25  C   UNL     1      -2.611  12.232  23.433  0.00  0.00    +0.000 C 
ATOM     26  O   UNL     1      -0.293  13.117  22.527  0.00  0.00    +0.000 OA
ATOM     27  O   UNL     1      -1.883  11.975  20.938  0.00  0.00    +0.000 OA
ENDBRANCH  22  24
ENDBRANCH  19  22
ENDBRANCH   2  16
TORSDOF 7
ENDMDL
MODEL 7
REMARK VINA RESULT:      -6.8      0.843      1.270
REMARK  Name = 
REMARK  9 active torsions:
REMARK  status: ('A' for Active; 'I' for Inactive)
REMARK    1  A    between atoms: C_1  and  C_2
REMARK    2  A    between atoms: C_2  and  O_3
REMARK    3  A    between atoms: O_3  and  C_4
REMARK    4  A    between atoms: C_4  and  C_6
REMARK    5  A    between atoms: C_9  and  N_10
REMARK    6  A    between atoms: C_11  and  C_13
REMARK    7  A    between atoms: C_16  and  N_17
REMARK    8  A    between atoms: N_17  and  S_18
REMARK    9  A    between atoms: S_18  and  C_19
REMARK                            x       y       z     vdW  Elec       q    Type
REMARK                         _______ _______ _______ _____ _____    ______ ____
ROOT
ATOM      1  N   UNL     1       2.772   7.114  18.783  0.00  0.00    +0.000 N 
ATOM      2  C   UNL     1       2.127   8.295  18.448  0.00  0.00    +0.000 C 
ATOM      3  O   UNL     1       2.171   8.837  17.349  0.00  0.00    +0.000 OA
ATOM      4  H   UNL     1       2.563   6.680  19.672  0.00  0.00    +0.000 HD
ENDROOT
BRANCH   1   8
ATOM      5  C   UNL     1       5.502   5.012  16.315  0.00  0.00    +0.000 A 
ATOM      6  C   UNL     1       5.757   6.341  16.655  0.00  0.00    +0.000 A 
ATOM      7  C   UNL     1       4.864   7.043  17.468  0.00  0.00    +0.000 A 
ATOM      8  C   UNL     1       3.706   6.439  17.961  0.00  0.00    +0.000 A 
ATOM      9  C   UNL     1       3.466   5.094  17.644  0.00  0.00    +0.000 A 
ATOM     10  C   UNL     1       4.352   4.389  16.815  0.00  0.00    +0.000 A 
BRANCH   5  11
ATOM     11  C   UNL     1       6.446   4.353  15.375  0.00  0.00    +0.000 C 
ATOM     12  O   UNL     1       7.660   4.392  15.503  0.00  0.00    +0.000 OA
BRANCH  11  13
ATOM     13  O   UNL     1       5.770   3.814  14.332  0.00  0.00    +0.000 OA
BRANCH  13  15
ATOM     14  C   UNL     1       5.682   3.070  12.063  0.00  0.00    +0.000 C 
ATOM     15  C   UNL     1       6.420   3.945  13.060  0.00  0.00    +0.000 C 
ENDBRANCH  13  15
ENDBRANCH  11  13
ENDBRANCH   5  11
ENDBRANCH   1   8
BRANCH   2  16
ATOM     16  C   UNL     1       1.325   8.980  19.505  0.00  0.00    +0.000 A 
ATOM     17  C   UNL     1       1.073   8.235  20.668  0.00  0.00    +0.000 A 
ATOM     18  C   UNL     1       0.338   8.778  21.720  0.00  0.00    +0.000 A 
ATOM     19  C   UNL     1      -0.160  10.070  21.615  0.00  0.00    +0.000 A 
ATOM     20  C   UNL     1       0.104  10.836  20.476  0.00  0.00    +0.000 A 
ATOM     21  C   UNL     1       0.847  10.291  19.416  0.00  0.00    +0.000 A 
BRANCH  19  22
ATOM     22  N   UNL     1      -0.921  10.587  22.699  0.00  0.00    +0.000 N 
ATOM     23  H   UNL     1      -1.647   9.977  23.076  0.00  0.00    +0.000 HD
BRANCH  22  24
ATOM     24  S   UNL     1      -1.477  12.177  22.606  0.00  0.00    +0.000 S 
ATOM     25  C   UNL     1      -2.916  12.117  23.655  0.00  0.00    +0.000 C 
ATOM     26  O   UNL     1      -0.502  13.077  23.177  0.00  0.00    +0.000 OA
ATOM     27  O   UNL     1      -1.938  12.337  21.242  0.00  0.00    +0.000 OA
ENDBRANCH  22  24
ENDBRANCH  19  22
ENDBRANCH   2  16
TORSDOF 7
ENDMDL
MODEL 8
REMARK VINA RESULT:      -6.7      6.973     10.126
REMARK  Name = 
REMARK  9 active torsions:
REMARK  status: ('A' for Active; 'I' for Inactive)
REMARK    1  A    between atoms: C_1  and  C_2
REMARK    2  A    between atoms: C_2  and  O_3
REMARK    3  A    between atoms: O_3  and  C_4
REMARK    4  A    between atoms: C_4  and  C_6
REMARK    5  A    between atoms: C_9  and  N_10
REMARK    6  A    between atoms: C_11  and  C_13
REMARK    7  A    between atoms: C_16  and  N_17
REMARK    8  A    between atoms: N_17  and  S_18
REMARK    9  A    between atoms: S_18  and  C_19
REMARK                            x       y       z     vdW  Elec       q    Type
REMARK                         _______ _______ _______ _____ _____    ______ ____
ROOT
ATOM      1  N   UNL     1       9.029   9.083  19.081  0.00  0.00    +0.000 N 
ATOM      2  C   UNL     1       8.139   8.771  18.065  0.00  0.00    +0.000 C 
ATOM      3  O   UNL     1       7.790   9.535  17.172  0.00  0.00    +0.000 OA
ATOM      4  H   UNL     1       9.354   8.343  19.688  0.00  0.00    +0.000 HD
ENDROOT
BRANCH   1   8
ATOM      5  C   UNL     1      10.554  12.940  19.950  0.00  0.00    +0.000 A 
ATOM      6  C   UNL     1      10.733  12.395  18.678  0.00  0.00    +0.000 A 
ATOM      7  C   UNL     1      10.235  11.124  18.381  0.00  0.00    +0.000 A 
ATOM      8  C   UNL     1       9.547  10.376  19.337  0.00  0.00    +0.000 A 
ATOM      9  C   UNL     1       9.341  10.936  20.606  0.00  0.00    +0.000 A 
ATOM     10  C   UNL     1       9.852  12.206  20.914  0.00  0.00    +0.000 A 
BRANCH   5  11
ATOM     11  C   UNL     1      11.188  14.256  20.226  0.00  0.00    +0.000 C 
ATOM     12  O   UNL     1      12.145  14.687  19.600  0.00  0.00    +0.000 OA
BRANCH  11  13
ATOM     13  O   UNL     1      10.621  14.831  21.314  0.00  0.00    +0.000 OA
BRANCH  13  15
ATOM     14  C   UNL     1       8.836  16.139  20.412  0.00  0.00    +0.000 C 
ATOM     15  C   UNL     1      10.179  16.182  21.119  0.00  0.00    +0.000 C 
ENDBRANCH  13  15
ENDBRANCH  11  13
ENDBRANCH   5  11
ENDBRANCH   1   8
BRANCH   2  16
ATOM     16  C   UNL     1       7.538   7.404  18.055  0.00  0.00    +0.000 A 
ATOM     17  C   UNL     1       6.465   7.207  17.170  0.00  0.00    +0.000 A 
ATOM     18  C   UNL     1       5.832   5.969  17.076  0.00  0.00    +0.000 A 
ATOM     19  C   UNL     1       6.261   4.917  17.875  0.00  0.00    +0.000 A 
ATOM     20  C   UNL     1       7.344   5.087  18.742  0.00  0.00    +0.000 A 
ATOM     21  C   UNL     1       7.984   6.333  18.836  0.00  0.00    +0.000 A 
BRANCH  19  22
ATOM     22  N   UNL     1       5.582   3.673  17.767  0.00  0.00    +0.000 N 
ATOM     23  H   UNL     1       5.472   3.294  16.825  0.00  0.00    +0.000 HD
BRANCH  22  24
ATOM     24  S   UNL     1       4.169   3.447  18.661  0.00  0.00    +0.000 S 
ATOM     25  C   UNL     1       2.918   3.620  17.405  0.00  0.00    +0.000 C 
ATOM     26  O   UNL     1       4.131   2.106  19.198  0.00  0.00    +0.000 OA
ATOM     27  O   UNL     1       4.081   4.605  19.527  0.00  0.00    +0.000 OA
ENDBRANCH  22  24
ENDBRANCH  19  22
ENDBRANCH   2  16
TORSDOF 7
ENDMDL
MODEL 9
REMARK VINA RESULT:      -6.7      2.847      3.434
REMARK  Name = 
REMARK  9 active torsions:
REMARK  status: ('A' for Active; 'I' for Inactive)
REMARK    1  A    between atoms: C_1  and  C_2
REMARK    2  A    between atoms: C_2  and  O_3
REMARK    3  A    between atoms: O_3  and  C_4
REMARK    4  A    between atoms: C_4  and  C_6
REMARK    5  A    between atoms: C_9  and  N_10
REMARK    6  A    between atoms: C_11  and  C_13
REMARK    7  A    between atoms: C_16  and  N_17
REMARK    8  A    between atoms: N_17  and  S_18
REMARK    9  A    between atoms: S_18  and  C_19
REMARK                            x       y       z     vdW  Elec       q    Type
REMARK                         _______ _______ _______ _____ _____    ______ ____
ROOT
ATOM      1  N   UNL     1       1.517   8.559  17.741  0.00  0.00    +0.000 N 
ATOM      2  C   UNL     1       0.962   9.204  18.837  0.00  0.00    +0.000 C 
ATOM      3  O   UNL     1       1.384   9.136  19.985  0.00  0.00    +0.000 OA
ATOM      4  H   UNL     1       1.176   8.787  16.817  0.00  0.00    +0.000 HD
ENDROOT
BRANCH   1   8
ATOM      5  C   UNL     1       4.551   5.609  17.962  0.00  0.00    +0.000 A 
ATOM      6  C   UNL     1       4.852   6.876  17.462  0.00  0.00    +0.000 A 
ATOM      7  C   UNL     1       3.859   7.856  17.385  0.00  0.00    +0.000 A 
ATOM      8  C   UNL     1       2.554   7.598  17.806  0.00  0.00    +0.000 A 
ATOM      9  C   UNL     1       2.259   6.334  18.336  0.00  0.00    +0.000 A 
ATOM     10  C   UNL     1       3.249   5.341  18.402  0.00  0.00    +0.000 A 
BRANCH   5  11
ATOM     11  C   UNL     1       5.630   4.587  17.932  0.00  0.00    +0.000 C 
ATOM     12  O   UNL     1       6.455   4.454  18.824  0.00  0.00    +0.000 OA
BRANCH  11  13
ATOM     13  O   UNL     1       5.616   3.923  16.752  0.00  0.00    +0.000 OA
BRANCH  13  15
ATOM     14  C   UNL     1       6.176   3.959  14.429  0.00  0.00    +0.000 C 
ATOM     15  C   UNL     1       6.643   4.313  15.829  0.00  0.00    +0.000 C 
ENDBRANCH  13  15
ENDBRANCH  11  13
ENDBRANCH   5  11
ENDBRANCH   1   8
BRANCH   2  16
ATOM     16  C   UNL     1      -0.256  10.039  18.615  0.00  0.00    +0.000 A 
ATOM     17  C   UNL     1      -1.034   9.711  17.492  0.00  0.00    +0.000 A 
ATOM     18  C   UNL     1      -2.194  10.422  17.192  0.00  0.00    +0.000 A 
ATOM     19  C   UNL     1      -2.584  11.476  18.009  0.00  0.00    +0.000 A 
ATOM     20  C   UNL     1      -1.837  11.799  19.146  0.00  0.00    +0.000 A 
ATOM     21  C   UNL     1      -0.669  11.082  19.451  0.00  0.00    +0.000 A 
BRANCH  19  22
ATOM     22  N   UNL     1      -3.762  12.192  17.665  0.00  0.00    +0.000 N 
ATOM     23  H   UNL     1      -3.675  13.207  17.598  0.00  0.00    +0.000 HD
BRANCH  22  24
ATOM     24  S   UNL     1      -5.209  11.774  18.426  0.00  0.00    +0.000 S 
ATOM     25  C   UNL     1      -6.408  12.586  17.389  0.00  0.00    +0.000 C 
ATOM     26  O   UNL     1      -5.407  10.344  18.361  0.00  0.00    +0.000 OA
ATOM     27  O   UNL     1      -5.185  12.472  19.694  0.00  0.00    +0.000 OA
ENDBRANCH  22  24
ENDBRANCH  19  22
ENDBRANCH   2  16
TORSDOF 7
ENDMDL
