MODEL 1
REMARK VINA RESULT:      -7.7      0.000      0.000
REMARK  Name = 
REMARK  10 active torsions:
REMARK  status: ('A' for Active; 'I' for Inactive)
REMARK    1  A    between atoms: C_2  and  O_3
REMARK    2  A    between atoms: C_2  and  C_4
REMARK    3  A    between atoms: C_4  and  N_5
REMARK    4  A    between atoms: C_6  and  C_8
REMARK    5  A    between atoms: C_11  and  C_12
REMARK    6  A    between atoms: C_13  and  C_14
REMARK    7  A    between atoms: C_14  and  O_15
REMARK    8  A    between atoms: O_15  and  C_16
REMARK    9  A    between atoms: C_19  and  C_20
REMARK   10  A    between atoms: C_27  and  O_28
REMARK                            x       y       z     vdW  Elec       q    Type
REMARK                         _______ _______ _______ _____ _____    ______ ____
ROOT
ATOM      1  C   UNK A   1       1.028   9.628  19.481  0.00  0.00    +0.000 A 
ATOM      2  N   UNK A   1       1.459  10.003  18.236  0.00  0.00    +0.000 NA
ATOM      3  C   UNK A   0       2.304   9.142  17.602  0.00  0.00    +0.000 A 
ATOM      4  C   UNK A   1       2.761   7.940  18.136  0.00  0.00    +0.000 A 
ATOM      5  C   UNK A   1       2.314   7.588  19.410  0.00  0.00    +0.000 A 
ATOM      6  C   UNK A   1       1.434   8.434  20.092  0.00  0.00    +0.000 A 
ENDROOT
BRANCH   1   8
ATOM      7  N   UNK A   1       0.454  11.155  21.330  0.00  0.00    +0.000 N 
ATOM      8  C   UNK A   1       0.037  10.576  20.126  0.00  0.00    +0.000 C 
ATOM      9  O   UNK A   1      -1.066  10.825  19.653  0.00  0.00    +0.000 OA
ATOM     10  H   UNK A   1       1.183  10.625  21.803  0.00  0.00    +0.000 HD
BRANCH   7  11
ATOM     11  C   UNK A   1      -0.527  11.934  22.086  0.00  0.00    +0.000 C 
BRANCH  11  13
ATOM     12  O   UNK A   1      -2.459  11.467  23.491  0.00  0.00    +0.000 OA
ATOM     13  C   UNK A   1      -1.348  11.136  23.090  0.00  0.00    +0.000 C 
BRANCH  13  14
ATOM     14  O   UNK A   1      -0.686  10.064  23.596  0.00  0.00    +0.000 OA
ATOM     15  H   UNK A   1       0.098  10.356  24.106  0.00  0.00    +0.000 HD
ENDBRANCH  13  14
ENDBRANCH  11  13
ENDBRANCH   7  11
ENDBRANCH   1   8
BRANCH   4  16
ATOM     16  C   UNK A   1       3.667   7.090  17.414  0.00  0.00    +0.000 C 
ATOM     17  C   UNK A   1       4.498   6.315  16.776  0.00  0.00    +0.000 C 
BRANCH  17  18
ATOM     18  C   UNK A   1       5.468   5.411  16.033  0.00  0.00    +0.000 C 
BRANCH  18  19
ATOM     19  O   UNK A   1       5.183   4.056  16.365  0.00  0.00    +0.000 OA
BRANCH  19  20
ATOM     20  C   UNK A   1       4.413   3.889  17.484  0.00  0.00    +0.000 A 
ATOM     21  C   UNK A   1       3.063   3.636  17.245  0.00  0.00    +0.000 A 
ATOM     22  C   UNK A   1       2.180   3.447  18.311  0.00  0.00    +0.000 A 
ATOM     23  C   UNK A   1       2.641   3.493  19.633  0.00  0.00    +0.000 A 
ATOM     24  C   UNK A   1       4.005   3.722  19.863  0.00  0.00    +0.000 A 
ATOM     25  C   UNK A   1       4.886   3.916  18.798  0.00  0.00    +0.000 A 
BRANCH  23  26
ATOM     26  C   UNK A   1       1.705   3.294  20.799  0.00  0.00    +0.000 C 
ATOM     27  F   UNK A   1       0.509   3.928  20.655  0.00  0.00    +0.000 F 
ATOM     28  F   UNK A   1       1.410   1.981  21.011  0.00  0.00    +0.000 F 
ATOM     29  F   UNK A   1       2.232   3.751  21.969  0.00  0.00    +0.000 F 
ENDBRANCH  23  26
ENDBRANCH  19  20
ENDBRANCH  18  19
ENDBRANCH  17  18
ENDBRANCH   4  16
BRANCH   6  30
ATOM     30  O   UNK A   1       1.003   8.072  21.335  0.00  0.00    +0.000 OA
ATOM     31  H   UNK A   1       1.453   7.266  21.635  0.00  0.00    +0.000 HD
ENDBRANCH   6  30
TORSDOF 10
ENDMDL
MODEL 2
REMARK VINA RESULT:      -7.6      1.240      1.655
REMARK  Name = 
REMARK  10 active torsions:
REMARK  status: ('A' for Active; 'I' for Inactive)
REMARK    1  A    between atoms: C_2  and  O_3
REMARK    2  A    between atoms: C_2  and  C_4
REMARK    3  A    between atoms: C_4  and  N_5
REMARK    4  A    between atoms: C_6  and  C_8
REMARK    5  A    between atoms: C_11  and  C_12
REMARK    6  A    between atoms: C_13  and  C_14
REMARK    7  A    between atoms: C_14  and  O_15
REMARK    8  A    between atoms: O_15  and  C_16
REMARK    9  A    between atoms: C_19  and  C_20
REMARK   10  A    between atoms: C_27  and  O_28
REMARK                            x       y       z     vdW  Elec       q    Type
REMARK                         _______ _______ _______ _____ _____    ______ ____
ROOT
ATOM      1  C   UNK A   1       0.848   9.258  19.825  0.00  0.00    +0.000 A 
ATOM      2  N   UNK A   1       1.420   8.155  20.402  0.00  0.00    +0.000 NA
ATOM      3  C   UNK A   0       2.340   7.486  19.651  0.00  0.00    +0.000 A 
ATOM      4  C   UNK A   1       2.713   7.835  18.356  0.00  0.00    +0.000 A 
ATOM      5  C   UNK A   1       2.107   8.956  17.790  0.00  0.00    +0.000 A 
ATOM      6  C   UNK A   1       1.168   9.683  18.529  0.00  0.00    +0.000 A 
ENDROOT
BRANCH   1   8
ATOM      7  N   UNK A   1       0.115   9.905  22.089  0.00  0.00    +0.000 N 
ATOM      8  C   UNK A   1      -0.118  10.015  20.714  0.00  0.00    +0.000 C 
ATOM      9  O   UNK A   1      -1.056  10.676  20.282  0.00  0.00    +0.000 OA
ATOM     10  H   UNK A   1       0.653   9.079  22.344  0.00  0.00    +0.000 HD
BRANCH   7  11
ATOM     11  C   UNK A   1      -0.888  10.463  22.997  0.00  0.00    +0.000 C 
BRANCH  11  13
ATOM     12  O   UNK A   1      -0.342  12.833  23.120  0.00  0.00    +0.000 OA
ATOM     13  C   UNK A   1      -1.149  11.954  22.831  0.00  0.00    +0.000 C 
BRANCH  13  14
ATOM     14  O   UNK A   1      -2.415  12.238  22.432  0.00  0.00    +0.000 OA
ATOM     15  H   UNK A   1      -2.915  11.411  22.270  0.00  0.00    +0.000 HD
ENDBRANCH  13  14
ENDBRANCH  11  13
ENDBRANCH   7  11
ENDBRANCH   1   8
BRANCH   4  16
ATOM     16  C   UNK A   1       3.679   7.070  17.618  0.00  0.00    +0.000 C 
ATOM     17  C   UNK A   1       4.548   6.358  16.956  0.00  0.00    +0.000 C 
BRANCH  17  18
ATOM     18  C   UNK A   1       5.562   5.529  16.185  0.00  0.00    +0.000 C 
BRANCH  18  19
ATOM     19  O   UNK A   1       5.518   4.188  16.661  0.00  0.00    +0.000 OA
BRANCH  19  20
ATOM     20  C   UNK A   1       4.507   3.925  17.545  0.00  0.00    +0.000 A 
ATOM     21  C   UNK A   1       3.289   3.569  16.966  0.00  0.00    +0.000 A 
ATOM     22  C   UNK A   1       2.184   3.277  17.769  0.00  0.00    +0.000 A 
ATOM     23  C   UNK A   1       2.288   3.320  19.165  0.00  0.00    +0.000 A 
ATOM     24  C   UNK A   1       3.524   3.654  19.738  0.00  0.00    +0.000 A 
ATOM     25  C   UNK A   1       4.626   3.951  18.936  0.00  0.00    +0.000 A 
BRANCH  23  26
ATOM     26  C   UNK A   1       1.107   3.010  20.051  0.00  0.00    +0.000 C 
ATOM     27  F   UNK A   1       0.551   4.111  20.626  0.00  0.00    +0.000 F 
ATOM     28  F   UNK A   1       0.100   2.389  19.377  0.00  0.00    +0.000 F 
ATOM     29  F   UNK A   1       1.437   2.179  21.079  0.00  0.00    +0.000 F 
ENDBRANCH  23  26
ENDBRANCH  19  20
ENDBRANCH  18  19
ENDBRANCH  17  18
ENDBRANCH   4  16
BRANCH   6  30
ATOM     30  O   UNK A   1       0.588  10.780  17.961  0.00  0.00    +0.000 OA
ATOM     31  H   UNK A   1       1.064  11.589  18.208  0.00  0.00    +0.000 HD
ENDBRANCH   6  30
TORSDOF 10
ENDMDL
MODEL 3
REMARK VINA RESULT:      -7.4      7.636      8.424
REMARK  Name = 
REMARK  10 active torsions:
REMARK  status: ('A' for Active; 'I' for Inactive)
REMARK    1  A    between atoms: C_2  and  O_3
REMARK    2  A    between atoms: C_2  and  C_4
REMARK    3  A    between atoms: C_4  and  N_5
REMARK    4  A    between atoms: C_6  and  C_8
REMARK    5  A    between atoms: C_11  and  C_12
REMARK    6  A    between atoms: C_13  and  C_14
REMARK    7  A    between atoms: C_14  and  O_15
REMARK    8  A    between atoms: O_15  and  C_16
REMARK    9  A    between atoms: C_19  and  C_20
REMARK   10  A    between atoms: C_27  and  O_28
REMARK                            x       y       z     vdW  Elec       q    Type
REMARK                         _______ _______ _______ _____ _____    ______ ____
ROOT
ATOM      1  C   UNK A   1       9.916  12.932  19.499  0.00  0.00    +0.000 A 
ATOM      2  N   UNK A   1       9.526  12.812  18.191  0.00  0.00    +0.000 NA
ATOM      3  C   UNK A   0       9.033  11.599  17.814  0.00  0.00    +0.000 A 
ATOM      4  C   UNK A   1       8.920  10.493  18.652  0.00  0.00    +0.000 A 
ATOM      5  C   UNK A   1       9.335  10.640  19.975  0.00  0.00    +0.000 A 
ATOM      6  C   UNK A   1       9.834  11.871  20.410  0.00  0.00    +0.000 A 
ENDROOT
BRANCH   1   8
ATOM      7  N   UNK A   1      10.381  15.274  18.882  0.00  0.00    +0.000 N 
ATOM      8  C   UNK A   1      10.396  14.312  19.899  0.00  0.00    +0.000 C 
ATOM      9  O   UNK A   1      10.788  14.591  21.027  0.00  0.00    +0.000 OA
ATOM     10  H   UNK A   1      10.398  14.873  17.946  0.00  0.00    +0.000 HD
BRANCH   7  11
ATOM     11  C   UNK A   1      11.000  16.570  19.161  0.00  0.00    +0.000 C 
BRANCH  11  13
ATOM     12  O   UNK A   1      12.205  16.489  17.047  0.00  0.00    +0.000 OA
ATOM     13  C   UNK A   1      11.864  17.128  18.038  0.00  0.00    +0.000 C 
BRANCH  13  14
ATOM     14  O   UNK A   1      12.323  18.381  18.284  0.00  0.00    +0.000 OA
ATOM     15  H   UNK A   1      13.222  18.346  18.672  0.00  0.00    +0.000 HD
ENDBRANCH  13  14
ENDBRANCH  11  13
ENDBRANCH   7  11
ENDBRANCH   1   8
BRANCH   4  16
ATOM     16  C   UNK A   1       8.405   9.238  18.177  0.00  0.00    +0.000 C 
ATOM     17  C   UNK A   1       7.952   8.098  17.734  0.00  0.00    +0.000 C 
BRANCH  17  18
ATOM     18  C   UNK A   1       7.426   6.770  17.217  0.00  0.00    +0.000 C 
BRANCH  18  19
ATOM     19  O   UNK A   1       7.131   5.928  18.325  0.00  0.00    +0.000 OA
BRANCH  19  20
ATOM     20  C   UNK A   1       5.853   5.439  18.352  0.00  0.00    +0.000 A 
ATOM     21  C   UNK A   1       5.257   5.263  17.105  0.00  0.00    +0.000 A 
ATOM     22  C   UNK A   1       3.954   4.769  17.007  0.00  0.00    +0.000 A 
ATOM     23  C   UNK A   1       3.235   4.429  18.160  0.00  0.00    +0.000 A 
ATOM     24  C   UNK A   1       3.852   4.584  19.409  0.00  0.00    +0.000 A 
ATOM     25  C   UNK A   1       5.152   5.083  19.506  0.00  0.00    +0.000 A 
BRANCH  23  26
ATOM     26  C   UNK A   1       1.826   3.895  18.078  0.00  0.00    +0.000 C 
ATOM     27  F   UNK A   1       1.754   2.608  17.643  0.00  0.00    +0.000 F 
ATOM     28  F   UNK A   1       1.190   3.921  19.282  0.00  0.00    +0.000 F 
ATOM     29  F   UNK A   1       1.047   4.621  17.229  0.00  0.00    +0.000 F 
ENDBRANCH  23  26
ENDBRANCH  19  20
ENDBRANCH  18  19
ENDBRANCH  17  18
ENDBRANCH   4  16
BRANCH   6  30
ATOM     30  O   UNK A   1      10.231  11.999  21.710  0.00  0.00    +0.000 OA
ATOM     31  H   UNK A   1      10.277  12.933  21.967  0.00  0.00    +0.000 HD
ENDBRANCH   6  30
TORSDOF 10
ENDMDL
MODEL 4
REMARK VINA RESULT:      -7.4      7.134      8.073
REMARK  Name = 
REMARK  10 active torsions:
REMARK  status: ('A' for Active; 'I' for Inactive)
REMARK    1  A    between atoms: C_2  and  O_3
REMARK    2  A    between atoms: C_2  and  C_4
REMARK    3  A    between atoms: C_4  and  N_5
REMARK    4  A    between atoms: C_6  and  C_8
REMARK    5  A    between atoms: C_11  and  C_12
REMARK    6  A    between atoms: C_13  and  C_14
REMARK    7  A    between atoms: C_14  and  O_15
REMARK    8  A    between atoms: O_15  and  C_16
REMARK    9  A    between atoms: C_19  and  C_20
REMARK   10  A    between atoms: C_27  and  O_28
REMARK                            x       y       z     vdW  Elec       q    Type
REMARK                         _______ _______ _______ _____ _____    ______ ____
ROOT
ATOM      1  C   UNK A   1       9.718  12.368  18.945  0.00  0.00    +0.000 A 
ATOM      2  N   UNK A   1       8.887  12.291  17.858  0.00  0.00    +0.000 NA
ATOM      3  C   UNK A   0       8.341  11.070  17.597  0.00  0.00    +0.000 A 
ATOM      4  C   UNK A   1       8.583   9.917  18.340  0.00  0.00    +0.000 A 
ATOM      5  C   UNK A   1       9.440  10.022  19.434  0.00  0.00    +0.000 A 
ATOM      6  C   UNK A   1      10.013  11.259  19.749  0.00  0.00    +0.000 A 
ENDROOT
BRANCH   1   8
ATOM      7  N   UNK A   1       9.784  14.774  18.409  0.00  0.00    +0.000 N 
ATOM      8  C   UNK A   1      10.252  13.753  19.245  0.00  0.00    +0.000 C 
ATOM      9  O   UNK A   1      11.052  13.990  20.144  0.00  0.00    +0.000 OA
ATOM     10  H   UNK A   1       9.442  14.437  17.512  0.00  0.00    +0.000 HD
BRANCH   7  11
ATOM     11  C   UNK A   1      10.402  16.094  18.535  0.00  0.00    +0.000 C 
BRANCH  11  13
ATOM     12  O   UNK A   1      12.231  16.002  16.930  0.00  0.00    +0.000 OA
ATOM     13  C   UNK A   1      11.205  16.549  17.323  0.00  0.00    +0.000 C 
BRANCH  13  14
ATOM     14  O   UNK A   1      10.741  17.699  16.771  0.00  0.00    +0.000 OA
ATOM     15  H   UNK A   1       9.991  18.051  17.293  0.00  0.00    +0.000 HD
ENDBRANCH  13  14
ENDBRANCH  11  13
ENDBRANCH   7  11
ENDBRANCH   1   8
BRANCH   4  16
ATOM     16  C   UNK A   1       7.983   8.658  17.993  0.00  0.00    +0.000 C 
ATOM     17  C   UNK A   1       7.421   7.525  17.678  0.00  0.00    +0.000 C 
BRANCH  17  18
ATOM     18  C   UNK A   1       6.765   6.204  17.310  0.00  0.00    +0.000 C 
BRANCH  18  19
ATOM     19  O   UNK A   1       6.671   5.395  18.477  0.00  0.00    +0.000 OA
BRANCH  19  20
ATOM     20  C   UNK A   1       5.408   4.962  18.775  0.00  0.00    +0.000 A 
ATOM     21  C   UNK A   1       5.164   3.615  18.511  0.00  0.00    +0.000 A 
ATOM     22  C   UNK A   1       3.910   3.059  18.777  0.00  0.00    +0.000 A 
ATOM     23  C   UNK A   1       2.887   3.842  19.327  0.00  0.00    +0.000 A 
ATOM     24  C   UNK A   1       3.150   5.189  19.613  0.00  0.00    +0.000 A 
ATOM     25  C   UNK A   1       4.401   5.745  19.343  0.00  0.00    +0.000 A 
BRANCH  23  26
ATOM     26  C   UNK A   1       1.525   3.263  19.619  0.00  0.00    +0.000 C 
ATOM     27  F   UNK A   1       1.534   2.309  20.590  0.00  0.00    +0.000 F 
ATOM     28  F   UNK A   1       0.635   4.208  20.030  0.00  0.00    +0.000 F 
ATOM     29  F   UNK A   1       0.967   2.676  18.524  0.00  0.00    +0.000 F 
ENDBRANCH  23  26
ENDBRANCH  19  20
ENDBRANCH  18  19
ENDBRANCH  17  18
ENDBRANCH   4  16
BRANCH   6  30
ATOM     30  O   UNK A   1      10.845  11.344  20.827  0.00  0.00    +0.000 OA
ATOM     31  H   UNK A   1      10.764  10.556  21.389  0.00  0.00    +0.000 HD
ENDBRANCH   6  30
TORSDOF 10
ENDMDL
MODEL 5
REMARK VINA RESULT:      -7.4      4.391      9.670
REMARK  Name = 
REMARK  10 active torsions:
REMARK  status: ('A' for Active; 'I' for Inactive)
REMARK    1  A    between atoms: C_2  and  O_3
REMARK    2  A    between atoms: C_2  and  C_4
REMARK    3  A    between atoms: C_4  and  N_5
REMARK    4  A    between atoms: C_6  and  C_8
REMARK    5  A    between atoms: C_11  and  C_12
REMARK    6  A    between atoms: C_13  and  C_14
REMARK    7  A    between atoms: C_14  and  O_15
REMARK    8  A    between atoms: O_15  and  C_16
REMARK    9  A    between atoms: C_19  and  C_20
REMARK   10  A    between atoms: C_27  and  O_28
REMARK                            x       y       z     vdW  Elec       q    Type
REMARK                         _______ _______ _______ _____ _____    ______ ____
ROOT
ATOM      1  C   UNK A   1       5.283   5.338  15.990  0.00  0.00    +0.000 A 
ATOM      2  N   UNK A   1       5.022   6.673  16.152  0.00  0.00    +0.000 NA
ATOM      3  C   UNK A   0       4.214   7.011  17.197  0.00  0.00    +0.000 A 
ATOM      4  C   UNK A   1       3.636   6.101  18.079  0.00  0.00    +0.000 A 
ATOM      5  C   UNK A   1       3.910   4.749  17.884  0.00  0.00    +0.000 A 
ATOM      6  C   UNK A   1       4.746   4.357  16.833  0.00  0.00    +0.000 A 
ENDROOT
BRANCH   1   8
ATOM      7  N   UNK A   1       5.718   4.187  13.853  0.00  0.00    +0.000 N 
ATOM      8  C   UNK A   1       6.238   5.007  14.861  0.00  0.00    +0.000 C 
ATOM      9  O   UNK A   1       7.396   5.406  14.817  0.00  0.00    +0.000 OA
ATOM     10  H   UNK A   1       4.919   3.632  14.154  0.00  0.00    +0.000 HD
BRANCH   7  11
ATOM     11  C   UNK A   1       6.644   3.688  12.836  0.00  0.00    +0.000 C 
BRANCH  11  13
ATOM     12  O   UNK A   1       4.867   2.677  11.513  0.00  0.00    +0.000 OA
ATOM     13  C   UNK A   1       6.046   2.690  11.853  0.00  0.00    +0.000 C 
BRANCH  13  14
ATOM     14  O   UNK A   1       6.922   1.729  11.463  0.00  0.00    +0.000 OA
ATOM     15  H   UNK A   1       6.709   0.876  11.895  0.00  0.00    +0.000 HD
ENDBRANCH  13  14
ENDBRANCH  11  13
ENDBRANCH   7  11
ENDBRANCH   1   8
BRANCH   4  16
ATOM     16  C   UNK A   1       2.779   6.531  19.149  0.00  0.00    +0.000 C 
ATOM     17  C   UNK A   1       1.990   6.931  20.107  0.00  0.00    +0.000 C 
BRANCH  17  18
ATOM     18  C   UNK A   1       1.070   7.397  21.223  0.00  0.00    +0.000 C 
BRANCH  18  19
ATOM     19  O   UNK A   1       1.540   8.646  21.717  0.00  0.00    +0.000 OA
BRANCH  19  20
ATOM     20  C   UNK A   1       0.565   9.582  21.933  0.00  0.00    +0.000 A 
ATOM     21  C   UNK A   1       0.276  10.402  20.843  0.00  0.00    +0.000 A 
ATOM     22  C   UNK A   1      -0.703  11.394  20.945  0.00  0.00    +0.000 A 
ATOM     23  C   UNK A   1      -1.418  11.567  22.137  0.00  0.00    +0.000 A 
ATOM     24  C   UNK A   1      -1.138  10.720  23.219  0.00  0.00    +0.000 A 
ATOM     25  C   UNK A   1      -0.157   9.733  23.118  0.00  0.00    +0.000 A 
BRANCH  23  26
ATOM     26  C   UNK A   1      -2.477  12.633  22.270  0.00  0.00    +0.000 C 
ATOM     27  F   UNK A   1      -3.089  12.944  21.095  0.00  0.00    +0.000 F 
ATOM     28  F   UNK A   1      -3.472  12.273  23.128  0.00  0.00    +0.000 F 
ATOM     29  F   UNK A   1      -1.974  13.804  22.751  0.00  0.00    +0.000 F 
ENDBRANCH  23  26
ENDBRANCH  19  20
ENDBRANCH  18  19
ENDBRANCH  17  18
ENDBRANCH   4  16
BRANCH   6  30
ATOM     30  O   UNK A   1       5.008   3.028  16.660  0.00  0.00    +0.000 OA
ATOM     31  H   UNK A   1       5.664   2.894  15.957  0.00  0.00    +0.000 HD
ENDBRANCH   6  30
TORSDOF 10
ENDMDL
MODEL 6
REMARK VINA RESULT:      -7.4      7.722      8.328
REMARK  Name = 
REMARK  10 active torsions:
REMARK  status: ('A' for Active; 'I' for Inactive)
REMARK    1  A    between atoms: C_2  and  O_3
REMARK    2  A    between atoms: C_2  and  C_4
REMARK    3  A    between atoms: C_4  and  N_5
REMARK    4  A    between atoms: C_6  and  C_8
REMARK    5  A    between atoms: C_11  and  C_12
REMARK    6  A    between atoms: C_13  and  C_14
REMARK    7  A    between atoms: C_14  and  O_15
REMARK    8  A    between atoms: O_15  and  C_16
REMARK    9  A    between atoms: C_19  and  C_20
REMARK   10  A    between atoms: C_27  and  O_28
REMARK                            x       y       z     vdW  Elec       q    Type
REMARK                         _______ _______ _______ _____ _____    ______ ____
ROOT
ATOM      1  C   UNK A   1      10.372  13.067  19.591  0.00  0.00    +0.000 A 
ATOM      2  N   UNK A   1      10.310  12.009  20.458  0.00  0.00    +0.000 NA
ATOM      3  C   UNK A   0       9.739  10.867  19.982  0.00  0.00    +0.000 A 
ATOM      4  C   UNK A   1       9.211  10.717  18.702  0.00  0.00    +0.000 A 
ATOM      5  C   UNK A   1       9.278  11.814  17.844  0.00  0.00    +0.000 A 
ATOM      6  C   UNK A   1       9.868  13.003  18.285  0.00  0.00    +0.000 A 
ENDROOT
BRANCH   1   8
ATOM      7  N   UNK A   1      10.534  14.829  21.309  0.00  0.00    +0.000 N 
ATOM      8  C   UNK A   1      11.073  14.297  20.132  0.00  0.00    +0.000 C 
ATOM      9  O   UNK A   1      12.041  14.817  19.588  0.00  0.00    +0.000 OA
ATOM     10  H   UNK A   1       9.563  14.568  21.463  0.00  0.00    +0.000 HD
BRANCH   7  11
ATOM     11  C   UNK A   1      11.055  16.114  21.776  0.00  0.00    +0.000 C 
BRANCH  11  13
ATOM     12  O   UNK A   1      11.239  18.147  20.448  0.00  0.00    +0.000 OA
ATOM     13  C   UNK A   1      10.528  17.333  21.030  0.00  0.00    +0.000 C 
BRANCH  13  14
ATOM     14  O   UNK A   1       9.188  17.505  21.159  0.00  0.00    +0.000 OA
ATOM     15  H   UNK A   1       8.781  16.719  21.578  0.00  0.00    +0.000 HD
ENDBRANCH  13  14
ENDBRANCH  11  13
ENDBRANCH   7  11
ENDBRANCH   1   8
BRANCH   4  16
ATOM     16  C   UNK A   1       8.608   9.485  18.276  0.00  0.00    +0.000 C 
ATOM     17  C   UNK A   1       8.074   8.357  17.899  0.00  0.00    +0.000 C 
BRANCH  17  18
ATOM     18  C   UNK A   1       7.452   7.042  17.460  0.00  0.00    +0.000 C 
BRANCH  18  19
ATOM     19  O   UNK A   1       6.264   7.316  16.725  0.00  0.00    +0.000 OA
BRANCH  19  20
ATOM     20  C   UNK A   1       5.197   6.519  17.040  0.00  0.00    +0.000 A 
ATOM     21  C   UNK A   1       5.314   5.186  16.648  0.00  0.00    +0.000 A 
ATOM     22  C   UNK A   1       4.287   4.278  16.917  0.00  0.00    +0.000 A 
ATOM     23  C   UNK A   1       3.135   4.690  17.598  0.00  0.00    +0.000 A 
ATOM     24  C   UNK A   1       3.037   6.026  18.012  0.00  0.00    +0.000 A 
ATOM     25  C   UNK A   1       4.061   6.933  17.738  0.00  0.00    +0.000 A 
BRANCH  23  26
ATOM     26  C   UNK A   1       2.013   3.726  17.897  0.00  0.00    +0.000 C 
ATOM     27  F   UNK A   1       1.860   3.460  19.223  0.00  0.00    +0.000 F 
ATOM     28  F   UNK A   1       0.805   4.184  17.464  0.00  0.00    +0.000 F 
ATOM     29  F   UNK A   1       2.193   2.519  17.292  0.00  0.00    +0.000 F 
ENDBRANCH  23  26
ENDBRANCH  19  20
ENDBRANCH  18  19
ENDBRANCH  17  18
ENDBRANCH   4  16
BRANCH   6  30
ATOM     30  O   UNK A   1       9.930  14.065  17.430  0.00  0.00    +0.000 OA
ATOM     31  H   UNK A   1       9.987  13.763  16.509  0.00  0.00    +0.000 HD
ENDBRANCH   6  30
TORSDOF 10
ENDMDL
MODEL 7
REMARK VINA RESULT:      -7.4      0.775      1.344
REMARK  Name = 
REMARK  10 active torsions:
REMARK  status: ('A' for Active; 'I' for Inactive)
REMARK    1  A    between atoms: C_2  and  O_3
REMARK    2  A    between atoms: C_2  and  C_4
REMARK    3  A    between atoms: C_4  and  N_5
REMARK    4  A    between atoms: C_6  and  C_8
REMARK    5  A    between atoms: C_11  and  C_12
REMARK    6  A    between atoms: C_13  and  C_14
REMARK    7  A    between atoms: C_14  and  O_15
REMARK    8  A    between atoms: O_15  and  C_16
REMARK    9  A    between atoms: C_19  and  C_20
REMARK   10  A    between atoms: C_27  and  O_28
REMARK                            x       y       z     vdW  Elec       q    Type
REMARK                         _______ _______ _______ _____ _____    ______ ____
ROOT
ATOM      1  C   UNK A   1       0.827   9.633  19.225  0.00  0.00    +0.000 A 
ATOM      2  N   UNK A   1       1.305   9.917  17.973  0.00  0.00    +0.000 NA
ATOM      3  C   UNK A   0       2.256   9.075  17.480  0.00  0.00    +0.000 A 
ATOM      4  C   UNK A   1       2.774   7.977  18.163  0.00  0.00    +0.000 A 
ATOM      5  C   UNK A   1       2.278   7.717  19.440  0.00  0.00    +0.000 A 
ATOM      6  C   UNK A   1       1.290   8.547  19.980  0.00  0.00    +0.000 A 
ENDROOT
BRANCH   1   8
ATOM      7  N   UNK A   1       0.083  11.435  20.735  0.00  0.00    +0.000 N 
ATOM      8  C   UNK A   1      -0.276  10.550  19.712  0.00  0.00    +0.000 C 
ATOM      9  O   UNK A   1      -1.418  10.530  19.265  0.00  0.00    +0.000 OA
ATOM     10  H   UNK A   1       0.897  11.131  21.265  0.00  0.00    +0.000 HD
BRANCH   7  11
ATOM     11  C   UNK A   1      -0.982  12.214  21.366  0.00  0.00    +0.000 C 
BRANCH  11  13
ATOM     12  O   UNK A   1      -1.133  10.952  23.442  0.00  0.00    +0.000 OA
ATOM     13  C   UNK A   1      -1.104  12.039  22.874  0.00  0.00    +0.000 C 
BRANCH  13  14
ATOM     14  O   UNK A   1      -1.292  13.208  23.538  0.00  0.00    +0.000 OA
ATOM     15  H   UNK A   1      -2.012  13.725  23.122  0.00  0.00    +0.000 HD
ENDBRANCH  13  14
ENDBRANCH  11  13
ENDBRANCH   7  11
ENDBRANCH   1   8
BRANCH   4  16
ATOM     16  C   UNK A   1       3.791   7.142  17.585  0.00  0.00    +0.000 C 
ATOM     17  C   UNK A   1       4.705   6.387  17.043  0.00  0.00    +0.000 C 
BRANCH  17  18
ATOM     18  C   UNK A   1       5.770   5.506  16.411  0.00  0.00    +0.000 C 
BRANCH  18  19
ATOM     19  O   UNK A   1       5.782   4.248  17.075  0.00  0.00    +0.000 OA
BRANCH  19  20
ATOM     20  C   UNK A   1       4.615   3.923  17.712  0.00  0.00    +0.000 A 
ATOM     21  C   UNK A   1       4.642   4.041  19.100  0.00  0.00    +0.000 A 
ATOM     22  C   UNK A   1       3.508   3.738  19.858  0.00  0.00    +0.000 A 
ATOM     23  C   UNK A   1       2.324   3.327  19.232  0.00  0.00    +0.000 A 
ATOM     24  C   UNK A   1       2.299   3.236  17.833  0.00  0.00    +0.000 A 
ATOM     25  C   UNK A   1       3.433   3.534  17.078  0.00  0.00    +0.000 A 
BRANCH  23  26
ATOM     26  C   UNK A   1       1.089   2.992  20.030  0.00  0.00    +0.000 C 
ATOM     27  F   UNK A   1       0.114   2.384  19.300  0.00  0.00    +0.000 F 
ATOM     28  F   UNK A   1       1.353   2.156  21.072  0.00  0.00    +0.000 F 
ATOM     29  F   UNK A   1       0.511   4.098  20.576  0.00  0.00    +0.000 F 
ENDBRANCH  23  26
ENDBRANCH  19  20
ENDBRANCH  18  19
ENDBRANCH  17  18
ENDBRANCH   4  16
BRANCH   6  30
ATOM     30  O   UNK A   1       0.812   8.275  21.229  0.00  0.00    +0.000 OA
ATOM     31  H   UNK A   1       0.996   9.009  21.837  0.00  0.00    +0.000 HD
ENDBRANCH   6  30
TORSDOF 10
ENDMDL
MODEL 8
REMARK VINA RESULT:      -7.3      1.415      1.956
REMARK  Name = 
REMARK  10 active torsions:
REMARK  status: ('A' for Active; 'I' for Inactive)
REMARK    1  A    between atoms: C_2  and  O_3
REMARK    2  A    between atoms: C_2  and  C_4
REMARK    3  A    between atoms: C_4  and  N_5
REMARK    4  A    between atoms: C_6  and  C_8
REMARK    5  A    between atoms: C_11  and  C_12
REMARK    6  A    between atoms: C_13  and  C_14
REMARK    7  A    between atoms: C_14  and  O_15
REMARK    8  A    between atoms: O_15  and  C_16
REMARK    9  A    between atoms: C_19  and  C_20
REMARK   10  A    between atoms: C_27  and  O_28
REMARK                            x       y       z     vdW  Elec       q    Type
REMARK                         _______ _______ _______ _____ _____    ______ ____
ROOT
ATOM      1  C   UNK A   1       0.950   9.500  19.536  0.00  0.00    +0.000 A 
ATOM      2  N   UNK A   1       1.371   9.863  18.284  0.00  0.00    +0.000 NA
ATOM      3  C   UNK A   0       2.270   9.034  17.682  0.00  0.00    +0.000 A 
ATOM      4  C   UNK A   1       2.789   7.876  18.255  0.00  0.00    +0.000 A 
ATOM      5  C   UNK A   1       2.351   7.536  19.534  0.00  0.00    +0.000 A 
ATOM      6  C   UNK A   1       1.418   8.350  20.185  0.00  0.00    +0.000 A 
ENDROOT
BRANCH   1   8
ATOM      7  N   UNK A   1      -0.942  11.052  19.234  0.00  0.00    +0.000 N 
ATOM      8  C   UNK A   1      -0.098  10.409  20.146  0.00  0.00    +0.000 C 
ATOM      9  O   UNK A   1      -0.211  10.595  21.352  0.00  0.00    +0.000 OA
ATOM     10  H   UNK A   1      -0.548  11.124  18.298  0.00  0.00    +0.000 HD
BRANCH   7  11
ATOM     11  C   UNK A   1      -1.851  12.075  19.752  0.00  0.00    +0.000 C 
BRANCH  11  13
ATOM     12  O   UNK A   1      -0.246  13.816  19.186  0.00  0.00    +0.000 OA
ATOM     13  C   UNK A   1      -1.349  13.507  19.627  0.00  0.00    +0.000 C 
BRANCH  13  14
ATOM     14  O   UNK A   1      -2.199  14.424  20.156  0.00  0.00    +0.000 OA
ATOM     15  H   UNK A   1      -2.178  15.251  19.633  0.00  0.00    +0.000 HD
ENDBRANCH  13  14
ENDBRANCH  11  13
ENDBRANCH   7  11
ENDBRANCH   1   8
BRANCH   4  16
ATOM     16  C   UNK A   1       3.748   7.059  17.565  0.00  0.00    +0.000 C 
ATOM     17  C   UNK A   1       4.630   6.317  16.954  0.00  0.00    +0.000 C 
BRANCH  17  18
ATOM     18  C   UNK A   1       5.659   5.454  16.244  0.00  0.00    +0.000 C 
BRANCH  18  19
ATOM     19  O   UNK A   1       5.500   4.104  16.668  0.00  0.00    +0.000 OA
BRANCH  19  20
ATOM     20  C   UNK A   1       4.484   3.899  17.561  0.00  0.00    +0.000 A 
ATOM     21  C   UNK A   1       3.237   3.643  16.995  0.00  0.00    +0.000 A 
ATOM     22  C   UNK A   1       2.124   3.416  17.809  0.00  0.00    +0.000 A 
ATOM     23  C   UNK A   1       2.250   3.426  19.204  0.00  0.00    +0.000 A 
ATOM     24  C   UNK A   1       3.514   3.659  19.764  0.00  0.00    +0.000 A 
ATOM     25  C   UNK A   1       4.624   3.890  18.951  0.00  0.00    +0.000 A 
BRANCH  23  26
ATOM     26  C   UNK A   1       1.062   3.186  20.102  0.00  0.00    +0.000 C 
ATOM     27  F   UNK A   1       0.497   4.329  20.578  0.00  0.00    +0.000 F 
ATOM     28  F   UNK A   1       0.063   2.508  19.473  0.00  0.00    +0.000 F 
ATOM     29  F   UNK A   1       1.384   2.444  21.198  0.00  0.00    +0.000 F 
ENDBRANCH  23  26
ENDBRANCH  19  20
ENDBRANCH  18  19
ENDBRANCH  17  18
ENDBRANCH   4  16
BRANCH   6  30
ATOM     30  O   UNK A   1       0.997   8.000  21.435  0.00  0.00    +0.000 OA
ATOM     31  H   UNK A   1       0.029   7.935  21.468  0.00  0.00    +0.000 HD
ENDBRANCH   6  30
TORSDOF 10
ENDMDL
MODEL 9
REMARK VINA RESULT:      -7.3      3.537      4.806
REMARK  Name = 
REMARK  10 active torsions:
REMARK  status: ('A' for Active; 'I' for Inactive)
REMARK    1  A    between atoms: C_2  and  O_3
REMARK    2  A    between atoms: C_2  and  C_4
REMARK    3  A    between atoms: C_4  and  N_5
REMARK    4  A    between atoms: C_6  and  C_8
REMARK    5  A    between atoms: C_11  and  C_12
REMARK    6  A    between atoms: C_13  and  C_14
REMARK    7  A    between atoms: C_14  and  O_15
REMARK    8  A    between atoms: O_15  and  C_16
REMARK    9  A    between atoms: C_19  and  C_20
REMARK   10  A    between atoms: C_27  and  O_28
REMARK                            x       y       z     vdW  Elec       q    Type
REMARK                         _______ _______ _______ _____ _____    ______ ____
ROOT
ATOM      1  C   UNK A   1       1.060   9.995  19.478  0.00  0.00    +0.000 A 
ATOM      2  N   UNK A   1       0.704   9.576  20.733  0.00  0.00    +0.000 NA
ATOM      3  C   UNK A   0       1.005   8.285  21.050  0.00  0.00    +0.000 A 
ATOM      4  C   UNK A   1       1.622   7.380  20.190  0.00  0.00    +0.000 A 
ATOM      5  C   UNK A   1       1.964   7.830  18.915  0.00  0.00    +0.000 A 
ATOM      6  C   UNK A   1       1.688   9.152  18.551  0.00  0.00    +0.000 A 
ENDROOT
BRANCH   1   8
ATOM      7  N   UNK A   1       1.864  12.207  18.741  0.00  0.00    +0.000 N 
ATOM      8  C   UNK A   1       0.772  11.453  19.185  0.00  0.00    +0.000 C 
ATOM      9  O   UNK A   1      -0.332  11.966  19.332  0.00  0.00    +0.000 OA
ATOM     10  H   UNK A   1       2.764  11.807  19.000  0.00  0.00    +0.000 HD
BRANCH   7  11
ATOM     11  C   UNK A   1       1.688  13.654  18.617  0.00  0.00    +0.000 C 
BRANCH  11  13
ATOM     12  O   UNK A   1       3.038  15.649  18.261  0.00  0.00    +0.000 OA
ATOM     13  C   UNK A   1       2.942  14.426  18.227  0.00  0.00    +0.000 C 
BRANCH  13  14
ATOM     14  O   UNK A   1       3.925  13.636  17.726  0.00  0.00    +0.000 OA
ATOM     15  H   UNK A   1       3.609  13.160  16.931  0.00  0.00    +0.000 HD
ENDBRANCH  13  14
ENDBRANCH  11  13
ENDBRANCH   7  11
ENDBRANCH   1   8
BRANCH   4  16
ATOM     16  C   UNK A   1       1.893   6.026  20.589  0.00  0.00    +0.000 C 
ATOM     17  C   UNK A   1       2.157   4.803  20.954  0.00  0.00    +0.000 C 
BRANCH  17  18
ATOM     18  C   UNK A   1       2.466   3.377  21.379  0.00  0.00    +0.000 C 
BRANCH  18  19
ATOM     19  O   UNK A   1       2.537   2.555  20.220  0.00  0.00    +0.000 OA
BRANCH  19  20
ATOM     20  C   UNK A   1       3.143   3.137  19.139  0.00  0.00    +0.000 A 
ATOM     21  C   UNK A   1       4.481   3.481  19.321  0.00  0.00    +0.000 A 
ATOM     22  C   UNK A   1       5.204   4.081  18.287  0.00  0.00    +0.000 A 
ATOM     23  C   UNK A   1       4.599   4.329  17.048  0.00  0.00    +0.000 A 
ATOM     24  C   UNK A   1       3.260   3.955  16.866  0.00  0.00    +0.000 A 
ATOM     25  C   UNK A   1       2.537   3.361  17.901  0.00  0.00    +0.000 A 
BRANCH  23  26
ATOM     26  C   UNK A   1       5.360   4.977  15.918  0.00  0.00    +0.000 C 
ATOM     27  F   UNK A   1       5.050   6.290  15.733  0.00  0.00    +0.000 F 
ATOM     28  F   UNK A   1       6.708   4.932  16.105  0.00  0.00    +0.000 F 
ATOM     29  F   UNK A   1       5.128   4.367  14.722  0.00  0.00    +0.000 F 
ENDBRANCH  23  26
ENDBRANCH  19  20
ENDBRANCH  18  19
ENDBRANCH  17  18
ENDBRANCH   4  16
BRANCH   6  30
ATOM     30  O   UNK A   1       2.034   9.577  17.301  0.00  0.00    +0.000 OA
ATOM     31  H   UNK A   1       1.983   8.848  16.662  0.00  0.00    +0.000 HD
ENDBRANCH   6  30
TORSDOF 10
ENDMDL
