MODEL 1
REMARK VINA RESULT:      -7.5      0.000      0.000
REMARK  Name = 
REMARK  10 active torsions:
REMARK  status: ('A' for Active; 'I' for Inactive)
REMARK    1  A    between atoms: C_1  and  N_2
REMARK    2  A    between atoms: N_5  and  C_6
REMARK    3  A    between atoms: C_6  and  C_7
REMARK    4  A    between atoms: C_10  and  N_11
REMARK    5  A    between atoms: C_12  and  C_14
REMARK    6  A    between atoms: C_17  and  O_18
REMARK    7  A    between atoms: O_18  and  C_19
REMARK    8  A    between atoms: C_19  and  C_20
REMARK    9  A    between atoms: C_20  and  C_21
REMARK   10  A    between atoms: C_27  and  C_28
REMARK                            x       y       z     vdW  Elec       q    Type
REMARK                         _______ _______ _______ _____ _____    ______ ____
ROOT
ATOM      1  C   UNL     1      -1.008  11.623  18.976  0.00  0.00    +0.000 A 
ATOM      2  C   UNL     1       0.319  11.723  19.430  0.00  0.00    +0.000 A 
ATOM      3  C   UNL     1       1.295  10.788  19.064  0.00  0.00    +0.000 A 
ATOM      4  C   UNL     1       0.975   9.689  18.276  0.00  0.00    +0.000 A 
ATOM      5  C   UNL     1      -0.341   9.573  17.821  0.00  0.00    +0.000 A 
ATOM      6  C   UNL     1      -1.325  10.561  18.103  0.00  0.00    +0.000 A 
ENDROOT
BRANCH   4   7
ATOM      7  N   UNL     1       1.911   8.707  17.864  0.00  0.00    +0.000 N 
ATOM      8  C   UNL     1       2.422   7.690  18.649  0.00  0.00    +0.000 C 
ATOM      9  O   UNL     1       2.092   7.432  19.807  0.00  0.00    +0.000 OA
ATOM     10  H   UNL     1       2.215   8.759  16.901  0.00  0.00    +0.000 HD
BRANCH   8  11
ATOM     11  C   UNL     1       3.464   6.819  18.047  0.00  0.00    +0.000 A 
ATOM     12  C   UNL     1       4.296   7.377  17.063  0.00  0.00    +0.000 A 
ATOM     13  C   UNL     1       5.228   6.594  16.385  0.00  0.00    +0.000 A 
ATOM     14  C   UNL     1       5.345   5.235  16.669  0.00  0.00    +0.000 A 
ATOM     15  C   UNL     1       4.514   4.684  17.653  0.00  0.00    +0.000 A 
ATOM     16  F   UNL     1       4.570   3.379  17.965  0.00  0.00    +0.000 F 
ATOM     17  C   UNL     1       3.579   5.458  18.340  0.00  0.00    +0.000 A 
BRANCH  14  18
ATOM     18  O   UNL     1       6.284   4.584  15.911  0.00  0.00    +0.000 OA
BRANCH  18  19
ATOM     19  C   UNL     1       6.222   4.801  14.501  0.00  0.00    +0.000 C 
BRANCH  19  20
ATOM     20  C   UNL     1       5.751   3.518  13.825  0.00  0.00    +0.000 C 
BRANCH  20  21
ATOM     21  C   UNL     1       5.952   3.629  12.323  0.00  0.00    +0.000 C 
ATOM     22 CL   UNL     1       4.430   3.334  11.457  0.00  0.00    +0.000 Cl
ENDBRANCH  20  21
ENDBRANCH  19  20
ENDBRANCH  18  19
ENDBRANCH  14  18
ENDBRANCH   8  11
ENDBRANCH   4   7
BRANCH   6  23
ATOM     23  C   UNL     1      -2.630  10.437  17.344  0.00  0.00    +0.000 C 
ATOM     24  F   UNL     1      -3.752  10.277  18.089  0.00  0.00    +0.000 F 
ATOM     25  F   UNL     1      -2.860  11.577  16.616  0.00  0.00    +0.000 F 
ATOM     26  F   UNL     1      -2.618   9.432  16.426  0.00  0.00    +0.000 F 
ENDBRANCH   6  23
BRANCH   1  27
ATOM     27  C   UNL     1      -1.992  12.693  19.426  0.00  0.00    +0.000 C 
BRANCH  27  32
ATOM     28  C   UNL     1      -3.640  16.190  22.292  0.00  0.00    +0.000 C 
ATOM     29  N   UNL     1      -3.697  14.746  22.066  0.00  0.00    +0.000 NA
ATOM     30  C   UNL     1      -2.366  14.135  22.225  0.00  0.00    +0.000 C 
ATOM     31  C   UNL     1      -2.350  12.627  21.873  0.00  0.00    +0.000 C 
ATOM     32  N   UNL     1      -2.875  12.283  20.531  0.00  0.00    +0.000 NA
ATOM     33  C   UNL     1      -4.211  12.922  20.404  0.00  0.00    +0.000 C 
ATOM     34  C   UNL     1      -4.259  14.437  20.740  0.00  0.00    +0.000 C 
ENDBRANCH  27  32
ENDBRANCH   1  27
TORSDOF 9
ENDMDL
MODEL 2
REMARK VINA RESULT:      -7.5      1.400      1.783
REMARK  Name = 
REMARK  10 active torsions:
REMARK  status: ('A' for Active; 'I' for Inactive)
REMARK    1  A    between atoms: C_1  and  N_2
REMARK    2  A    between atoms: N_5  and  C_6
REMARK    3  A    between atoms: C_6  and  C_7
REMARK    4  A    between atoms: C_10  and  N_11
REMARK    5  A    between atoms: C_12  and  C_14
REMARK    6  A    between atoms: C_17  and  O_18
REMARK    7  A    between atoms: O_18  and  C_19
REMARK    8  A    between atoms: C_19  and  C_20
REMARK    9  A    between atoms: C_20  and  C_21
REMARK   10  A    between atoms: C_27  and  C_28
REMARK                            x       y       z     vdW  Elec       q    Type
REMARK                         _______ _______ _______ _____ _____    ______ ____
ROOT
ATOM      1  C   UNL     1       0.189  12.353  18.701  0.00  0.00    +0.000 A 
ATOM      2  C   UNL     1       1.588  12.331  18.573  0.00  0.00    +0.000 A 
ATOM      3  C   UNL     1       2.277  11.164  18.220  0.00  0.00    +0.000 A 
ATOM      4  C   UNL     1       1.603   9.963  18.033  0.00  0.00    +0.000 A 
ATOM      5  C   UNL     1       0.211   9.969  18.161  0.00  0.00    +0.000 A 
ATOM      6  C   UNL     1      -0.516  11.162  18.427  0.00  0.00    +0.000 A 
ENDROOT
BRANCH   4   7
ATOM      7  N   UNL     1       2.233   8.746  17.671  0.00  0.00    +0.000 N 
ATOM      8  C   UNL     1       2.483   7.678  18.512  0.00  0.00    +0.000 C 
ATOM      9  O   UNL     1       2.135   7.584  19.689  0.00  0.00    +0.000 OA
ATOM     10  H   UNL     1       2.508   8.659  16.701  0.00  0.00    +0.000 HD
BRANCH   8  11
ATOM     11  C   UNL     1       3.239   6.528  17.951  0.00  0.00    +0.000 A 
ATOM     12  C   UNL     1       4.504   6.782  17.399  0.00  0.00    +0.000 A 
ATOM     13  C   UNL     1       5.226   5.771  16.768  0.00  0.00    +0.000 A 
ATOM     14  C   UNL     1       4.697   4.486  16.667  0.00  0.00    +0.000 A 
ATOM     15  C   UNL     1       3.436   4.238  17.222  0.00  0.00    +0.000 A 
ATOM     16  F   UNL     1       2.866   3.024  17.149  0.00  0.00    +0.000 F 
ATOM     17  C   UNL     1       2.704   5.240  17.859  0.00  0.00    +0.000 A 
BRANCH  14  18
ATOM     18  O   UNL     1       5.504   3.600  16.000  0.00  0.00    +0.000 OA
BRANCH  18  19
ATOM     19  C   UNL     1       6.187   4.104  14.852  0.00  0.00    +0.000 C 
BRANCH  19  20
ATOM     20  C   UNL     1       5.329   3.850  13.618  0.00  0.00    +0.000 C 
BRANCH  20  21
ATOM     21  C   UNL     1       6.220   3.461  12.449  0.00  0.00    +0.000 C 
ATOM     22 CL   UNL     1       5.492   2.140  11.511  0.00  0.00    +0.000 Cl
ENDBRANCH  20  21
ENDBRANCH  19  20
ENDBRANCH  18  19
ENDBRANCH  14  18
ENDBRANCH   8  11
ENDBRANCH   4   7
BRANCH   6  23
ATOM     23  C   UNL     1      -2.021  11.070  18.291  0.00  0.00    +0.000 C 
ATOM     24  F   UNL     1      -2.585  11.800  17.296  0.00  0.00    +0.000 F 
ATOM     25  F   UNL     1      -2.391   9.776  18.020  0.00  0.00    +0.000 F 
ATOM     26  F   UNL     1      -2.680  11.390  19.438  0.00  0.00    +0.000 F 
ENDBRANCH   6  23
BRANCH   1  27
ATOM     27  C   UNL     1      -0.466  13.674  19.083  0.00  0.00    +0.000 C 
BRANCH  27  32
ATOM     28  C   UNL     1      -3.931  15.364  21.963  0.00  0.00    +0.000 C 
ATOM     29  N   UNL     1      -2.487  15.142  21.885  0.00  0.00    +0.000 NA
ATOM     30  C   UNL     1      -1.891  15.931  20.793  0.00  0.00    +0.000 C 
ATOM     31  C   UNL     1      -0.385  15.636  20.588  0.00  0.00    +0.000 C 
ATOM     32  N   UNL     1      -0.040  14.210  20.388  0.00  0.00    +0.000 NA
ATOM     33  C   UNL     1      -0.663  13.445  21.499  0.00  0.00    +0.000 C 
ATOM     34  C   UNL     1      -2.176  13.711  21.725  0.00  0.00    +0.000 C 
ENDBRANCH  27  32
ENDBRANCH   1  27
TORSDOF 9
ENDMDL
MODEL 3
REMARK VINA RESULT:      -7.3      2.349      2.824
REMARK  Name = 
REMARK  10 active torsions:
REMARK  status: ('A' for Active; 'I' for Inactive)
REMARK    1  A    between atoms: C_1  and  N_2
REMARK    2  A    between atoms: N_5  and  C_6
REMARK    3  A    between atoms: C_6  and  C_7
REMARK    4  A    between atoms: C_10  and  N_11
REMARK    5  A    between atoms: C_12  and  C_14
REMARK    6  A    between atoms: C_17  and  O_18
REMARK    7  A    between atoms: O_18  and  C_19
REMARK    8  A    between atoms: C_19  and  C_20
REMARK    9  A    between atoms: C_20  and  C_21
REMARK   10  A    between atoms: C_27  and  C_28
REMARK                            x       y       z     vdW  Elec       q    Type
REMARK                         _______ _______ _______ _____ _____    ______ ____
ROOT
ATOM      1  C   UNL     1      -0.418  10.660  20.123  0.00  0.00    +0.000 A 
ATOM      2  C   UNL     1      -0.263  10.661  18.726  0.00  0.00    +0.000 A 
ATOM      3  C   UNL     1       0.644   9.808  18.086  0.00  0.00    +0.000 A 
ATOM      4  C   UNL     1       1.468   8.960  18.815  0.00  0.00    +0.000 A 
ATOM      5  C   UNL     1       1.329   8.951  20.205  0.00  0.00    +0.000 A 
ATOM      6  C   UNL     1       0.350   9.741  20.869  0.00  0.00    +0.000 A 
ENDROOT
BRANCH   4   7
ATOM      7  N   UNL     1       2.404   8.068  18.234  0.00  0.00    +0.000 N 
ATOM      8  C   UNL     1       2.719   6.804  18.698  0.00  0.00    +0.000 C 
ATOM      9  O   UNL     1       2.186   6.225  19.645  0.00  0.00    +0.000 OA
ATOM     10  H   UNL     1       2.868   8.393  17.396  0.00  0.00    +0.000 HD
BRANCH   8  11
ATOM     11  C   UNL     1       3.798   6.066  17.992  0.00  0.00    +0.000 A 
ATOM     12  C   UNL     1       4.844   6.814  17.430  0.00  0.00    +0.000 A 
ATOM     13  C   UNL     1       5.837   6.198  16.669  0.00  0.00    +0.000 A 
ATOM     14  C   UNL     1       5.801   4.823  16.447  0.00  0.00    +0.000 A 
ATOM     15  C   UNL     1       4.757   4.082  17.012  0.00  0.00    +0.000 A 
ATOM     16  F   UNL     1       4.660   2.755  16.826  0.00  0.00    +0.000 F 
ATOM     17  C   UNL     1       3.759   4.686  17.777  0.00  0.00    +0.000 A 
BRANCH  14  18
ATOM     18  O   UNL     1       6.825   4.357  15.662  0.00  0.00    +0.000 OA
BRANCH  18  19
ATOM     19  C   UNL     1       6.745   4.660  14.269  0.00  0.00    +0.000 C 
BRANCH  19  20
ATOM     20  C   UNL     1       5.627   3.831  13.648  0.00  0.00    +0.000 C 
BRANCH  20  21
ATOM     21  C   UNL     1       6.058   3.340  12.277  0.00  0.00    +0.000 C 
ATOM     22 CL   UNL     1       7.430   4.288  11.667  0.00  0.00    +0.000 Cl
ENDBRANCH  20  21
ENDBRANCH  19  20
ENDBRANCH  18  19
ENDBRANCH  14  18
ENDBRANCH   8  11
ENDBRANCH   4   7
BRANCH   6  23
ATOM     23  C   UNL     1       0.142   9.447  22.340  0.00  0.00    +0.000 C 
ATOM     24  F   UNL     1      -0.822   8.543  22.646  0.00  0.00    +0.000 F 
ATOM     25  F   UNL     1       1.288   8.923  22.882  0.00  0.00    +0.000 F 
ATOM     26  F   UNL     1      -0.115  10.564  23.075  0.00  0.00    +0.000 F 
ENDBRANCH   6  23
BRANCH   1  27
ATOM     27  C   UNL     1      -1.435  11.622  20.723  0.00  0.00    +0.000 C 
BRANCH  27  32
ATOM     28  C   UNL     1      -4.827  14.596  22.399  0.00  0.00    +0.000 C 
ATOM     29  N   UNL     1      -4.078  14.246  21.192  0.00  0.00    +0.000 NA
ATOM     30  C   UNL     1      -4.355  12.857  20.785  0.00  0.00    +0.000 C 
ATOM     31  C   UNL     1      -3.490  12.397  19.585  0.00  0.00    +0.000 C 
ATOM     32  N   UNL     1      -2.028  12.562  19.756  0.00  0.00    +0.000 NA
ATOM     33  C   UNL     1      -1.790  13.968  20.174  0.00  0.00    +0.000 C 
ATOM     34  C   UNL     1      -2.633  14.457  21.382  0.00  0.00    +0.000 C 
ENDBRANCH  27  32
ENDBRANCH   1  27
TORSDOF 9
ENDMDL
MODEL 4
REMARK VINA RESULT:      -7.3      2.469      2.925
REMARK  Name = 
REMARK  10 active torsions:
REMARK  status: ('A' for Active; 'I' for Inactive)
REMARK    1  A    between atoms: C_1  and  N_2
REMARK    2  A    between atoms: N_5  and  C_6
REMARK    3  A    between atoms: C_6  and  C_7
REMARK    4  A    between atoms: C_10  and  N_11
REMARK    5  A    between atoms: C_12  and  C_14
REMARK    6  A    between atoms: C_17  and  O_18
REMARK    7  A    between atoms: O_18  and  C_19
REMARK    8  A    between atoms: C_19  and  C_20
REMARK    9  A    between atoms: C_20  and  C_21
REMARK   10  A    between atoms: C_27  and  C_28
REMARK                            x       y       z     vdW  Elec       q    Type
REMARK                         _______ _______ _______ _____ _____    ______ ____
ROOT
ATOM      1  C   UNL     1      -0.103  11.127  20.513  0.00  0.00    +0.000 A 
ATOM      2  C   UNL     1       0.304  11.323  19.182  0.00  0.00    +0.000 A 
ATOM      3  C   UNL     1       1.047  10.358  18.490  0.00  0.00    +0.000 A 
ATOM      4  C   UNL     1       1.457   9.186  19.113  0.00  0.00    +0.000 A 
ATOM      5  C   UNL     1       1.063   8.979  20.437  0.00  0.00    +0.000 A 
ATOM      6  C   UNL     1       0.231   9.902  21.129  0.00  0.00    +0.000 A 
ENDROOT
BRANCH   4   7
ATOM      7  N   UNL     1       2.204   8.165  18.473  0.00  0.00    +0.000 N 
ATOM      8  C   UNL     1       2.506   6.924  19.003  0.00  0.00    +0.000 C 
ATOM      9  O   UNL     1       2.113   6.482  20.083  0.00  0.00    +0.000 OA
ATOM     10  H   UNL     1       2.531   8.372  17.538  0.00  0.00    +0.000 HD
BRANCH   8  11
ATOM     11  C   UNL     1       3.382   6.032  18.200  0.00  0.00    +0.000 A 
ATOM     12  C   UNL     1       4.296   6.632  17.319  0.00  0.00    +0.000 A 
ATOM     13  C   UNL     1       5.080   5.859  16.464  0.00  0.00    +0.000 A 
ATOM     14  C   UNL     1       4.961   4.470  16.464  0.00  0.00    +0.000 A 
ATOM     15  C   UNL     1       4.050   3.878  17.347  0.00  0.00    +0.000 A 
ATOM     16  F   UNL     1       3.881   2.546  17.388  0.00  0.00    +0.000 F 
ATOM     17  C   UNL     1       3.262   4.641  18.210  0.00  0.00    +0.000 A 
BRANCH  14  18
ATOM     18  O   UNL     1       5.773   3.840  15.556  0.00  0.00    +0.000 OA
BRANCH  18  19
ATOM     19  C   UNL     1       5.551   4.154  14.181  0.00  0.00    +0.000 C 
BRANCH  19  20
ATOM     20  C   UNL     1       6.894   4.433  13.517  0.00  0.00    +0.000 C 
BRANCH  20  21
ATOM     21  C   UNL     1       6.898   3.853  12.112  0.00  0.00    +0.000 C 
ATOM     22 CL   UNL     1       5.452   2.859  11.834  0.00  0.00    +0.000 Cl
ENDBRANCH  20  21
ENDBRANCH  19  20
ENDBRANCH  18  19
ENDBRANCH  14  18
ENDBRANCH   8  11
ENDBRANCH   4   7
BRANCH   6  23
ATOM     23  C   UNL     1      -0.320   9.435  22.460  0.00  0.00    +0.000 C 
ATOM     24  F   UNL     1      -1.289  10.204  23.018  0.00  0.00    +0.000 F 
ATOM     25  F   UNL     1      -0.901   8.199  22.321  0.00  0.00    +0.000 F 
ATOM     26  F   UNL     1       0.644   9.265  23.405  0.00  0.00    +0.000 F 
ENDBRANCH   6  23
BRANCH   1  27
ATOM     27  C   UNL     1      -0.912  12.233  21.176  0.00  0.00    +0.000 C 
BRANCH  27  32
ATOM     28  C   UNL     1      -2.092  16.870  21.688  0.00  0.00    +0.000 C 
ATOM     29  N   UNL     1      -1.215  15.826  22.218  0.00  0.00    +0.000 NA
ATOM     30  C   UNL     1      -0.287  15.342  21.182  0.00  0.00    +0.000 C 
ATOM     31  C   UNL     1       0.578  14.149  21.659  0.00  0.00    +0.000 C 
ATOM     32  N   UNL     1      -0.176  12.995  22.200  0.00  0.00    +0.000 NA
ATOM     33  C   UNL     1      -1.105  13.522  23.233  0.00  0.00    +0.000 C 
ATOM     34  C   UNL     1      -1.995  14.713  22.784  0.00  0.00    +0.000 C 
ENDBRANCH  27  32
ENDBRANCH   1  27
TORSDOF 9
ENDMDL
MODEL 5
REMARK VINA RESULT:      -7.3      2.871      3.528
REMARK  Name = 
REMARK  10 active torsions:
REMARK  status: ('A' for Active; 'I' for Inactive)
REMARK    1  A    between atoms: C_1  and  N_2
REMARK    2  A    between atoms: N_5  and  C_6
REMARK    3  A    between atoms: C_6  and  C_7
REMARK    4  A    between atoms: C_10  and  N_11
REMARK    5  A    between atoms: C_12  and  C_14
REMARK    6  A    between atoms: C_17  and  O_18
REMARK    7  A    between atoms: O_18  and  C_19
REMARK    8  A    between atoms: C_19  and  C_20
REMARK    9  A    between atoms: C_20  and  C_21
REMARK   10  A    between atoms: C_27  and  C_28
REMARK                            x       y       z     vdW  Elec       q    Type
REMARK                         _______ _______ _______ _____ _____    ______ ____
ROOT
ATOM      1  C   UNL     1      -1.559  11.816  22.095  0.00  0.00    +0.000 A 
ATOM      2  C   UNL     1      -0.856  10.935  22.935  0.00  0.00    +0.000 A 
ATOM      3  C   UNL     1       0.014   9.965  22.422  0.00  0.00    +0.000 A 
ATOM      4  C   UNL     1       0.178   9.802  21.052  0.00  0.00    +0.000 A 
ATOM      5  C   UNL     1      -0.517  10.668  20.204  0.00  0.00    +0.000 A 
ATOM      6  C   UNL     1      -1.334  11.719  20.706  0.00  0.00    +0.000 A 
ENDROOT
BRANCH   4   7
ATOM      7  N   UNL     1       1.045   8.847  20.463  0.00  0.00    +0.000 N 
ATOM      8  C   UNL     1       1.614   8.931  19.205  0.00  0.00    +0.000 C 
ATOM      9  O   UNL     1       1.518   9.881  18.428  0.00  0.00    +0.000 OA
ATOM     10  H   UNL     1       1.269   8.041  21.030  0.00  0.00    +0.000 HD
BRANCH   8  11
ATOM     11  C   UNL     1       2.423   7.775  18.742  0.00  0.00    +0.000 A 
ATOM     12  C   UNL     1       2.485   6.645  19.573  0.00  0.00    +0.000 A 
ATOM     13  C   UNL     1       3.302   5.563  19.250  0.00  0.00    +0.000 A 
ATOM     14  C   UNL     1       4.082   5.590  18.095  0.00  0.00    +0.000 A 
ATOM     15  C   UNL     1       4.014   6.719  17.270  0.00  0.00    +0.000 A 
ATOM     16  F   UNL     1       4.749   6.811  16.149  0.00  0.00    +0.000 F 
ATOM     17  C   UNL     1       3.198   7.807  17.581  0.00  0.00    +0.000 A 
BRANCH  14  18
ATOM     18  O   UNL     1       4.855   4.471  17.916  0.00  0.00    +0.000 OA
BRANCH  18  19
ATOM     19  C   UNL     1       6.024   4.370  18.729  0.00  0.00    +0.000 C 
BRANCH  19  20
ATOM     20  C   UNL     1       7.207   4.955  17.966  0.00  0.00    +0.000 C 
BRANCH  20  21
ATOM     21  C   UNL     1       7.736   6.174  18.702  0.00  0.00    +0.000 C 
ATOM     22 CL   UNL     1       7.702   7.610  17.657  0.00  0.00    +0.000 Cl
ENDBRANCH  20  21
ENDBRANCH  19  20
ENDBRANCH  18  19
ENDBRANCH  14  18
ENDBRANCH   8  11
ENDBRANCH   4   7
BRANCH   6  23
ATOM     23  C   UNL     1      -1.821  12.728  19.687  0.00  0.00    +0.000 C 
ATOM     24  F   UNL     1      -1.843  14.026  20.083  0.00  0.00    +0.000 F 
ATOM     25  F   UNL     1      -1.003  12.719  18.586  0.00  0.00    +0.000 F 
ATOM     26  F   UNL     1      -3.061  12.441  19.205  0.00  0.00    +0.000 F 
ENDBRANCH   6  23
BRANCH   1  27
ATOM     27  C   UNL     1      -2.477  12.838  22.751  0.00  0.00    +0.000 C 
BRANCH  27  32
ATOM     28  C   UNL     1      -5.962  16.151  22.945  0.00  0.00    +0.000 C 
ATOM     29  N   UNL     1      -5.717  14.712  23.040  0.00  0.00    +0.000 NA
ATOM     30  C   UNL     1      -4.836  14.402  24.180  0.00  0.00    +0.000 C 
ATOM     31  C   UNL     1      -4.445  12.905  24.249  0.00  0.00    +0.000 C 
ATOM     32  N   UNL     1      -3.841  12.349  23.016  0.00  0.00    +0.000 NA
ATOM     33  C   UNL     1      -4.750  12.688  21.890  0.00  0.00    +0.000 C 
ATOM     34  C   UNL     1      -5.153  14.184  21.786  0.00  0.00    +0.000 C 
ENDBRANCH  27  32
ENDBRANCH   1  27
TORSDOF 9
ENDMDL
MODEL 6
REMARK VINA RESULT:      -7.2      8.099     10.855
REMARK  Name = 
REMARK  10 active torsions:
REMARK  status: ('A' for Active; 'I' for Inactive)
REMARK    1  A    between atoms: C_1  and  N_2
REMARK    2  A    between atoms: N_5  and  C_6
REMARK    3  A    between atoms: C_6  and  C_7
REMARK    4  A    between atoms: C_10  and  N_11
REMARK    5  A    between atoms: C_12  and  C_14
REMARK    6  A    between atoms: C_17  and  O_18
REMARK    7  A    between atoms: O_18  and  C_19
REMARK    8  A    between atoms: C_19  and  C_20
REMARK    9  A    between atoms: C_20  and  C_21
REMARK   10  A    between atoms: C_27  and  C_28
REMARK                            x       y       z     vdW  Elec       q    Type
REMARK                         _______ _______ _______ _____ _____    ______ ____
ROOT
ATOM      1  C   UNL     1       5.859   4.507  17.783  0.00  0.00    +0.000 A 
ATOM      2  C   UNL     1       5.965   4.991  19.098  0.00  0.00    +0.000 A 
ATOM      3  C   UNL     1       6.782   6.084  19.416  0.00  0.00    +0.000 A 
ATOM      4  C   UNL     1       7.563   6.701  18.447  0.00  0.00    +0.000 A 
ATOM      5  C   UNL     1       7.470   6.228  17.136  0.00  0.00    +0.000 A 
ATOM      6  C   UNL     1       6.578   5.181  16.774  0.00  0.00    +0.000 A 
ENDROOT
BRANCH   4   7
ATOM      7  N   UNL     1       8.407   7.813  18.696  0.00  0.00    +0.000 N 
ATOM      8  C   UNL     1       8.238   9.091  18.196  0.00  0.00    +0.000 C 
ATOM      9  O   UNL     1       7.290   9.484  17.515  0.00  0.00    +0.000 OA
ATOM     10  H   UNL     1       9.195   7.644  19.308  0.00  0.00    +0.000 HD
BRANCH   8  11
ATOM     11  C   UNL     1       9.291  10.091  18.507  0.00  0.00    +0.000 A 
ATOM     12  C   UNL     1       9.578  10.341  19.858  0.00  0.00    +0.000 A 
ATOM     13  C   UNL     1      10.482  11.336  20.226  0.00  0.00    +0.000 A 
ATOM     14  C   UNL     1      11.114  12.108  19.253  0.00  0.00    +0.000 A 
ATOM     15  C   UNL     1      10.826  11.852  17.907  0.00  0.00    +0.000 A 
ATOM     16  F   UNL     1      11.392  12.568  16.922  0.00  0.00    +0.000 F 
ATOM     17  C   UNL     1       9.924  10.858  17.526  0.00  0.00    +0.000 A 
BRANCH  14  18
ATOM     18  O   UNL     1      11.957  13.064  19.758  0.00  0.00    +0.000 OA
BRANCH  18  19
ATOM     19  C   UNL     1      11.420  14.381  19.887  0.00  0.00    +0.000 C 
BRANCH  19  20
ATOM     20  C   UNL     1      12.096  15.290  18.868  0.00  0.00    +0.000 C 
BRANCH  20  21
ATOM     21  C   UNL     1      11.726  16.736  19.150  0.00  0.00    +0.000 C 
ATOM     22 CL   UNL     1      12.333  17.808  17.870  0.00  0.00    +0.000 Cl
ENDBRANCH  20  21
ENDBRANCH  19  20
ENDBRANCH  18  19
ENDBRANCH  14  18
ENDBRANCH   8  11
ENDBRANCH   4   7
BRANCH   6  23
ATOM     23  C   UNL     1       6.398   4.942  15.289  0.00  0.00    +0.000 C 
ATOM     24  F   UNL     1       7.381   5.407  14.478  0.00  0.00    +0.000 F 
ATOM     25  F   UNL     1       6.347   3.596  15.031  0.00  0.00    +0.000 F 
ATOM     26  F   UNL     1       5.224   5.436  14.810  0.00  0.00    +0.000 F 
ENDBRANCH   6  23
BRANCH   1  27
ATOM     27  C   UNL     1       4.939   3.318  17.539  0.00  0.00    +0.000 C 
BRANCH  27  32
ATOM     28  C   UNL     1       1.619   2.769  20.979  0.00  0.00    +0.000 C 
ATOM     29  N   UNL     1       1.802   3.214  19.597  0.00  0.00    +0.000 NA
ATOM     30  C   UNL     1       2.269   2.107  18.745  0.00  0.00    +0.000 C 
ATOM     31  C   UNL     1       2.598   2.556  17.300  0.00  0.00    +0.000 C 
ATOM     32  N   UNL     1       3.555   3.680  17.188  0.00  0.00    +0.000 NA
ATOM     33  C   UNL     1       3.058   4.772  18.065  0.00  0.00    +0.000 C 
ATOM     34  C   UNL     1       2.728   4.356  19.524  0.00  0.00    +0.000 C 
ENDBRANCH  27  32
ENDBRANCH   1  27
TORSDOF 9
ENDMDL
MODEL 7
REMARK VINA RESULT:      -7.1      2.518      3.066
REMARK  Name = 
REMARK  10 active torsions:
REMARK  status: ('A' for Active; 'I' for Inactive)
REMARK    1  A    between atoms: C_1  and  N_2
REMARK    2  A    between atoms: N_5  and  C_6
REMARK    3  A    between atoms: C_6  and  C_7
REMARK    4  A    between atoms: C_10  and  N_11
REMARK    5  A    between atoms: C_12  and  C_14
REMARK    6  A    between atoms: C_17  and  O_18
REMARK    7  A    between atoms: O_18  and  C_19
REMARK    8  A    between atoms: C_19  and  C_20
REMARK    9  A    between atoms: C_20  and  C_21
REMARK   10  A    between atoms: C_27  and  C_28
REMARK                            x       y       z     vdW  Elec       q    Type
REMARK                         _______ _______ _______ _____ _____    ______ ____
ROOT
ATOM      1  C   UNL     1      -1.637  12.393  20.153  0.00  0.00    +0.000 A 
ATOM      2  C   UNL     1      -0.405  12.370  20.829  0.00  0.00    +0.000 A 
ATOM      3  C   UNL     1       0.509  11.322  20.658  0.00  0.00    +0.000 A 
ATOM      4  C   UNL     1       0.208  10.233  19.850  0.00  0.00    +0.000 A 
ATOM      5  C   UNL     1      -1.016  10.240  19.174  0.00  0.00    +0.000 A 
ATOM      6  C   UNL     1      -1.918  11.337  19.260  0.00  0.00    +0.000 A 
ENDROOT
BRANCH   4   7
ATOM      7  N   UNL     1       1.085   9.142  19.627  0.00  0.00    +0.000 N 
ATOM      8  C   UNL     1       1.853   8.933  18.497  0.00  0.00    +0.000 C 
ATOM      9  O   UNL     1       1.954   9.697  17.537  0.00  0.00    +0.000 OA
ATOM     10  H   UNL     1       1.154   8.468  20.378  0.00  0.00    +0.000 HD
BRANCH   8  11
ATOM     11  C   UNL     1       2.639   7.674  18.427  0.00  0.00    +0.000 A 
ATOM     12  C   UNL     1       2.473   6.741  19.462  0.00  0.00    +0.000 A 
ATOM     13  C   UNL     1       3.249   5.584  19.514  0.00  0.00    +0.000 A 
ATOM     14  C   UNL     1       4.213   5.338  18.538  0.00  0.00    +0.000 A 
ATOM     15  C   UNL     1       4.372   6.272  17.507  0.00  0.00    +0.000 A 
ATOM     16  F   UNL     1       5.290   6.099  16.542  0.00  0.00    +0.000 F 
ATOM     17  C   UNL     1       3.599   7.432  17.442  0.00  0.00    +0.000 A 
BRANCH  14  18
ATOM     18  O   UNL     1       4.917   4.177  18.728  0.00  0.00    +0.000 OA
BRANCH  18  19
ATOM     19  C   UNL     1       4.584   3.086  17.870  0.00  0.00    +0.000 C 
BRANCH  19  20
ATOM     20  C   UNL     1       3.533   2.221  18.557  0.00  0.00    +0.000 C 
BRANCH  20  21
ATOM     21  C   UNL     1       2.230   2.289  17.780  0.00  0.00    +0.000 C 
ATOM     22 CL   UNL     1       0.864   2.635  18.862  0.00  0.00    +0.000 Cl
ENDBRANCH  20  21
ENDBRANCH  19  20
ENDBRANCH  18  19
ENDBRANCH  14  18
ENDBRANCH   8  11
ENDBRANCH   4   7
BRANCH   6  23
ATOM     23  C   UNL     1      -3.078  11.323  18.288  0.00  0.00    +0.000 C 
ATOM     24  F   UNL     1      -4.202  11.976  18.677  0.00  0.00    +0.000 F 
ATOM     25  F   UNL     1      -2.716  11.931  17.113  0.00  0.00    +0.000 F 
ATOM     26  F   UNL     1      -3.457  10.065  17.930  0.00  0.00    +0.000 F 
ENDBRANCH   6  23
BRANCH   1  27
ATOM     27  C   UNL     1      -2.558  13.579  20.401  0.00  0.00    +0.000 C 
BRANCH  27  32
ATOM     28  C   UNL     1      -7.136  14.521  21.549  0.00  0.00    +0.000 C 
ATOM     29  N   UNL     1      -5.800  14.363  22.124  0.00  0.00    +0.000 NA
ATOM     30  C   UNL     1      -4.876  15.383  21.597  0.00  0.00    +0.000 C 
ATOM     31  C   UNL     1      -3.418  15.181  22.079  0.00  0.00    +0.000 C 
ATOM     32  N   UNL     1      -2.845  13.840  21.823  0.00  0.00    +0.000 NA
ATOM     33  C   UNL     1      -3.805  12.841  22.359  0.00  0.00    +0.000 C 
ATOM     34  C   UNL     1      -5.274  13.008  21.886  0.00  0.00    +0.000 C 
ENDBRANCH  27  32
ENDBRANCH   1  27
TORSDOF 9
ENDMDL
MODEL 8
REMARK VINA RESULT:      -7.1      2.223      2.735
REMARK  Name = 
REMARK  10 active torsions:
REMARK  status: ('A' for Active; 'I' for Inactive)
REMARK    1  A    between atoms: C_1  and  N_2
REMARK    2  A    between atoms: N_5  and  C_6
REMARK    3  A    between atoms: C_6  and  C_7
REMARK    4  A    between atoms: C_10  and  N_11
REMARK    5  A    between atoms: C_12  and  C_14
REMARK    6  A    between atoms: C_17  and  O_18
REMARK    7  A    between atoms: O_18  and  C_19
REMARK    8  A    between atoms: C_19  and  C_20
REMARK    9  A    between atoms: C_20  and  C_21
REMARK   10  A    between atoms: C_27  and  C_28
REMARK                            x       y       z     vdW  Elec       q    Type
REMARK                         _______ _______ _______ _____ _____    ______ ____
ROOT
ATOM      1  C   UNL     1      -0.218  11.728  19.690  0.00  0.00    +0.000 A 
ATOM      2  C   UNL     1      -0.603  10.390  19.887  0.00  0.00    +0.000 A 
ATOM      3  C   UNL     1       0.141   9.326  19.363  0.00  0.00    +0.000 A 
ATOM      4  C   UNL     1       1.266   9.554  18.580  0.00  0.00    +0.000 A 
ATOM      5  C   UNL     1       1.658  10.879  18.372  0.00  0.00    +0.000 A 
ATOM      6  C   UNL     1       0.971  11.971  18.971  0.00  0.00    +0.000 A 
ENDROOT
BRANCH   4   7
ATOM      7  N   UNL     1       2.068   8.527  18.022  0.00  0.00    +0.000 N 
ATOM      8  C   UNL     1       2.510   7.393  18.678  0.00  0.00    +0.000 C 
ATOM      9  O   UNL     1       2.217   7.059  19.827  0.00  0.00    +0.000 OA
ATOM     10  H   UNL     1       2.323   8.641  17.050  0.00  0.00    +0.000 HD
BRANCH   8  11
ATOM     11  C   UNL     1       3.419   6.483  17.935  0.00  0.00    +0.000 A 
ATOM     12  C   UNL     1       4.386   7.063  17.100  0.00  0.00    +0.000 A 
ATOM     13  C   UNL     1       5.208   6.272  16.298  0.00  0.00    +0.000 A 
ATOM     14  C   UNL     1       5.074   4.885  16.306  0.00  0.00    +0.000 A 
ATOM     15  C   UNL     1       4.109   4.312  17.143  0.00  0.00    +0.000 A 
ATOM     16  F   UNL     1       3.924   2.983  17.189  0.00  0.00    +0.000 F 
ATOM     17  C   UNL     1       3.283   5.093  17.953  0.00  0.00    +0.000 A 
BRANCH  14  18
ATOM     18  O   UNL     1       5.929   4.236  15.452  0.00  0.00    +0.000 OA
BRANCH  18  19
ATOM     19  C   UNL     1       5.404   3.896  14.168  0.00  0.00    +0.000 C 
BRANCH  19  20
ATOM     20  C   UNL     1       6.541   3.907  13.153  0.00  0.00    +0.000 C 
BRANCH  20  21
ATOM     21  C   UNL     1       6.158   3.063  11.949  0.00  0.00    +0.000 C 
ATOM     22 CL   UNL     1       4.445   3.288  11.537  0.00  0.00    +0.000 Cl
ENDBRANCH  20  21
ENDBRANCH  19  20
ENDBRANCH  18  19
ENDBRANCH  14  18
ENDBRANCH   8  11
ENDBRANCH   4   7
BRANCH   6  23
ATOM     23  C   UNL     1       1.647  13.322  18.867  0.00  0.00    +0.000 C 
ATOM     24  F   UNL     1       0.863  14.365  18.499  0.00  0.00    +0.000 F 
ATOM     25  F   UNL     1       2.157  13.689  20.087  0.00  0.00    +0.000 F 
ATOM     26  F   UNL     1       2.719  13.317  18.027  0.00  0.00    +0.000 F 
ENDBRANCH   6  23
BRANCH   1  27
ATOM     27  C   UNL     1      -1.091  12.813  20.306  0.00  0.00    +0.000 C 
BRANCH  27  32
ATOM     28  C   UNL     1      -4.419  13.018  23.776  0.00  0.00    +0.000 C 
ATOM     29  N   UNL     1      -2.998  13.246  23.510  0.00  0.00    +0.000 NA
ATOM     30  C   UNL     1      -2.815  14.309  22.507  0.00  0.00    +0.000 C 
ATOM     31  C   UNL     1      -1.333  14.501  22.098  0.00  0.00    +0.000 C 
ATOM     32  N   UNL     1      -0.641  13.279  21.629  0.00  0.00    +0.000 NA
ATOM     33  C   UNL     1      -0.855  12.229  22.658  0.00  0.00    +0.000 C 
ATOM     34  C   UNL     1      -2.331  12.004  23.083  0.00  0.00    +0.000 C 
ENDBRANCH  27  32
ENDBRANCH   1  27
TORSDOF 9
ENDMDL
MODEL 9
REMARK VINA RESULT:      -7.1      1.055      1.377
REMARK  Name = 
REMARK  10 active torsions:
REMARK  status: ('A' for Active; 'I' for Inactive)
REMARK    1  A    between atoms: C_1  and  N_2
REMARK    2  A    between atoms: N_5  and  C_6
REMARK    3  A    between atoms: C_6  and  C_7
REMARK    4  A    between atoms: C_10  and  N_11
REMARK    5  A    between atoms: C_12  and  C_14
REMARK    6  A    between atoms: C_17  and  O_18
REMARK    7  A    between atoms: O_18  and  C_19
REMARK    8  A    between atoms: C_19  and  C_20
REMARK    9  A    between atoms: C_20  and  C_21
REMARK   10  A    between atoms: C_27  and  C_28
REMARK                            x       y       z     vdW  Elec       q    Type
REMARK                         _______ _______ _______ _____ _____    ______ ____
ROOT
ATOM      1  C   UNL     1      -0.818  11.009  19.742  0.00  0.00    +0.000 A 
ATOM      2  C   UNL     1       0.347  10.702  20.465  0.00  0.00    +0.000 A 
ATOM      3  C   UNL     1       1.326   9.841  19.953  0.00  0.00    +0.000 A 
ATOM      4  C   UNL     1       1.157   9.213  18.725  0.00  0.00    +0.000 A 
ATOM      5  C   UNL     1       0.001   9.506  17.996  0.00  0.00    +0.000 A 
ATOM      6  C   UNL     1      -0.961  10.447  18.455  0.00  0.00    +0.000 A 
ENDROOT
BRANCH   4   7
ATOM      7  N   UNL     1       2.107   8.336  18.143  0.00  0.00    +0.000 N 
ATOM      8  C   UNL     1       2.539   7.135  18.677  0.00  0.00    +0.000 C 
ATOM      9  O   UNL     1       2.115   6.604  19.703  0.00  0.00    +0.000 OA
ATOM     10  H   UNL     1       2.486   8.620  17.250  0.00  0.00    +0.000 HD
BRANCH   8  11
ATOM     11  C   UNL     1       3.610   6.410  17.948  0.00  0.00    +0.000 A 
ATOM     12  C   UNL     1       4.549   7.172  17.235  0.00  0.00    +0.000 A 
ATOM     13  C   UNL     1       5.523   6.557  16.449  0.00  0.00    +0.000 A 
ATOM     14  C   UNL     1       5.574   5.168  16.351  0.00  0.00    +0.000 A 
ATOM     15  C   UNL     1       4.637   4.413  17.067  0.00  0.00    +0.000 A 
ATOM     16  F   UNL     1       4.626   3.071  17.006  0.00  0.00    +0.000 F 
ATOM     17  C   UNL     1       3.660   5.017  17.859  0.00  0.00    +0.000 A 
BRANCH  14  18
ATOM     18  O   UNL     1       6.565   4.702  15.525  0.00  0.00    +0.000 OA
BRANCH  18  19
ATOM     19  C   UNL     1       6.207   3.639  14.642  0.00  0.00    +0.000 C 
BRANCH  19  20
ATOM     20  C   UNL     1       5.468   4.223  13.443  0.00  0.00    +0.000 C 
BRANCH  20  21
ATOM     21  C   UNL     1       5.643   3.308  12.243  0.00  0.00    +0.000 C 
ATOM     22 CL   UNL     1       4.136   3.196  11.308  0.00  0.00    +0.000 Cl
ENDBRANCH  20  21
ENDBRANCH  19  20
ENDBRANCH  18  19
ENDBRANCH  14  18
ENDBRANCH   8  11
ENDBRANCH   4   7
BRANCH   6  23
ATOM     23  C   UNL     1      -2.026  10.852  17.458  0.00  0.00    +0.000 C 
ATOM     24  F   UNL     1      -3.313  10.771  17.880  0.00  0.00    +0.000 F 
ATOM     25  F   UNL     1      -1.863  12.166  17.101  0.00  0.00    +0.000 F 
ATOM     26  F   UNL     1      -1.950  10.159  16.288  0.00  0.00    +0.000 F 
ENDBRANCH   6  23
BRANCH   1  27
ATOM     27  C   UNL     1      -1.819  11.960  20.383  0.00  0.00    +0.000 C 
BRANCH  27  32
ATOM     28  C   UNL     1      -4.143  14.265  23.911  0.00  0.00    +0.000 C 
ATOM     29  N   UNL     1      -2.967  14.346  23.044  0.00  0.00    +0.000 NA
ATOM     30  C   UNL     1      -3.363  14.434  21.628  0.00  0.00    +0.000 C 
ATOM     31  C   UNL     1      -2.153  14.395  20.661  0.00  0.00    +0.000 C 
ATOM     32  N   UNL     1      -1.243  13.240  20.831  0.00  0.00    +0.000 NA
ATOM     33  C   UNL     1      -0.873  13.177  22.269  0.00  0.00    +0.000 C 
ATOM     34  C   UNL     1      -2.064  13.203  23.264  0.00  0.00    +0.000 C 
ENDBRANCH  27  32
ENDBRANCH   1  27
TORSDOF 9
ENDMDL
