MODEL 1
REMARK VINA RESULT:      -7.2      0.000      0.000
REMARK  Name = 
REMARK  9 active torsions:
REMARK  status: ('A' for Active; 'I' for Inactive)
REMARK    1  A    between atoms: C_2  and  C_3
REMARK    2  A    between atoms: C_3  and  O_4
REMARK    3  A    between atoms: O_4  and  C_5
REMARK    4  A    between atoms: C_5  and  C_7
REMARK    5  A    between atoms: C_8  and  C_9
REMARK    6  A    between atoms: N_15  and  C_16
REMARK    7  A    between atoms: C_16  and  C_17
REMARK    8  A    between atoms: C_17  and  C_18
REMARK    9  A    between atoms: C_18  and  N_19
REMARK                            x       y       z     vdW  Elec       q    Type
REMARK                         _______ _______ _______ _____ _____    ______ ____
ROOT
ATOM      1  O   UNL     1       4.185   6.179  17.448  0.00  0.00    +0.000 OA
ATOM      2  C   UNL     1       4.730   5.638  18.405  0.00  0.00    +0.000 C 
ATOM      3  N   UNL     1       4.153   5.549  19.655  0.00  0.00    +0.000 N 
ATOM      4  H   UNL     1       4.578   4.930  20.336  0.00  0.00    +0.000 HD
ENDROOT
BRANCH   2   5
ATOM      5  C   UNL     1       6.126   5.010  18.301  0.00  0.00    +0.000 C 
BRANCH   5   6
ATOM      6  O   UNL     1       7.166   5.891  18.723  0.00  0.00    +0.000 OA
BRANCH   6   7
ATOM      7  C   UNL     1       7.554   6.773  17.771  0.00  0.00    +0.000 C 
ATOM      8  O   UNL     1       7.496   6.600  16.563  0.00  0.00    +0.000 OA
BRANCH   7   9
ATOM      9  C   UNL     1       8.087   7.979  18.430  0.00  0.00    +0.000 C 
ATOM     10  C   UNL     1       8.299   9.091  17.712  0.00  0.00    +0.000 C 
BRANCH  10  11
ATOM     11  C   UNL     1       8.822  10.265  18.324  0.00  0.00    +0.000 A 
ATOM     12  C   UNL     1       9.426  10.406  19.568  0.00  0.00    +0.000 A 
ATOM     13  C   UNL     1       9.774  11.770  19.733  0.00  0.00    +0.000 A 
ATOM     14  C   UNL     1       9.367  12.400  18.585  0.00  0.00    +0.000 A 
ATOM     15 BR   UNL     1       9.555  14.220  18.228  0.00  0.00    +0.000 Br
ATOM     16  O   UNL     1       8.797  11.511  17.735  0.00  0.00    +0.000 OA
ENDBRANCH  10  11
ENDBRANCH   7   9
ENDBRANCH   6   7
ENDBRANCH   5   6
ENDBRANCH   2   5
BRANCH   3  17
ATOM     17  C   UNL     1       2.816   6.041  19.948  0.00  0.00    +0.000 C 
BRANCH  17  18
ATOM     18  C   UNL     1       2.108   5.110  20.928  0.00  0.00    +0.000 C 
BRANCH  18  19
ATOM     19  C   UNL     1       1.145   4.158  20.223  0.00  0.00    +0.000 C 
BRANCH  19  20
ATOM     20  N   UNL     1       1.849   3.279  19.304  0.00  0.00    +0.000 N 
ATOM     21  C   UNL     1       2.652   2.166  19.741  0.00  0.00    +0.000 C 
ATOM     22  C   UNL     1       3.502   1.853  18.525  0.00  0.00    +0.000 C 
ATOM     23  C   UNL     1       2.619   2.254  17.348  0.00  0.00    +0.000 C 
ATOM     24  C   UNL     1       1.779   3.370  17.922  0.00  0.00    +0.000 C 
ATOM     25  O   UNL     1       1.129   4.173  17.274  0.00  0.00    +0.000 OA
ENDBRANCH  19  20
ENDBRANCH  18  19
ENDBRANCH  17  18
ENDBRANCH   3  17
TORSDOF 9
ENDMDL
MODEL 2
REMARK VINA RESULT:      -7.1      1.446      2.268
REMARK  Name = 
REMARK  9 active torsions:
REMARK  status: ('A' for Active; 'I' for Inactive)
REMARK    1  A    between atoms: C_2  and  C_3
REMARK    2  A    between atoms: C_3  and  O_4
REMARK    3  A    between atoms: O_4  and  C_5
REMARK    4  A    between atoms: C_5  and  C_7
REMARK    5  A    between atoms: C_8  and  C_9
REMARK    6  A    between atoms: N_15  and  C_16
REMARK    7  A    between atoms: C_16  and  C_17
REMARK    8  A    between atoms: C_17  and  C_18
REMARK    9  A    between atoms: C_18  and  N_19
REMARK                            x       y       z     vdW  Elec       q    Type
REMARK                         _______ _______ _______ _____ _____    ______ ____
ROOT
ATOM      1  O   UNL     1       5.671   4.850  19.707  0.00  0.00    +0.000 OA
ATOM      2  C   UNL     1       6.241   4.600  18.649  0.00  0.00    +0.000 C 
ATOM      3  N   UNL     1       5.672   3.849  17.640  0.00  0.00    +0.000 N 
ATOM      4  H   UNL     1       6.124   3.845  16.733  0.00  0.00    +0.000 HD
ENDROOT
BRANCH   2   5
ATOM      5  C   UNL     1       7.660   5.099  18.347  0.00  0.00    +0.000 C 
BRANCH   5   6
ATOM      6  O   UNL     1       7.742   5.849  17.137  0.00  0.00    +0.000 OA
BRANCH   6   7
ATOM      7  C   UNL     1       7.095   7.039  17.188  0.00  0.00    +0.000 C 
ATOM      8  O   UNL     1       6.024   7.299  16.661  0.00  0.00    +0.000 OA
BRANCH   7   9
ATOM      9  C   UNL     1       7.910   7.989  17.967  0.00  0.00    +0.000 C 
ATOM     10  C   UNL     1       7.986   9.271  17.582  0.00  0.00    +0.000 C 
BRANCH  10  11
ATOM     11  C   UNL     1       8.774  10.205  18.312  0.00  0.00    +0.000 A 
ATOM     12  C   UNL     1       9.404  10.044  19.541  0.00  0.00    +0.000 A 
ATOM     13  C   UNL     1      10.063  11.258  19.857  0.00  0.00    +0.000 A 
ATOM     14  C   UNL     1       9.805  12.105  18.810  0.00  0.00    +0.000 A 
ATOM     15 BR   UNL     1      10.411  13.863  18.670  0.00  0.00    +0.000 Br
ATOM     16  O   UNL     1       9.037  11.487  17.880  0.00  0.00    +0.000 OA
ENDBRANCH  10  11
ENDBRANCH   7   9
ENDBRANCH   6   7
ENDBRANCH   5   6
ENDBRANCH   2   5
BRANCH   3  17
ATOM     17  C   UNL     1       4.317   3.325  17.711  0.00  0.00    +0.000 C 
BRANCH  17  18
ATOM     18  C   UNL     1       3.312   4.381  17.264  0.00  0.00    +0.000 C 
BRANCH  18  19
ATOM     19  C   UNL     1       1.903   4.085  17.770  0.00  0.00    +0.000 C 
BRANCH  19  20
ATOM     20  N   UNL     1       1.903   3.798  19.195  0.00  0.00    +0.000 N 
ATOM     21  C   UNL     1       1.666   2.483  19.732  0.00  0.00    +0.000 C 
ATOM     22  C   UNL     1       1.327   2.757  21.185  0.00  0.00    +0.000 C 
ATOM     23  C   UNL     1       2.119   4.018  21.513  0.00  0.00    +0.000 C 
ATOM     24  C   UNL     1       2.189   4.728  20.183  0.00  0.00    +0.000 C 
ATOM     25  O   UNL     1       2.485   5.900  20.020  0.00  0.00    +0.000 OA
ENDBRANCH  19  20
ENDBRANCH  18  19
ENDBRANCH  17  18
ENDBRANCH   3  17
TORSDOF 9
ENDMDL
MODEL 3
REMARK VINA RESULT:      -6.9      3.498      8.390
REMARK  Name = 
REMARK  9 active torsions:
REMARK  status: ('A' for Active; 'I' for Inactive)
REMARK    1  A    between atoms: C_2  and  C_3
REMARK    2  A    between atoms: C_3  and  O_4
REMARK    3  A    between atoms: O_4  and  C_5
REMARK    4  A    between atoms: C_5  and  C_7
REMARK    5  A    between atoms: C_8  and  C_9
REMARK    6  A    between atoms: N_15  and  C_16
REMARK    7  A    between atoms: C_16  and  C_17
REMARK    8  A    between atoms: C_17  and  C_18
REMARK    9  A    between atoms: C_18  and  N_19
REMARK                            x       y       z     vdW  Elec       q    Type
REMARK                         _______ _______ _______ _____ _____    ______ ____
ROOT
ATOM      1  O   UNL     1       7.481   6.109  15.936  0.00  0.00    +0.000 OA
ATOM      2  C   UNL     1       7.314   6.022  17.149  0.00  0.00    +0.000 C 
ATOM      3  N   UNL     1       7.424   7.097  18.008  0.00  0.00    +0.000 N 
ATOM      4  H   UNL     1       7.091   6.986  18.959  0.00  0.00    +0.000 HD
ENDROOT
BRANCH   2   5
ATOM      5  C   UNL     1       6.971   4.693  17.833  0.00  0.00    +0.000 C 
BRANCH   5   6
ATOM      6  O   UNL     1       5.658   4.676  18.392  0.00  0.00    +0.000 OA
BRANCH   6   7
ATOM      7  C   UNL     1       4.672   4.602  17.465  0.00  0.00    +0.000 C 
ATOM      8  O   UNL     1       4.466   3.667  16.707  0.00  0.00    +0.000 OA
BRANCH   7   9
ATOM      9  C   UNL     1       3.894   5.854  17.500  0.00  0.00    +0.000 C 
ATOM     10  C   UNL     1       3.320   6.249  18.645  0.00  0.00    +0.000 C 
BRANCH  10  11
ATOM     11  C   UNL     1       2.557   7.449  18.701  0.00  0.00    +0.000 A 
ATOM     12  C   UNL     1       2.317   8.380  17.696  0.00  0.00    +0.000 A 
ATOM     13  C   UNL     1       1.505   9.407  18.236  0.00  0.00    +0.000 A 
ATOM     14  C   UNL     1       1.286   9.060  19.545  0.00  0.00    +0.000 A 
ATOM     15 BR   UNL     1       0.283  10.046  20.769  0.00  0.00    +0.000 Br
ATOM     16  O   UNL     1       1.908   7.892  19.834  0.00  0.00    +0.000 OA
ENDBRANCH  10  11
ENDBRANCH   7   9
ENDBRANCH   6   7
ENDBRANCH   5   6
ENDBRANCH   2   5
BRANCH   3  17
ATOM     17  C   UNL     1       7.696   8.451  17.552  0.00  0.00    +0.000 C 
BRANCH  17  18
ATOM     18  C   UNL     1       8.677   9.144  18.492  0.00  0.00    +0.000 C 
BRANCH  18  19
ATOM     19  C   UNL     1       8.803  10.636  18.194  0.00  0.00    +0.000 C 
BRANCH  19  20
ATOM     20  N   UNL     1       9.971  11.207  18.844  0.00  0.00    +0.000 N 
ATOM     21  C   UNL     1      11.172  11.560  18.132  0.00  0.00    +0.000 C 
ATOM     22  C   UNL     1      12.208  11.676  19.234  0.00  0.00    +0.000 C 
ATOM     23  C   UNL     1      11.402  12.132  20.446  0.00  0.00    +0.000 C 
ATOM     24  C   UNL     1      10.040  11.532  20.190  0.00  0.00    +0.000 C 
ATOM     25  O   UNL     1       9.156  11.402  21.020  0.00  0.00    +0.000 OA
ENDBRANCH  19  20
ENDBRANCH  18  19
ENDBRANCH  17  18
ENDBRANCH   3  17
TORSDOF 9
ENDMDL
MODEL 4
REMARK VINA RESULT:      -6.7      1.477      2.435
REMARK  Name = 
REMARK  9 active torsions:
REMARK  status: ('A' for Active; 'I' for Inactive)
REMARK    1  A    between atoms: C_2  and  C_3
REMARK    2  A    between atoms: C_3  and  O_4
REMARK    3  A    between atoms: O_4  and  C_5
REMARK    4  A    between atoms: C_5  and  C_7
REMARK    5  A    between atoms: C_8  and  C_9
REMARK    6  A    between atoms: N_15  and  C_16
REMARK    7  A    between atoms: C_16  and  C_17
REMARK    8  A    between atoms: C_17  and  C_18
REMARK    9  A    between atoms: C_18  and  N_19
REMARK                            x       y       z     vdW  Elec       q    Type
REMARK                         _______ _______ _______ _____ _____    ______ ____
ROOT
ATOM      1  O   UNL     1       5.189   5.061  20.013  0.00  0.00    +0.000 OA
ATOM      2  C   UNL     1       5.630   4.351  19.114  0.00  0.00    +0.000 C 
ATOM      3  N   UNL     1       5.267   3.030  18.945  0.00  0.00    +0.000 N 
ATOM      4  H   UNL     1       5.525   2.569  18.080  0.00  0.00    +0.000 HD
ENDROOT
BRANCH   2   5
ATOM      5  C   UNL     1       6.645   4.869  18.087  0.00  0.00    +0.000 C 
BRANCH   5   6
ATOM      6  O   UNL     1       7.469   5.915  18.598  0.00  0.00    +0.000 OA
BRANCH   6   7
ATOM      7  C   UNL     1       7.712   6.904  17.704  0.00  0.00    +0.000 C 
ATOM      8  O   UNL     1       7.461   6.871  16.509  0.00  0.00    +0.000 OA
BRANCH   7   9
ATOM      9  C   UNL     1       8.358   8.029  18.405  0.00  0.00    +0.000 C 
ATOM     10  C   UNL     1       8.381   9.242  17.835  0.00  0.00    +0.000 C 
BRANCH  10  11
ATOM     11  C   UNL     1       9.007  10.342  18.488  0.00  0.00    +0.000 A 
ATOM     12  C   UNL     1       9.940  11.242  17.984  0.00  0.00    +0.000 A 
ATOM     13  C   UNL     1      10.269  12.154  19.016  0.00  0.00    +0.000 A 
ATOM     14  C   UNL     1       9.525  11.772  20.103  0.00  0.00    +0.000 A 
ATOM     15 BR   UNL     1       9.546  12.604  21.772  0.00  0.00    +0.000 Br
ATOM     16  O   UNL     1       8.767  10.690  19.799  0.00  0.00    +0.000 OA
ENDBRANCH  10  11
ENDBRANCH   7   9
ENDBRANCH   6   7
ENDBRANCH   5   6
ENDBRANCH   2   5
BRANCH   3  17
ATOM     17  C   UNL     1       4.282   2.365  19.784  0.00  0.00    +0.000 C 
BRANCH  17  18
ATOM     18  C   UNL     1       3.026   2.045  18.980  0.00  0.00    +0.000 C 
BRANCH  18  19
ATOM     19  C   UNL     1       1.775   2.668  19.596  0.00  0.00    +0.000 C 
BRANCH  19  20
ATOM     20  N   UNL     1       1.911   4.109  19.723  0.00  0.00    +0.000 N 
ATOM     21  C   UNL     1       1.984   4.782  20.995  0.00  0.00    +0.000 C 
ATOM     22  C   UNL     1       1.673   6.225  20.642  0.00  0.00    +0.000 C 
ATOM     23  C   UNL     1       2.201   6.375  19.220  0.00  0.00    +0.000 C 
ATOM     24  C   UNL     1       2.050   4.983  18.655  0.00  0.00    +0.000 C 
ATOM     25  O   UNL     1       2.085   4.689  17.471  0.00  0.00    +0.000 OA
ENDBRANCH  19  20
ENDBRANCH  18  19
ENDBRANCH  17  18
ENDBRANCH   3  17
TORSDOF 9
ENDMDL
MODEL 5
REMARK VINA RESULT:      -6.6      3.679      7.068
REMARK  Name = 
REMARK  9 active torsions:
REMARK  status: ('A' for Active; 'I' for Inactive)
REMARK    1  A    between atoms: C_2  and  C_3
REMARK    2  A    between atoms: C_3  and  O_4
REMARK    3  A    between atoms: O_4  and  C_5
REMARK    4  A    between atoms: C_5  and  C_7
REMARK    5  A    between atoms: C_8  and  C_9
REMARK    6  A    between atoms: N_15  and  C_16
REMARK    7  A    between atoms: C_16  and  C_17
REMARK    8  A    between atoms: C_17  and  C_18
REMARK    9  A    between atoms: C_18  and  N_19
REMARK                            x       y       z     vdW  Elec       q    Type
REMARK                         _______ _______ _______ _____ _____    ______ ____
ROOT
ATOM      1  O   UNL     1       1.362   4.256  17.217  0.00  0.00    +0.000 OA
ATOM      2  C   UNL     1       2.051   3.484  17.878  0.00  0.00    +0.000 C 
ATOM      3  N   UNL     1       3.430   3.463  17.825  0.00  0.00    +0.000 N 
ATOM      4  H   UNL     1       3.929   2.934  18.531  0.00  0.00    +0.000 HD
ENDROOT
BRANCH   2   5
ATOM      5  C   UNL     1       1.435   2.451  18.830  0.00  0.00    +0.000 C 
BRANCH   5   6
ATOM      6  O   UNL     1       2.167   2.309  20.047  0.00  0.00    +0.000 OA
BRANCH   6   7
ATOM      7  C   UNL     1       1.605   2.951  21.099  0.00  0.00    +0.000 C 
ATOM      8  O   UNL     1       1.379   2.469  22.199  0.00  0.00    +0.000 OA
BRANCH   7   9
ATOM      9  C   UNL     1       1.284   4.332  20.696  0.00  0.00    +0.000 C 
ATOM     10  C   UNL     1       2.227   5.282  20.766  0.00  0.00    +0.000 C 
BRANCH  10  11
ATOM     11  C   UNL     1       1.938   6.624  20.390  0.00  0.00    +0.000 A 
ATOM     12  C   UNL     1       2.252   7.288  19.209  0.00  0.00    +0.000 A 
ATOM     13  C   UNL     1       1.758   8.613  19.308  0.00  0.00    +0.000 A 
ATOM     14  C   UNL     1       1.167   8.699  20.542  0.00  0.00    +0.000 A 
ATOM     15 BR   UNL     1       0.343  10.220  21.240  0.00  0.00    +0.000 Br
ATOM     16  O   UNL     1       1.267   7.517  21.198  0.00  0.00    +0.000 OA
ENDBRANCH  10  11
ENDBRANCH   7   9
ENDBRANCH   6   7
ENDBRANCH   5   6
ENDBRANCH   2   5
BRANCH   3  17
ATOM     17  C   UNL     1       4.206   4.394  17.020  0.00  0.00    +0.000 C 
BRANCH  17  18
ATOM     18  C   UNL     1       4.925   3.656  15.896  0.00  0.00    +0.000 C 
BRANCH  18  19
ATOM     19  C   UNL     1       6.287   4.272  15.583  0.00  0.00    +0.000 C 
BRANCH  19  20
ATOM     20  N   UNL     1       6.649   5.280  16.566  0.00  0.00    +0.000 N 
ATOM     21  C   UNL     1       6.015   6.572  16.635  0.00  0.00    +0.000 C 
ATOM     22  C   UNL     1       6.986   7.390  17.466  0.00  0.00    +0.000 C 
ATOM     23  C   UNL     1       7.630   6.363  18.391  0.00  0.00    +0.000 C 
ATOM     24  C   UNL     1       7.584   5.096  17.572  0.00  0.00    +0.000 C 
ATOM     25  O   UNL     1       8.230   4.084  17.793  0.00  0.00    +0.000 OA
ENDBRANCH  19  20
ENDBRANCH  18  19
ENDBRANCH  17  18
ENDBRANCH   3  17
TORSDOF 9
ENDMDL
MODEL 6
REMARK VINA RESULT:      -6.5      4.088      6.805
REMARK  Name = 
REMARK  9 active torsions:
REMARK  status: ('A' for Active; 'I' for Inactive)
REMARK    1  A    between atoms: C_2  and  C_3
REMARK    2  A    between atoms: C_3  and  O_4
REMARK    3  A    between atoms: O_4  and  C_5
REMARK    4  A    between atoms: C_5  and  C_7
REMARK    5  A    between atoms: C_8  and  C_9
REMARK    6  A    between atoms: N_15  and  C_16
REMARK    7  A    between atoms: C_16  and  C_17
REMARK    8  A    between atoms: C_17  and  C_18
REMARK    9  A    between atoms: C_18  and  N_19
REMARK                            x       y       z     vdW  Elec       q    Type
REMARK                         _______ _______ _______ _____ _____    ______ ____
ROOT
ATOM      1  O   UNL     1       3.456   3.658  17.774  0.00  0.00    +0.000 OA
ATOM      2  C   UNL     1       3.672   2.950  18.753  0.00  0.00    +0.000 C 
ATOM      3  N   UNL     1       4.819   3.040  19.516  0.00  0.00    +0.000 N 
ATOM      4  H   UNL     1       4.840   2.559  20.408  0.00  0.00    +0.000 HD
ENDROOT
BRANCH   2   5
ATOM      5  C   UNL     1       2.678   1.879  19.222  0.00  0.00    +0.000 C 
BRANCH   5   6
ATOM      6  O   UNL     1       1.424   2.424  19.630  0.00  0.00    +0.000 OA
BRANCH   6   7
ATOM      7  C   UNL     1       1.491   3.154  20.769  0.00  0.00    +0.000 C 
ATOM      8  O   UNL     1       1.762   2.729  21.882  0.00  0.00    +0.000 OA
BRANCH   7   9
ATOM      9  C   UNL     1       1.156   4.555  20.455  0.00  0.00    +0.000 C 
ATOM     10  C   UNL     1       2.057   5.522  20.685  0.00  0.00    +0.000 C 
BRANCH  10  11
ATOM     11  C   UNL     1       1.754   6.883  20.399  0.00  0.00    +0.000 A 
ATOM     12  C   UNL     1       2.087   7.635  19.278  0.00  0.00    +0.000 A 
ATOM     13  C   UNL     1       1.567   8.940  19.457  0.00  0.00    +0.000 A 
ATOM     14  C   UNL     1       0.940   8.928  20.677  0.00  0.00    +0.000 A 
ATOM     15 BR   UNL     1       0.071  10.381  21.458  0.00  0.00    +0.000 Br
ATOM     16  O   UNL     1       1.045   7.704  21.249  0.00  0.00    +0.000 OA
ENDBRANCH  10  11
ENDBRANCH   7   9
ENDBRANCH   6   7
ENDBRANCH   5   6
ENDBRANCH   2   5
BRANCH   3  17
ATOM     17  C   UNL     1       5.862   4.023  19.266  0.00  0.00    +0.000 C 
BRANCH  17  18
ATOM     18  C   UNL     1       5.248   5.366  18.886  0.00  0.00    +0.000 C 
BRANCH  18  19
ATOM     19  C   UNL     1       6.149   6.164  17.946  0.00  0.00    +0.000 C 
BRANCH  19  20
ATOM     20  N   UNL     1       6.165   5.586  16.612  0.00  0.00    +0.000 N 
ATOM     21  C   UNL     1       5.241   5.973  15.577  0.00  0.00    +0.000 C 
ATOM     22  C   UNL     1       5.344   4.837  14.577  0.00  0.00    +0.000 C 
ATOM     23  C   UNL     1       6.781   4.349  14.725  0.00  0.00    +0.000 C 
ATOM     24  C   UNL     1       7.095   4.657  16.170  0.00  0.00    +0.000 C 
ATOM     25  O   UNL     1       8.026   4.195  16.807  0.00  0.00    +0.000 OA
ENDBRANCH  19  20
ENDBRANCH  18  19
ENDBRANCH  17  18
ENDBRANCH   3  17
TORSDOF 9
ENDMDL
MODEL 7
REMARK VINA RESULT:      -6.5      2.002      2.991
REMARK  Name = 
REMARK  9 active torsions:
REMARK  status: ('A' for Active; 'I' for Inactive)
REMARK    1  A    between atoms: C_2  and  C_3
REMARK    2  A    between atoms: C_3  and  O_4
REMARK    3  A    between atoms: O_4  and  C_5
REMARK    4  A    between atoms: C_5  and  C_7
REMARK    5  A    between atoms: C_8  and  C_9
REMARK    6  A    between atoms: N_15  and  C_16
REMARK    7  A    between atoms: C_16  and  C_17
REMARK    8  A    between atoms: C_17  and  C_18
REMARK    9  A    between atoms: C_18  and  N_19
REMARK                            x       y       z     vdW  Elec       q    Type
REMARK                         _______ _______ _______ _____ _____    ______ ____
ROOT
ATOM      1  O   UNL     1       7.635   4.289  16.430  0.00  0.00    +0.000 OA
ATOM      2  C   UNL     1       6.853   5.207  16.199  0.00  0.00    +0.000 C 
ATOM      3  N   UNL     1       5.493   5.024  16.045  0.00  0.00    +0.000 N 
ATOM      4  H   UNL     1       4.897   5.843  16.044  0.00  0.00    +0.000 HD
ENDROOT
BRANCH   2   5
ATOM      5  C   UNL     1       7.320   6.660  16.048  0.00  0.00    +0.000 C 
BRANCH   5   6
ATOM      6  O   UNL     1       6.918   7.490  17.137  0.00  0.00    +0.000 OA
BRANCH   6   7
ATOM      7  C   UNL     1       7.879   7.662  18.076  0.00  0.00    +0.000 C 
ATOM      8  O   UNL     1       8.232   6.835  18.905  0.00  0.00    +0.000 OA
BRANCH   7   9
ATOM      9  C   UNL     1       8.420   9.028  17.957  0.00  0.00    +0.000 C 
ATOM     10  C   UNL     1       8.963   9.624  19.029  0.00  0.00    +0.000 C 
BRANCH  10  11
ATOM     11  C   UNL     1       9.483  10.946  18.941  0.00  0.00    +0.000 A 
ATOM     12  C   UNL     1       9.451  11.963  19.889  0.00  0.00    +0.000 A 
ATOM     13  C   UNL     1      10.094  13.097  19.336  0.00  0.00    +0.000 A 
ATOM     14  C   UNL     1      10.490  12.724  18.077  0.00  0.00    +0.000 A 
ATOM     15 BR   UNL     1      11.387  13.816  16.860  0.00  0.00    +0.000 Br
ATOM     16  O   UNL     1      10.131  11.441  17.830  0.00  0.00    +0.000 OA
ENDBRANCH  10  11
ENDBRANCH   7   9
ENDBRANCH   6   7
ENDBRANCH   5   6
ENDBRANCH   2   5
BRANCH   3  17
ATOM     17  C   UNL     1       4.846   3.730  16.197  0.00  0.00    +0.000 C 
BRANCH  17  18
ATOM     18  C   UNL     1       3.758   3.800  17.264  0.00  0.00    +0.000 C 
BRANCH  18  19
ATOM     19  C   UNL     1       4.337   3.788  18.677  0.00  0.00    +0.000 C 
BRANCH  19  20
ATOM     20  N   UNL     1       3.317   3.468  19.662  0.00  0.00    +0.000 N 
ATOM     21  C   UNL     1       1.953   3.919  19.556  0.00  0.00    +0.000 C 
ATOM     22  C   UNL     1       1.417   3.735  20.963  0.00  0.00    +0.000 C 
ATOM     23  C   UNL     1       2.207   2.548  21.503  0.00  0.00    +0.000 C 
ATOM     24  C   UNL     1       3.520   2.653  20.765  0.00  0.00    +0.000 C 
ATOM     25  O   UNL     1       4.554   2.084  21.074  0.00  0.00    +0.000 OA
ENDBRANCH  19  20
ENDBRANCH  18  19
ENDBRANCH  17  18
ENDBRANCH   3  17
TORSDOF 9
ENDMDL
MODEL 8
REMARK VINA RESULT:      -6.5      3.274      6.730
REMARK  Name = 
REMARK  9 active torsions:
REMARK  status: ('A' for Active; 'I' for Inactive)
REMARK    1  A    between atoms: C_2  and  C_3
REMARK    2  A    between atoms: C_3  and  O_4
REMARK    3  A    between atoms: O_4  and  C_5
REMARK    4  A    between atoms: C_5  and  C_7
REMARK    5  A    between atoms: C_8  and  C_9
REMARK    6  A    between atoms: N_15  and  C_16
REMARK    7  A    between atoms: C_16  and  C_17
REMARK    8  A    between atoms: C_17  and  C_18
REMARK    9  A    between atoms: C_18  and  N_19
REMARK                            x       y       z     vdW  Elec       q    Type
REMARK                         _______ _______ _______ _____ _____    ______ ____
ROOT
ATOM      1  O   UNL     1       2.205   3.263  17.050  0.00  0.00    +0.000 OA
ATOM      2  C   UNL     1       3.200   3.070  17.742  0.00  0.00    +0.000 C 
ATOM      3  N   UNL     1       4.487   3.093  17.244  0.00  0.00    +0.000 N 
ATOM      4  H   UNL     1       5.256   3.112  17.904  0.00  0.00    +0.000 HD
ENDROOT
BRANCH   2   5
ATOM      5  C   UNL     1       3.105   2.773  19.245  0.00  0.00    +0.000 C 
BRANCH   5   6
ATOM      6  O   UNL     1       1.905   3.270  19.836  0.00  0.00    +0.000 OA
BRANCH   6   7
ATOM      7  C   UNL     1       2.112   4.008  20.953  0.00  0.00    +0.000 C 
ATOM      8  O   UNL     1       2.448   3.580  22.047  0.00  0.00    +0.000 OA
BRANCH   7   9
ATOM      9  C   UNL     1       1.838   5.423  20.643  0.00  0.00    +0.000 C 
ATOM     10  C   UNL     1       2.308   5.959  19.508  0.00  0.00    +0.000 C 
BRANCH  10  11
ATOM     11  C   UNL     1       2.065   7.325  19.191  0.00  0.00    +0.000 A 
ATOM     12  C   UNL     1       2.356   8.016  18.020  0.00  0.00    +0.000 A 
ATOM     13  C   UNL     1       1.929   9.357  18.186  0.00  0.00    +0.000 A 
ATOM     14  C   UNL     1       1.398   9.425  19.449  0.00  0.00    +0.000 A 
ATOM     15 BR   UNL     1       0.678  10.955  20.235  0.00  0.00    +0.000 Br
ATOM     16  O   UNL     1       1.473   8.218  20.059  0.00  0.00    +0.000 OA
ENDBRANCH  10  11
ENDBRANCH   7   9
ENDBRANCH   6   7
ENDBRANCH   5   6
ENDBRANCH   2   5
BRANCH   3  17
ATOM     17  C   UNL     1       4.794   3.403  15.856  0.00  0.00    +0.000 C 
BRANCH  17  18
ATOM     18  C   UNL     1       6.098   4.187  15.761  0.00  0.00    +0.000 C 
BRANCH  18  19
ATOM     19  C   UNL     1       5.939   5.629  16.238  0.00  0.00    +0.000 C 
BRANCH  19  20
ATOM     20  N   UNL     1       6.847   5.926  17.333  0.00  0.00    +0.000 N 
ATOM     21  C   UNL     1       7.317   4.926  18.258  0.00  0.00    +0.000 C 
ATOM     22  C   UNL     1       7.837   5.748  19.422  0.00  0.00    +0.000 C 
ATOM     23  C   UNL     1       8.316   7.041  18.772  0.00  0.00    +0.000 C 
ATOM     24  C   UNL     1       7.408   7.172  17.573  0.00  0.00    +0.000 C 
ATOM     25  O   UNL     1       7.239   8.187  16.918  0.00  0.00    +0.000 OA
ENDBRANCH  19  20
ENDBRANCH  18  19
ENDBRANCH  17  18
ENDBRANCH   3  17
TORSDOF 9
ENDMDL
MODEL 9
REMARK VINA RESULT:      -6.5      4.483      6.277
REMARK  Name = 
REMARK  9 active torsions:
REMARK  status: ('A' for Active; 'I' for Inactive)
REMARK    1  A    between atoms: C_2  and  C_3
REMARK    2  A    between atoms: C_3  and  O_4
REMARK    3  A    between atoms: O_4  and  C_5
REMARK    4  A    between atoms: C_5  and  C_7
REMARK    5  A    between atoms: C_8  and  C_9
REMARK    6  A    between atoms: N_15  and  C_16
REMARK    7  A    between atoms: C_16  and  C_17
REMARK    8  A    between atoms: C_17  and  C_18
REMARK    9  A    between atoms: C_18  and  N_19
REMARK                            x       y       z     vdW  Elec       q    Type
REMARK                         _______ _______ _______ _____ _____    ______ ____
ROOT
ATOM      1  O   UNL     1       4.517   3.133  17.768  0.00  0.00    +0.000 OA
ATOM      2  C   UNL     1       4.912   3.665  18.802  0.00  0.00    +0.000 C 
ATOM      3  N   UNL     1       4.361   3.415  20.042  0.00  0.00    +0.000 N 
ATOM      4  H   UNL     1       4.858   3.743  20.862  0.00  0.00    +0.000 HD
ENDROOT
BRANCH   2   5
ATOM      5  C   UNL     1       6.065   4.678  18.809  0.00  0.00    +0.000 C 
BRANCH   5   6
ATOM      6  O   UNL     1       6.692   4.817  17.536  0.00  0.00    +0.000 OA
BRANCH   6   7
ATOM      7  C   UNL     1       6.288   5.911  16.845  0.00  0.00    +0.000 C 
ATOM      8  O   UNL     1       6.178   7.044  17.291  0.00  0.00    +0.000 OA
BRANCH   7   9
ATOM      9  C   UNL     1       5.973   5.510  15.463  0.00  0.00    +0.000 C 
ATOM     10  C   UNL     1       6.340   4.297  15.022  0.00  0.00    +0.000 C 
BRANCH  10  11
ATOM     11  C   UNL     1       6.055   3.890  13.688  0.00  0.00    +0.000 A 
ATOM     12  C   UNL     1       6.935   3.473  12.696  0.00  0.00    +0.000 A 
ATOM     13  C   UNL     1       6.178   3.179  11.535  0.00  0.00    +0.000 A 
ATOM     14  C   UNL     1       4.872   3.430  11.869  0.00  0.00    +0.000 A 
ATOM     15 BR   UNL     1       3.409   3.229  10.730  0.00  0.00    +0.000 Br
ATOM     16  O   UNL     1       4.786   3.855  13.153  0.00  0.00    +0.000 OA
ENDBRANCH  10  11
ENDBRANCH   7   9
ENDBRANCH   6   7
ENDBRANCH   5   6
ENDBRANCH   2   5
BRANCH   3  17
ATOM     17  C   UNL     1       3.292   2.452  20.254  0.00  0.00    +0.000 C 
BRANCH  17  18
ATOM     18  C   UNL     1       2.201   3.052  21.135  0.00  0.00    +0.000 C 
BRANCH  18  19
ATOM     19  C   UNL     1       1.116   3.745  20.315  0.00  0.00    +0.000 C 
BRANCH  19  20
ATOM     20  N   UNL     1       1.655   4.872  19.572  0.00  0.00    +0.000 N 
ATOM     21  C   UNL     1       2.231   6.029  20.208  0.00  0.00    +0.000 C 
ATOM     22  C   UNL     1       2.230   7.068  19.103  0.00  0.00    +0.000 C 
ATOM     23  C   UNL     1       2.390   6.247  17.828  0.00  0.00    +0.000 C 
ATOM     24  C   UNL     1       1.735   4.935  18.189  0.00  0.00    +0.000 C 
ATOM     25  O   UNL     1       1.382   4.077  17.397  0.00  0.00    +0.000 OA
ENDBRANCH  19  20
ENDBRANCH  18  19
ENDBRANCH  17  18
ENDBRANCH   3  17
TORSDOF 9
ENDMDL
