MODEL 1
REMARK VINA RESULT:      -8.4      0.000      0.000
REMARK  Name = 
REMARK  4 active torsions:
REMARK  status: ('A' for Active; 'I' for Inactive)
REMARK    1  A    between atoms: C_2  and  C_3
REMARK    2  A    between atoms: C_2  and  C_9
REMARK    3  A    between atoms: N_13  and  C_14
REMARK    4  A    between atoms: C_14  and  C_15
REMARK                            x       y       z     vdW  Elec       q    Type
REMARK                         _______ _______ _______ _____ _____    ______ ____
ROOT
ATOM      1  C   UNL     1       5.793   5.510  16.546  0.00  0.00    +0.000 A 
ATOM      2  C   UNL     1       5.561   6.869  16.735  0.00  0.00    +0.000 A 
ATOM      3  C   UNL     1       4.318   7.031  17.380  0.00  0.00    +0.000 A 
ATOM      4  C   UNL     1       3.789   5.776  17.548  0.00  0.00    +0.000 A 
ATOM      5  N   UNL     1       4.675   4.855  17.035  0.00  0.00    +0.000 N 
ENDROOT
BRANCH   1   7
ATOM      6  O   UNL     1       7.950   4.542  16.583  0.00  0.00    +0.000 OA
ATOM      7  C   UNL     1       6.959   4.880  15.939  0.00  0.00    +0.000 C 
BRANCH   7   8
ATOM      8  C   UNL     1       6.968   4.642  14.463  0.00  0.00    +0.000 A 
ATOM      9  C   UNL     1       7.794   5.426  13.645  0.00  0.00    +0.000 A 
ATOM     10  C   UNL     1       7.800   5.223  12.264  0.00  0.00    +0.000 A 
ATOM     11  C   UNL     1       6.981   4.242  11.694  0.00  0.00    +0.000 A 
ATOM     12  C   UNL     1       6.148   3.473  12.503  0.00  0.00    +0.000 A 
ATOM     13  C   UNL     1       6.135   3.675  13.881  0.00  0.00    +0.000 A 
ENDBRANCH   7   8
ENDBRANCH   1   7
BRANCH   5  14
ATOM     14  C   UNL     1       4.419   3.414  17.022  0.00  0.00    +0.000 C 
BRANCH  14  15
ATOM     15  C   UNL     1       2.994   3.063  17.451  0.00  0.00    +0.000 C 
ATOM     16  O   UNL     1       2.069   3.159  16.637  0.00  0.00    +0.000 OA
ATOM     17  N   UNL     1       2.769   2.573  18.745  0.00  0.00    +0.000 N 
ATOM     18  C   UNL     1       1.425   2.091  19.083  0.00  0.00    +0.000 C 
ATOM     19  C   UNL     1       0.652   3.059  19.978  0.00  0.00    +0.000 C 
ATOM     20  C   UNL     1       1.070   3.091  21.448  0.00  0.00    +0.000 C 
ATOM     21  C   UNL     1       2.560   3.268  21.727  0.00  0.00    +0.000 C 
ATOM     22  C   UNL     1       3.416   2.138  21.166  0.00  0.00    +0.000 C 
ATOM     23  C   UNL     1       3.840   2.387  19.721  0.00  0.00    +0.000 C 
ENDBRANCH  14  15
ENDBRANCH   5  14
TORSDOF 4
ENDMDL
MODEL 2
REMARK VINA RESULT:      -8.4      0.121      1.015
REMARK  Name = 
REMARK  4 active torsions:
REMARK  status: ('A' for Active; 'I' for Inactive)
REMARK    1  A    between atoms: C_2  and  C_3
REMARK    2  A    between atoms: C_2  and  C_9
REMARK    3  A    between atoms: N_13  and  C_14
REMARK    4  A    between atoms: C_14  and  C_15
REMARK                            x       y       z     vdW  Elec       q    Type
REMARK                         _______ _______ _______ _____ _____    ______ ____
ROOT
ATOM      1  C   UNL     1       5.763   5.541  16.492  0.00  0.00    +0.000 A 
ATOM      2  C   UNL     1       5.475   6.897  16.610  0.00  0.00    +0.000 A 
ATOM      3  C   UNL     1       4.260   7.043  17.311  0.00  0.00    +0.000 A 
ATOM      4  C   UNL     1       3.802   5.778  17.583  0.00  0.00    +0.000 A 
ATOM      5  N   UNL     1       4.704   4.868  17.080  0.00  0.00    +0.000 N 
ENDROOT
BRANCH   1   7
ATOM      6  O   UNL     1       7.936   4.611  16.486  0.00  0.00    +0.000 OA
ATOM      7  C   UNL     1       6.925   4.927  15.863  0.00  0.00    +0.000 C 
BRANCH   7   8
ATOM      8  C   UNL     1       6.904   4.678  14.388  0.00  0.00    +0.000 A 
ATOM      9  C   UNL     1       6.022   3.723  13.865  0.00  0.00    +0.000 A 
ATOM     10  C   UNL     1       6.004   3.471  12.492  0.00  0.00    +0.000 A 
ATOM     11  C   UNL     1       6.867   4.166  11.638  0.00  0.00    +0.000 A 
ATOM     12  C   UNL     1       7.755   5.105  12.158  0.00  0.00    +0.000 A 
ATOM     13  C   UNL     1       7.779   5.356  13.528  0.00  0.00    +0.000 A 
ENDBRANCH   7   8
ENDBRANCH   1   7
BRANCH   5  14
ATOM     14  C   UNL     1       4.517   3.419  17.169  0.00  0.00    +0.000 C 
BRANCH  14  15
ATOM     15  C   UNL     1       3.087   3.029  17.543  0.00  0.00    +0.000 C 
ATOM     16  O   UNL     1       2.196   3.082  16.689  0.00  0.00    +0.000 OA
ATOM     17  N   UNL     1       2.822   2.552  18.834  0.00  0.00    +0.000 N 
ATOM     18  C   UNL     1       1.481   2.031  19.122  0.00  0.00    +0.000 C 
ATOM     19  C   UNL     1       0.640   2.988  19.967  0.00  0.00    +0.000 C 
ATOM     20  C   UNL     1       0.993   3.056  21.453  0.00  0.00    +0.000 C 
ATOM     21  C   UNL     1       2.462   3.286  21.792  0.00  0.00    +0.000 C 
ATOM     22  C   UNL     1       3.378   2.175  21.287  0.00  0.00    +0.000 C 
ATOM     23  C   UNL     1       3.855   2.415  19.857  0.00  0.00    +0.000 C 
ENDBRANCH  14  15
ENDBRANCH   5  14
TORSDOF 4
ENDMDL
MODEL 3
REMARK VINA RESULT:      -8.2      2.565      6.588
REMARK  Name = 
REMARK  4 active torsions:
REMARK  status: ('A' for Active; 'I' for Inactive)
REMARK    1  A    between atoms: C_2  and  C_3
REMARK    2  A    between atoms: C_2  and  C_9
REMARK    3  A    between atoms: N_13  and  C_14
REMARK    4  A    between atoms: C_14  and  C_15
REMARK                            x       y       z     vdW  Elec       q    Type
REMARK                         _______ _______ _______ _____ _____    ______ ____
ROOT
ATOM      1  C   UNL     1       2.089   4.640  19.580  0.00  0.00    +0.000 A 
ATOM      2  C   UNL     1       1.261   4.181  20.599  0.00  0.00    +0.000 A 
ATOM      3  C   UNL     1       0.634   2.992  20.172  0.00  0.00    +0.000 A 
ATOM      4  C   UNL     1       1.059   2.756  18.888  0.00  0.00    +0.000 A 
ATOM      5  N   UNL     1       1.931   3.758  18.525  0.00  0.00    +0.000 N 
ENDROOT
BRANCH   1   7
ATOM      6  O   UNL     1       4.157   5.768  19.780  0.00  0.00    +0.000 OA
ATOM      7  C   UNL     1       2.944   5.821  19.590  0.00  0.00    +0.000 C 
BRANCH   7   8
ATOM      8  C   UNL     1       2.326   7.165  19.374  0.00  0.00    +0.000 A 
ATOM      9  C   UNL     1       1.680   7.804  20.442  0.00  0.00    +0.000 A 
ATOM     10  C   UNL     1       1.086   9.053  20.249  0.00  0.00    +0.000 A 
ATOM     11  C   UNL     1       1.130   9.666  18.992  0.00  0.00    +0.000 A 
ATOM     12  C   UNL     1       1.758   9.025  17.925  0.00  0.00    +0.000 A 
ATOM     13  C   UNL     1       2.347   7.777  18.112  0.00  0.00    +0.000 A 
ENDBRANCH   7   8
ENDBRANCH   1   7
BRANCH   5  14
ATOM     14  C   UNL     1       2.559   3.836  17.205  0.00  0.00    +0.000 C 
BRANCH  14  15
ATOM     15  C   UNL     1       4.053   3.511  17.240  0.00  0.00    +0.000 C 
ATOM     16  O   UNL     1       4.427   2.392  17.607  0.00  0.00    +0.000 OA
ATOM     17  N   UNL     1       4.973   4.468  16.790  0.00  0.00    +0.000 N 
ATOM     18  C   UNL     1       6.383   4.080  16.679  0.00  0.00    +0.000 C 
ATOM     19  C   UNL     1       7.252   4.664  17.793  0.00  0.00    +0.000 C 
ATOM     20  C   UNL     1       7.594   6.149  17.666  0.00  0.00    +0.000 C 
ATOM     21  C   UNL     1       6.423   7.097  17.425  0.00  0.00    +0.000 C 
ATOM     22  C   UNL     1       5.680   6.818  16.123  0.00  0.00    +0.000 C 
ATOM     23  C   UNL     1       4.573   5.781  16.291  0.00  0.00    +0.000 C 
ENDBRANCH  14  15
ENDBRANCH   5  14
TORSDOF 4
ENDMDL
MODEL 4
REMARK VINA RESULT:      -8.0      3.269      4.959
REMARK  Name = 
REMARK  4 active torsions:
REMARK  status: ('A' for Active; 'I' for Inactive)
REMARK    1  A    between atoms: C_2  and  C_3
REMARK    2  A    between atoms: C_2  and  C_9
REMARK    3  A    between atoms: N_13  and  C_14
REMARK    4  A    between atoms: C_14  and  C_15
REMARK                            x       y       z     vdW  Elec       q    Type
REMARK                         _______ _______ _______ _____ _____    ______ ____
ROOT
ATOM      1  C   UNL     1       3.604   3.534  18.395  0.00  0.00    +0.000 A 
ATOM      2  C   UNL     1       3.085   2.249  18.518  0.00  0.00    +0.000 A 
ATOM      3  C   UNL     1       1.677   2.323  18.492  0.00  0.00    +0.000 A 
ATOM      4  C   UNL     1       1.351   3.652  18.388  0.00  0.00    +0.000 A 
ATOM      5  N   UNL     1       2.514   4.387  18.339  0.00  0.00    +0.000 N 
ENDROOT
BRANCH   1   7
ATOM      6  O   UNL     1       5.699   4.047  19.361  0.00  0.00    +0.000 OA
ATOM      7  C   UNL     1       5.005   3.930  18.353  0.00  0.00    +0.000 C 
BRANCH   7   8
ATOM      8  C   UNL     1       5.636   4.225  17.029  0.00  0.00    +0.000 A 
ATOM      9  C   UNL     1       6.962   4.675  16.984  0.00  0.00    +0.000 A 
ATOM     10  C   UNL     1       7.557   4.968  15.756  0.00  0.00    +0.000 A 
ATOM     11  C   UNL     1       6.830   4.817  14.569  0.00  0.00    +0.000 A 
ATOM     12  C   UNL     1       5.507   4.383  14.613  0.00  0.00    +0.000 A 
ATOM     13  C   UNL     1       4.909   4.095  15.837  0.00  0.00    +0.000 A 
ENDBRANCH   7   8
ENDBRANCH   1   7
BRANCH   5  14
ATOM     14  C   UNL     1       2.538   5.848  18.255  0.00  0.00    +0.000 C 
BRANCH  14  15
ATOM     15  C   UNL     1       2.115   6.523  19.559  0.00  0.00    +0.000 C 
ATOM     16  O   UNL     1       2.069   5.863  20.603  0.00  0.00    +0.000 OA
ATOM     17  N   UNL     1       1.851   7.900  19.564  0.00  0.00    +0.000 N 
ATOM     18  C   UNL     1       1.606   8.558  20.852  0.00  0.00    +0.000 C 
ATOM     19  C   UNL     1       0.133   8.897  21.077  0.00  0.00    +0.000 C 
ATOM     20  C   UNL     1      -0.404  10.098  20.300  0.00  0.00    +0.000 C 
ATOM     21  C   UNL     1      -0.135  10.111  18.798  0.00  0.00    +0.000 C 
ATOM     22  C   UNL     1       1.351  10.132  18.452  0.00  0.00    +0.000 C 
ATOM     23  C   UNL     1       1.952   8.732  18.367  0.00  0.00    +0.000 C 
ENDBRANCH  14  15
ENDBRANCH   5  14
TORSDOF 4
ENDMDL
MODEL 5
REMARK VINA RESULT:      -8.0      3.251      5.022
REMARK  Name = 
REMARK  4 active torsions:
REMARK  status: ('A' for Active; 'I' for Inactive)
REMARK    1  A    between atoms: C_2  and  C_3
REMARK    2  A    between atoms: C_2  and  C_9
REMARK    3  A    between atoms: N_13  and  C_14
REMARK    4  A    between atoms: C_14  and  C_15
REMARK                            x       y       z     vdW  Elec       q    Type
REMARK                         _______ _______ _______ _____ _____    ______ ____
ROOT
ATOM      1  C   UNL     1       3.647   3.556  18.381  0.00  0.00    +0.000 A 
ATOM      2  C   UNL     1       3.140   2.268  18.519  0.00  0.00    +0.000 A 
ATOM      3  C   UNL     1       1.731   2.332  18.505  0.00  0.00    +0.000 A 
ATOM      4  C   UNL     1       1.394   3.657  18.393  0.00  0.00    +0.000 A 
ATOM      5  N   UNL     1       2.551   4.400  18.328  0.00  0.00    +0.000 N 
ENDROOT
BRANCH   1   7
ATOM      6  O   UNL     1       5.751   4.082  19.323  0.00  0.00    +0.000 OA
ATOM      7  C   UNL     1       5.046   3.962  18.323  0.00  0.00    +0.000 C 
BRANCH   7   8
ATOM      8  C   UNL     1       5.658   4.265  16.993  0.00  0.00    +0.000 A 
ATOM      9  C   UNL     1       4.910   4.053  15.827  0.00  0.00    +0.000 A 
ATOM     10  C   UNL     1       5.476   4.318  14.579  0.00  0.00    +0.000 A 
ATOM     11  C   UNL     1       6.790   4.791  14.489  0.00  0.00    +0.000 A 
ATOM     12  C   UNL     1       7.540   4.988  15.646  0.00  0.00    +0.000 A 
ATOM     13  C   UNL     1       6.981   4.720  16.893  0.00  0.00    +0.000 A 
ENDBRANCH   7   8
ENDBRANCH   1   7
BRANCH   5  14
ATOM     14  C   UNL     1       2.563   5.861  18.231  0.00  0.00    +0.000 C 
BRANCH  14  15
ATOM     15  C   UNL     1       2.131   6.543  19.529  0.00  0.00    +0.000 C 
ATOM     16  O   UNL     1       2.079   5.889  20.577  0.00  0.00    +0.000 OA
ATOM     17  N   UNL     1       1.864   7.919  19.524  0.00  0.00    +0.000 N 
ATOM     18  C   UNL     1       1.610   8.584  20.807  0.00  0.00    +0.000 C 
ATOM     19  C   UNL     1       0.135   8.922  21.020  0.00  0.00    +0.000 C 
ATOM     20  C   UNL     1      -0.399  10.118  20.232  0.00  0.00    +0.000 C 
ATOM     21  C   UNL     1      -0.121  10.122  18.732  0.00  0.00    +0.000 C 
ATOM     22  C   UNL     1       1.367  10.144  18.396  0.00  0.00    +0.000 C 
ATOM     23  C   UNL     1       1.971   8.744  18.323  0.00  0.00    +0.000 C 
ENDBRANCH  14  15
ENDBRANCH   5  14
TORSDOF 4
ENDMDL
MODEL 6
REMARK VINA RESULT:      -7.8      0.994      1.599
REMARK  Name = 
REMARK  4 active torsions:
REMARK  status: ('A' for Active; 'I' for Inactive)
REMARK    1  A    between atoms: C_2  and  C_3
REMARK    2  A    between atoms: C_2  and  C_9
REMARK    3  A    between atoms: N_13  and  C_14
REMARK    4  A    between atoms: C_14  and  C_15
REMARK                            x       y       z     vdW  Elec       q    Type
REMARK                         _______ _______ _______ _____ _____    ______ ____
ROOT
ATOM      1  C   UNL     1       5.864   5.708  16.488  0.00  0.00    +0.000 A 
ATOM      2  C   UNL     1       5.276   6.885  16.037  0.00  0.00    +0.000 A 
ATOM      3  C   UNL     1       4.277   7.273  16.955  0.00  0.00    +0.000 A 
ATOM      4  C   UNL     1       4.243   6.314  17.936  0.00  0.00    +0.000 A 
ATOM      5  N   UNL     1       5.195   5.361  17.650  0.00  0.00    +0.000 N 
ENDROOT
BRANCH   1   7
ATOM      6  O   UNL     1       7.941   4.581  16.490  0.00  0.00    +0.000 OA
ATOM      7  C   UNL     1       6.951   4.960  15.870  0.00  0.00    +0.000 C 
BRANCH   7   8
ATOM      8  C   UNL     1       6.875   4.646  14.409  0.00  0.00    +0.000 A 
ATOM      9  C   UNL     1       5.952   3.694  13.957  0.00  0.00    +0.000 A 
ATOM     10  C   UNL     1       5.883   3.381  12.598  0.00  0.00    +0.000 A 
ATOM     11  C   UNL     1       6.736   4.014  11.687  0.00  0.00    +0.000 A 
ATOM     12  C   UNL     1       7.665   4.950  12.137  0.00  0.00    +0.000 A 
ATOM     13  C   UNL     1       7.740   5.260  13.492  0.00  0.00    +0.000 A 
ENDBRANCH   7   8
ENDBRANCH   1   7
BRANCH   5  14
ATOM     14  C   UNL     1       5.415   4.174  18.477  0.00  0.00    +0.000 C 
BRANCH  14  15
ATOM     15  C   UNL     1       4.316   3.124  18.310  0.00  0.00    +0.000 C 
ATOM     16  O   UNL     1       4.335   2.370  17.332  0.00  0.00    +0.000 OA
ATOM     17  N   UNL     1       3.340   2.989  19.308  0.00  0.00    +0.000 N 
ATOM     18  C   UNL     1       2.394   1.873  19.209  0.00  0.00    +0.000 C 
ATOM     19  C   UNL     1       0.999   2.312  18.763  0.00  0.00    +0.000 C 
ATOM     20  C   UNL     1       0.148   3.013  19.822  0.00  0.00    +0.000 C 
ATOM     21  C   UNL     1       0.802   4.177  20.559  0.00  0.00    +0.000 C 
ATOM     22  C   UNL     1       2.041   3.769  21.350  0.00  0.00    +0.000 C 
ATOM     23  C   UNL     1       3.314   3.818  20.510  0.00  0.00    +0.000 C 
ENDBRANCH  14  15
ENDBRANCH   5  14
TORSDOF 4
ENDMDL
MODEL 7
REMARK VINA RESULT:      -7.8      1.009      1.254
REMARK  Name = 
REMARK  4 active torsions:
REMARK  status: ('A' for Active; 'I' for Inactive)
REMARK    1  A    between atoms: C_2  and  C_3
REMARK    2  A    between atoms: C_2  and  C_9
REMARK    3  A    between atoms: N_13  and  C_14
REMARK    4  A    between atoms: C_14  and  C_15
REMARK                            x       y       z     vdW  Elec       q    Type
REMARK                         _______ _______ _______ _____ _____    ______ ____
ROOT
ATOM      1  C   UNL     1       5.857   5.681  16.438  0.00  0.00    +0.000 A 
ATOM      2  C   UNL     1       5.276   6.858  15.979  0.00  0.00    +0.000 A 
ATOM      3  C   UNL     1       4.290   7.266  16.902  0.00  0.00    +0.000 A 
ATOM      4  C   UNL     1       4.256   6.318  17.894  0.00  0.00    +0.000 A 
ATOM      5  N   UNL     1       5.196   5.353  17.610  0.00  0.00    +0.000 N 
ENDROOT
BRANCH   1   7
ATOM      6  O   UNL     1       7.939   4.561  16.425  0.00  0.00    +0.000 OA
ATOM      7  C   UNL     1       6.931   4.916  15.817  0.00  0.00    +0.000 C 
BRANCH   7   8
ATOM      8  C   UNL     1       6.821   4.554  14.370  0.00  0.00    +0.000 A 
ATOM      9  C   UNL     1       7.693   5.144  13.445  0.00  0.00    +0.000 A 
ATOM     10  C   UNL     1       7.590   4.825  12.090  0.00  0.00    +0.000 A 
ATOM     11  C   UNL     1       6.615   3.921  11.653  0.00  0.00    +0.000 A 
ATOM     12  C   UNL     1       5.738   3.345  12.569  0.00  0.00    +0.000 A 
ATOM     13  C   UNL     1       5.834   3.664  13.921  0.00  0.00    +0.000 A 
ENDBRANCH   7   8
ENDBRANCH   1   7
BRANCH   5  14
ATOM     14  C   UNL     1       5.414   4.173  18.448  0.00  0.00    +0.000 C 
BRANCH  14  15
ATOM     15  C   UNL     1       4.310   3.127  18.295  0.00  0.00    +0.000 C 
ATOM     16  O   UNL     1       4.321   2.362  17.324  0.00  0.00    +0.000 OA
ATOM     17  N   UNL     1       3.336   3.007  19.296  0.00  0.00    +0.000 N 
ATOM     18  C   UNL     1       2.383   1.895  19.212  0.00  0.00    +0.000 C 
ATOM     19  C   UNL     1       0.990   2.336  18.766  0.00  0.00    +0.000 C 
ATOM     20  C   UNL     1       0.145   3.052  19.819  0.00  0.00    +0.000 C 
ATOM     21  C   UNL     1       0.807   4.221  20.543  0.00  0.00    +0.000 C 
ATOM     22  C   UNL     1       2.046   3.814  21.334  0.00  0.00    +0.000 C 
ATOM     23  C   UNL     1       3.318   3.849  20.490  0.00  0.00    +0.000 C 
ENDBRANCH  14  15
ENDBRANCH   5  14
TORSDOF 4
ENDMDL
MODEL 8
REMARK VINA RESULT:      -7.6      3.371      5.465
REMARK  Name = 
REMARK  4 active torsions:
REMARK  status: ('A' for Active; 'I' for Inactive)
REMARK    1  A    between atoms: C_2  and  C_3
REMARK    2  A    between atoms: C_2  and  C_9
REMARK    3  A    between atoms: N_13  and  C_14
REMARK    4  A    between atoms: C_14  and  C_15
REMARK                            x       y       z     vdW  Elec       q    Type
REMARK                         _______ _______ _______ _____ _____    ______ ____
ROOT
ATOM      1  C   UNL     1       3.227   3.226  18.895  0.00  0.00    +0.000 A 
ATOM      2  C   UNL     1       2.490   2.047  18.882  0.00  0.00    +0.000 A 
ATOM      3  C   UNL     1       1.155   2.351  18.542  0.00  0.00    +0.000 A 
ATOM      4  C   UNL     1       1.084   3.713  18.385  0.00  0.00    +0.000 A 
ATOM      5  N   UNL     1       2.334   4.244  18.608  0.00  0.00    +0.000 N 
ENDROOT
BRANCH   1   7
ATOM      6  O   UNL     1       5.215   2.828  20.111  0.00  0.00    +0.000 OA
ATOM      7  C   UNL     1       4.649   3.385  19.173  0.00  0.00    +0.000 C 
BRANCH   7   8
ATOM      8  C   UNL     1       5.464   4.278  18.293  0.00  0.00    +0.000 A 
ATOM      9  C   UNL     1       5.434   4.089  16.905  0.00  0.00    +0.000 A 
ATOM     10  C   UNL     1       6.202   4.907  16.074  0.00  0.00    +0.000 A 
ATOM     11  C   UNL     1       7.005   5.912  16.624  0.00  0.00    +0.000 A 
ATOM     12  C   UNL     1       7.048   6.092  18.005  0.00  0.00    +0.000 A 
ATOM     13  C   UNL     1       6.287   5.276  18.838  0.00  0.00    +0.000 A 
ENDBRANCH   7   8
ENDBRANCH   1   7
BRANCH   5  14
ATOM     14  C   UNL     1       2.618   5.680  18.550  0.00  0.00    +0.000 C 
BRANCH  14  15
ATOM     15  C   UNL     1       2.105   6.434  19.777  0.00  0.00    +0.000 C 
ATOM     16  O   UNL     1       1.965   5.836  20.849  0.00  0.00    +0.000 OA
ATOM     17  N   UNL     1       1.864   7.812  19.682  0.00  0.00    +0.000 N 
ATOM     18  C   UNL     1       1.529   8.546  20.908  0.00  0.00    +0.000 C 
ATOM     19  C   UNL     1       0.049   8.915  20.995  0.00  0.00    +0.000 C 
ATOM     20  C   UNL     1      -0.405  10.076  20.110  0.00  0.00    +0.000 C 
ATOM     21  C   UNL     1      -0.018   9.999  18.636  0.00  0.00    +0.000 C 
ATOM     22  C   UNL     1       1.490   9.982  18.410  0.00  0.00    +0.000 C 
ATOM     23  C   UNL     1       2.073   8.572  18.453  0.00  0.00    +0.000 C 
ENDBRANCH  14  15
ENDBRANCH   5  14
TORSDOF 4
ENDMDL
MODEL 9
REMARK VINA RESULT:      -7.5      3.368      6.659
REMARK  Name = 
REMARK  4 active torsions:
REMARK  status: ('A' for Active; 'I' for Inactive)
REMARK    1  A    between atoms: C_2  and  C_3
REMARK    2  A    between atoms: C_2  and  C_9
REMARK    3  A    between atoms: N_13  and  C_14
REMARK    4  A    between atoms: C_14  and  C_15
REMARK                            x       y       z     vdW  Elec       q    Type
REMARK                         _______ _______ _______ _____ _____    ______ ____
ROOT
ATOM      1  C   UNL     1       3.962   4.727  17.471  0.00  0.00    +0.000 A 
ATOM      2  C   UNL     1       5.315   4.543  17.203  0.00  0.00    +0.000 A 
ATOM      3  C   UNL     1       5.941   5.806  17.151  0.00  0.00    +0.000 A 
ATOM      4  C   UNL     1       4.962   6.746  17.352  0.00  0.00    +0.000 A 
ATOM      5  N   UNL     1       3.762   6.096  17.536  0.00  0.00    +0.000 N 
ENDROOT
BRANCH   1   7
ATOM      6  O   UNL     1       2.400   3.137  16.684  0.00  0.00    +0.000 OA
ATOM      7  C   UNL     1       2.938   3.703  17.633  0.00  0.00    +0.000 C 
BRANCH   7   8
ATOM      8  C   UNL     1       2.503   3.325  19.013  0.00  0.00    +0.000 A 
ATOM      9  C   UNL     1       1.146   3.411  19.354  0.00  0.00    +0.000 A 
ATOM     10  C   UNL     1       0.730   3.075  20.644  0.00  0.00    +0.000 A 
ATOM     11  C   UNL     1       1.665   2.656  21.597  0.00  0.00    +0.000 A 
ATOM     12  C   UNL     1       3.016   2.584  21.265  0.00  0.00    +0.000 A 
ATOM     13  C   UNL     1       3.435   2.923  19.981  0.00  0.00    +0.000 A 
ENDBRANCH   7   8
ENDBRANCH   1   7
BRANCH   5  14
ATOM     14  C   UNL     1       2.495   6.795  17.752  0.00  0.00    +0.000 C 
BRANCH  14  15
ATOM     15  C   UNL     1       2.275   7.185  19.214  0.00  0.00    +0.000 C 
ATOM     16  O   UNL     1       2.603   6.402  20.112  0.00  0.00    +0.000 OA
ATOM     17  N   UNL     1       1.766   8.456  19.515  0.00  0.00    +0.000 N 
ATOM     18  C   UNL     1       1.716   8.870  20.922  0.00  0.00    +0.000 C 
ATOM     19  C   UNL     1       0.302   8.841  21.501  0.00  0.00    +0.000 C 
ATOM     20  C   UNL     1      -0.620   9.983  21.075  0.00  0.00    +0.000 C 
ATOM     21  C   UNL     1      -0.724  10.250  19.576  0.00  0.00    +0.000 C 
ATOM     22  C   UNL     1       0.606  10.645  18.942  0.00  0.00    +0.000 C 
ATOM     23  C   UNL     1       1.422   9.437  18.489  0.00  0.00    +0.000 C 
ENDBRANCH  14  15
ENDBRANCH   5  14
TORSDOF 4
ENDMDL
