MODEL 1
REMARK VINA RESULT:      -8.4      0.000      0.000
REMARK  Name = 
REMARK  6 active torsions:
REMARK  status: ('A' for Active; 'I' for Inactive)
REMARK    1  A    between atoms: C_3  and  O_4
REMARK    2  A    between atoms: N_8  and  C_9
REMARK    3  A    between atoms: C_9  and  S_10
REMARK    4  A    between atoms: S_10  and  C_13
REMARK    5  A    between atoms: C_16  and  O_17
REMARK    6  A    between atoms: O_17  and  C_18
REMARK                            x       y       z     vdW  Elec       q    Type
REMARK                         _______ _______ _______ _____ _____    ______ ____
ROOT
ATOM      1  C   UNL     1       2.395   7.015  18.872  0.00  0.00    +0.000 A 
ATOM      2  C   UNL     1       2.415   7.769  17.694  0.00  0.00    +0.000 A 
ATOM      3  C   UNL     1       1.881   9.063  17.696  0.00  0.00    +0.000 A 
ATOM      4  C   UNL     1       1.333   9.597  18.865  0.00  0.00    +0.000 A 
ATOM      5  C   UNL     1       1.370   8.850  20.050  0.00  0.00    +0.000 A 
ATOM      6  C   UNL     1       1.860   7.545  20.048  0.00  0.00    +0.000 A 
ENDROOT
BRANCH   1   7
ATOM      7  S   UNL     1       3.015   5.345  18.889  0.00  0.00    +0.000 S 
ATOM      8  O   UNL     1       1.901   4.471  18.575  0.00  0.00    +0.000 OA
ATOM      9  O   UNL     1       3.736   5.205  20.139  0.00  0.00    +0.000 OA
BRANCH   7  10
ATOM     10  C   UNL     1       4.195   5.311  17.520  0.00  0.00    +0.000 C 
BRANCH  10  17
ATOM     11  O   UNL     1       6.115   4.067  19.161  0.00  0.00    +0.000 OA
ATOM     12  C   UNL     1       6.364   5.165  18.665  0.00  0.00    +0.000 A 
ATOM     13  C   UNL     1       7.671   5.825  19.007  0.00  0.00    +0.000 A 
ATOM     14  C   UNL     1       7.986   7.000  18.448  0.00  0.00    +0.000 A 
ATOM     15  C   UNL     1       7.092   7.626  17.509  0.00  0.00    +0.000 A 
ATOM     16  C   UNL     1       5.914   7.059  17.216  0.00  0.00    +0.000 A 
ATOM     17  N   UNL     1       5.531   5.857  17.794  0.00  0.00    +0.000 N 
BRANCH  13  18
ATOM     18  O   UNL     1       8.514   5.194  19.902  0.00  0.00    +0.000 OA
ATOM     19  H   UNL     1       8.455   4.244  19.671  0.00  0.00    +0.000 HD
ENDBRANCH  13  18
ENDBRANCH  10  17
ENDBRANCH   7  10
ENDBRANCH   1   7
BRANCH   4  20
ATOM     20  O   UNL     1       0.794  10.865  18.769  0.00  0.00    +0.000 OA
BRANCH  20  21
ATOM     21  C   UNL     1      -0.577  10.989  18.678  0.00  0.00    +0.000 A 
ATOM     22  C   UNL     1      -1.239  10.134  17.794  0.00  0.00    +0.000 A 
ATOM     23  C   UNL     1      -2.617  10.279  17.589  0.00  0.00    +0.000 A 
ATOM     24  C   UNL     1      -3.315  11.275  18.266  0.00  0.00    +0.000 A 
ATOM     25 CL   UNL     1      -4.985  11.527  17.941  0.00  0.00    +0.000 Cl
ATOM     26  C   UNL     1      -2.670  12.083  19.202  0.00  0.00    +0.000 A 
ATOM     27  C   UNL     1      -1.305  11.913  19.433  0.00  0.00    +0.000 A 
ENDBRANCH  20  21
ENDBRANCH   4  20
TORSDOF 6
ENDMDL
MODEL 2
REMARK VINA RESULT:      -8.3      1.573      2.008
REMARK  Name = 
REMARK  6 active torsions:
REMARK  status: ('A' for Active; 'I' for Inactive)
REMARK    1  A    between atoms: C_3  and  O_4
REMARK    2  A    between atoms: N_8  and  C_9
REMARK    3  A    between atoms: C_9  and  S_10
REMARK    4  A    between atoms: S_10  and  C_13
REMARK    5  A    between atoms: C_16  and  O_17
REMARK    6  A    between atoms: O_17  and  C_18
REMARK                            x       y       z     vdW  Elec       q    Type
REMARK                         _______ _______ _______ _____ _____    ______ ____
ROOT
ATOM      1  C   UNL     1       2.386   5.377  18.919  0.00  0.00    +0.000 A 
ATOM      2  C   UNL     1       2.591   6.173  17.787  0.00  0.00    +0.000 A 
ATOM      3  C   UNL     1       2.428   7.559  17.881  0.00  0.00    +0.000 A 
ATOM      4  C   UNL     1       2.062   8.145  19.095  0.00  0.00    +0.000 A 
ATOM      5  C   UNL     1       1.914   7.341  20.233  0.00  0.00    +0.000 A 
ATOM      6  C   UNL     1       2.032   5.955  20.140  0.00  0.00    +0.000 A 
ENDROOT
BRANCH   1   7
ATOM      7  S   UNL     1       2.532   3.605  18.819  0.00  0.00    +0.000 S 
ATOM      8  O   UNL     1       2.087   3.212  17.496  0.00  0.00    +0.000 OA
ATOM      9  O   UNL     1       1.875   3.088  20.004  0.00  0.00    +0.000 OA
BRANCH   7  10
ATOM     10  C   UNL     1       4.310   3.311  18.954  0.00  0.00    +0.000 C 
BRANCH  10  17
ATOM     11  O   UNL     1       6.281   5.150  19.764  0.00  0.00    +0.000 OA
ATOM     12  C   UNL     1       6.070   4.980  18.563  0.00  0.00    +0.000 A 
ATOM     13  C   UNL     1       6.841   5.812  17.576  0.00  0.00    +0.000 A 
ATOM     14  C   UNL     1       6.660   5.618  16.264  0.00  0.00    +0.000 A 
ATOM     15  C   UNL     1       5.750   4.607  15.792  0.00  0.00    +0.000 A 
ATOM     16  C   UNL     1       5.041   3.877  16.663  0.00  0.00    +0.000 A 
ATOM     17  N   UNL     1       5.170   4.064  18.032  0.00  0.00    +0.000 N 
BRANCH  13  18
ATOM     18  O   UNL     1       7.716   6.766  18.058  0.00  0.00    +0.000 OA
ATOM     19  H   UNL     1       8.330   6.938  17.315  0.00  0.00    +0.000 HD
ENDBRANCH  13  18
ENDBRANCH  10  17
ENDBRANCH   7  10
ENDBRANCH   1   7
BRANCH   4  20
ATOM     20  O   UNL     1       1.885   9.515  19.090  0.00  0.00    +0.000 OA
BRANCH  20  21
ATOM     21  C   UNL     1       0.597  10.009  19.098  0.00  0.00    +0.000 A 
ATOM     22  C   UNL     1      -0.183   9.780  17.962  0.00  0.00    +0.000 A 
ATOM     23  C   UNL     1      -1.464  10.339  17.874  0.00  0.00    +0.000 A 
ATOM     24  C   UNL     1      -1.948  11.121  18.920  0.00  0.00    +0.000 A 
ATOM     25 CL   UNL     1      -3.476  11.897  18.774  0.00  0.00    +0.000 Cl
ATOM     26  C   UNL     1      -1.201  11.293  20.084  0.00  0.00    +0.000 A 
ATOM     27  C   UNL     1       0.059  10.704  20.186  0.00  0.00    +0.000 A 
ENDBRANCH  20  21
ENDBRANCH   4  20
TORSDOF 6
ENDMDL
MODEL 3
REMARK VINA RESULT:      -8.2      6.237      9.023
REMARK  Name = 
REMARK  6 active torsions:
REMARK  status: ('A' for Active; 'I' for Inactive)
REMARK    1  A    between atoms: C_3  and  O_4
REMARK    2  A    between atoms: N_8  and  C_9
REMARK    3  A    between atoms: C_9  and  S_10
REMARK    4  A    between atoms: S_10  and  C_13
REMARK    5  A    between atoms: C_16  and  O_17
REMARK    6  A    between atoms: O_17  and  C_18
REMARK                            x       y       z     vdW  Elec       q    Type
REMARK                         _______ _______ _______ _____ _____    ______ ____
ROOT
ATOM      1  C   UNL     1       5.815   5.152  17.428  0.00  0.00    +0.000 A 
ATOM      2  C   UNL     1       6.923   4.464  16.922  0.00  0.00    +0.000 A 
ATOM      3  C   UNL     1       7.218   4.543  15.556  0.00  0.00    +0.000 A 
ATOM      4  C   UNL     1       6.412   5.303  14.705  0.00  0.00    +0.000 A 
ATOM      5  C   UNL     1       5.338   6.029  15.235  0.00  0.00    +0.000 A 
ATOM      6  C   UNL     1       5.011   5.923  16.586  0.00  0.00    +0.000 A 
ENDROOT
BRANCH   1   7
ATOM      7  S   UNL     1       5.380   5.026  19.150  0.00  0.00    +0.000 S 
ATOM      8  O   UNL     1       4.216   5.866  19.362  0.00  0.00    +0.000 OA
ATOM      9  O   UNL     1       6.607   5.266  19.885  0.00  0.00    +0.000 OA
BRANCH   7  10
ATOM     10  C   UNL     1       4.902   3.295  19.349  0.00  0.00    +0.000 C 
BRANCH  10  17
ATOM     11  O   UNL     1       2.815   2.540  17.617  0.00  0.00    +0.000 OA
ATOM     12  C   UNL     1       2.574   2.725  18.810  0.00  0.00    +0.000 A 
ATOM     13  C   UNL     1       1.152   2.595  19.280  0.00  0.00    +0.000 A 
ATOM     14  C   UNL     1       0.868   2.751  20.579  0.00  0.00    +0.000 A 
ATOM     15  C   UNL     1       1.915   3.022  21.530  0.00  0.00    +0.000 A 
ATOM     16  C   UNL     1       3.181   3.164  21.117  0.00  0.00    +0.000 A 
ATOM     17  N   UNL     1       3.519   3.043  19.777  0.00  0.00    +0.000 N 
BRANCH  13  18
ATOM     18  O   UNL     1       0.171   2.323  18.347  0.00  0.00    +0.000 OA
ATOM     19  H   UNL     1       0.636   2.340  17.485  0.00  0.00    +0.000 HD
ENDBRANCH  13  18
ENDBRANCH  10  17
ENDBRANCH   7  10
ENDBRANCH   1   7
BRANCH   4  20
ATOM     20  O   UNL     1       6.752   5.295  13.366  0.00  0.00    +0.000 OA
BRANCH  20  21
ATOM     21  C   UNL     1       6.581   4.127  12.653  0.00  0.00    +0.000 A 
ATOM     22  C   UNL     1       5.283   3.615  12.567  0.00  0.00    +0.000 A 
ATOM     23  C   UNL     1       5.063   2.383  11.938  0.00  0.00    +0.000 A 
ATOM     24  C   UNL     1       6.139   1.678  11.405  0.00  0.00    +0.000 A 
ATOM     25 CL   UNL     1       5.890   0.118  10.726  0.00  0.00    +0.000 Cl
ATOM     26  C   UNL     1       7.423   2.220  11.427  0.00  0.00    +0.000 A 
ATOM     27  C   UNL     1       7.636   3.464  12.019  0.00  0.00    +0.000 A 
ENDBRANCH  20  21
ENDBRANCH   4  20
TORSDOF 6
ENDMDL
MODEL 4
REMARK VINA RESULT:      -8.2      1.700      2.562
REMARK  Name = 
REMARK  6 active torsions:
REMARK  status: ('A' for Active; 'I' for Inactive)
REMARK    1  A    between atoms: C_3  and  O_4
REMARK    2  A    between atoms: N_8  and  C_9
REMARK    3  A    between atoms: C_9  and  S_10
REMARK    4  A    between atoms: S_10  and  C_13
REMARK    5  A    between atoms: C_16  and  O_17
REMARK    6  A    between atoms: O_17  and  C_18
REMARK                            x       y       z     vdW  Elec       q    Type
REMARK                         _______ _______ _______ _____ _____    ______ ____
ROOT
ATOM      1  C   UNL     1       2.296   5.104  19.012  0.00  0.00    +0.000 A 
ATOM      2  C   UNL     1       1.841   5.480  20.281  0.00  0.00    +0.000 A 
ATOM      3  C   UNL     1       1.694   6.838  20.586  0.00  0.00    +0.000 A 
ATOM      4  C   UNL     1       2.000   7.810  19.631  0.00  0.00    +0.000 A 
ATOM      5  C   UNL     1       2.402   7.418  18.348  0.00  0.00    +0.000 A 
ATOM      6  C   UNL     1       2.593   6.069  18.048  0.00  0.00    +0.000 A 
ENDROOT
BRANCH   1   7
ATOM      7  S   UNL     1       2.547   3.387  18.612  0.00  0.00    +0.000 S 
ATOM      8  O   UNL     1       2.191   3.215  17.216  0.00  0.00    +0.000 OA
ATOM      9  O   UNL     1       1.862   2.637  19.647  0.00  0.00    +0.000 OA
BRANCH   7  10
ATOM     10  C   UNL     1       4.330   3.157  18.798  0.00  0.00    +0.000 C 
BRANCH  10  17
ATOM     11  O   UNL     1       6.186   5.046  19.753  0.00  0.00    +0.000 OA
ATOM     12  C   UNL     1       6.028   4.914  18.539  0.00  0.00    +0.000 A 
ATOM     13  C   UNL     1       6.797   5.817  17.615  0.00  0.00    +0.000 A 
ATOM     14  C   UNL     1       6.674   5.668  16.291  0.00  0.00    +0.000 A 
ATOM     15  C   UNL     1       5.828   4.638  15.746  0.00  0.00    +0.000 A 
ATOM     16  C   UNL     1       5.119   3.845  16.560  0.00  0.00    +0.000 A 
ATOM     17  N   UNL     1       5.189   3.983  17.939  0.00  0.00    +0.000 N 
BRANCH  13  18
ATOM     18  O   UNL     1       7.610   6.787  18.167  0.00  0.00    +0.000 OA
ATOM     19  H   UNL     1       7.263   6.916  19.074  0.00  0.00    +0.000 HD
ENDBRANCH  13  18
ENDBRANCH  10  17
ENDBRANCH   7  10
ENDBRANCH   1   7
BRANCH   4  20
ATOM     20  O   UNL     1       1.863   9.127  20.027  0.00  0.00    +0.000 OA
BRANCH  20  21
ATOM     21  C   UNL     1       0.730   9.812  19.642  0.00  0.00    +0.000 A 
ATOM     22  C   UNL     1       0.121  10.629  20.598  0.00  0.00    +0.000 A 
ATOM     23  C   UNL     1      -1.085  11.274  20.295  0.00  0.00    +0.000 A 
ATOM     24  C   UNL     1      -1.667  11.094  19.043  0.00  0.00    +0.000 A 
ATOM     25 CL   UNL     1      -3.199  11.797  18.700  0.00  0.00    +0.000 Cl
ATOM     26  C   UNL     1      -1.026  10.337  18.064  0.00  0.00    +0.000 A 
ATOM     27  C   UNL     1       0.194   9.726  18.354  0.00  0.00    +0.000 A 
ENDBRANCH  20  21
ENDBRANCH   4  20
TORSDOF 6
ENDMDL
MODEL 5
REMARK VINA RESULT:      -8.1      2.079      2.953
REMARK  Name = 
REMARK  6 active torsions:
REMARK  status: ('A' for Active; 'I' for Inactive)
REMARK    1  A    between atoms: C_3  and  O_4
REMARK    2  A    between atoms: N_8  and  C_9
REMARK    3  A    between atoms: C_9  and  S_10
REMARK    4  A    between atoms: S_10  and  C_13
REMARK    5  A    between atoms: C_16  and  O_17
REMARK    6  A    between atoms: O_17  and  C_18
REMARK                            x       y       z     vdW  Elec       q    Type
REMARK                         _______ _______ _______ _____ _____    ______ ____
ROOT
ATOM      1  C   UNL     1       2.298   4.810  18.686  0.00  0.00    +0.000 A 
ATOM      2  C   UNL     1       1.878   4.939  20.014  0.00  0.00    +0.000 A 
ATOM      3  C   UNL     1       1.765   6.214  20.579  0.00  0.00    +0.000 A 
ATOM      4  C   UNL     1       2.071   7.349  19.824  0.00  0.00    +0.000 A 
ATOM      5  C   UNL     1       2.438   7.206  18.479  0.00  0.00    +0.000 A 
ATOM      6  C   UNL     1       2.594   5.939  17.919  0.00  0.00    +0.000 A 
ENDROOT
BRANCH   1   7
ATOM      7  S   UNL     1       2.505   3.199  17.954  0.00  0.00    +0.000 S 
ATOM      8  O   UNL     1       2.266   3.341  16.530  0.00  0.00    +0.000 OA
ATOM      9  O   UNL     1       1.699   2.297  18.753  0.00  0.00    +0.000 OA
BRANCH   7  10
ATOM     10  C   UNL     1       4.253   2.825  18.223  0.00  0.00    +0.000 C 
BRANCH  10  17
ATOM     11  O   UNL     1       5.368   3.780  15.822  0.00  0.00    +0.000 OA
ATOM     12  C   UNL     1       5.701   4.294  16.889  0.00  0.00    +0.000 A 
ATOM     13  C   UNL     1       6.742   5.379  16.867  0.00  0.00    +0.000 A 
ATOM     14  C   UNL     1       7.093   5.983  18.008  0.00  0.00    +0.000 A 
ATOM     15  C   UNL     1       6.468   5.615  19.253  0.00  0.00    +0.000 A 
ATOM     16  C   UNL     1       5.558   4.633  19.287  0.00  0.00    +0.000 A 
ATOM     17  N   UNL     1       5.185   3.957  18.135  0.00  0.00    +0.000 N 
BRANCH  13  18
ATOM     18  O   UNL     1       7.315   5.719  15.656  0.00  0.00    +0.000 OA
ATOM     19  H   UNL     1       7.931   6.450  15.870  0.00  0.00    +0.000 HD
ENDBRANCH  13  18
ENDBRANCH  10  17
ENDBRANCH   7  10
ENDBRANCH   1   7
BRANCH   4  20
ATOM     20  O   UNL     1       1.969   8.565  20.471  0.00  0.00    +0.000 OA
BRANCH  20  21
ATOM     21  C   UNL     1       0.969   9.432  20.083  0.00  0.00    +0.000 A 
ATOM     22  C   UNL     1       0.247  10.069  21.096  0.00  0.00    +0.000 A 
ATOM     23  C   UNL     1      -0.842  10.886  20.764  0.00  0.00    +0.000 A 
ATOM     24  C   UNL     1      -1.196  11.053  19.428  0.00  0.00    +0.000 A 
ATOM     25 CL   UNL     1      -2.594  11.969  19.020  0.00  0.00    +0.000 Cl
ATOM     26  C   UNL     1      -0.434  10.477  18.413  0.00  0.00    +0.000 A 
ATOM     27  C   UNL     1       0.672   9.695  18.743  0.00  0.00    +0.000 A 
ENDBRANCH  20  21
ENDBRANCH   4  20
TORSDOF 6
ENDMDL
MODEL 6
REMARK VINA RESULT:      -8.1      2.011      2.690
REMARK  Name = 
REMARK  6 active torsions:
REMARK  status: ('A' for Active; 'I' for Inactive)
REMARK    1  A    between atoms: C_3  and  O_4
REMARK    2  A    between atoms: N_8  and  C_9
REMARK    3  A    between atoms: C_9  and  S_10
REMARK    4  A    between atoms: S_10  and  C_13
REMARK    5  A    between atoms: C_16  and  O_17
REMARK    6  A    between atoms: O_17  and  C_18
REMARK                            x       y       z     vdW  Elec       q    Type
REMARK                         _______ _______ _______ _____ _____    ______ ____
ROOT
ATOM      1  C   UNL     1       1.898   4.520  19.122  0.00  0.00    +0.000 A 
ATOM      2  C   UNL     1       1.919   5.239  17.922  0.00  0.00    +0.000 A 
ATOM      3  C   UNL     1       2.039   6.632  17.956  0.00  0.00    +0.000 A 
ATOM      4  C   UNL     1       2.137   7.301  19.178  0.00  0.00    +0.000 A 
ATOM      5  C   UNL     1       2.170   6.563  20.369  0.00  0.00    +0.000 A 
ATOM      6  C   UNL     1       2.008   5.179  20.348  0.00  0.00    +0.000 A 
ENDROOT
BRANCH   1   7
ATOM      7  S   UNL     1       1.690   2.751  19.115  0.00  0.00    +0.000 S 
ATOM      8  O   UNL     1       0.529   2.459  18.296  0.00  0.00    +0.000 OA
ATOM      9  O   UNL     1       1.736   2.343  20.505  0.00  0.00    +0.000 OA
BRANCH   7  10
ATOM     10  C   UNL     1       3.171   2.147  18.273  0.00  0.00    +0.000 C 
BRANCH  10  17
ATOM     11  O   UNL     1       4.996   3.116  20.184  0.00  0.00    +0.000 OA
ATOM     12  C   UNL     1       5.020   3.571  19.041  0.00  0.00    +0.000 A 
ATOM     13  C   UNL     1       5.992   4.675  18.731  0.00  0.00    +0.000 A 
ATOM     14  C   UNL     1       6.067   5.160  17.486  0.00  0.00    +0.000 A 
ATOM     15  C   UNL     1       5.239   4.620  16.439  0.00  0.00    +0.000 A 
ATOM     16  C   UNL     1       4.352   3.653  16.710  0.00  0.00    +0.000 A 
ATOM     17  N   UNL     1       4.216   3.141  17.993  0.00  0.00    +0.000 N 
BRANCH  13  18
ATOM     18  O   UNL     1       6.782   5.165  19.753  0.00  0.00    +0.000 OA
ATOM     19  H   UNL     1       7.697   4.925  19.497  0.00  0.00    +0.000 HD
ENDBRANCH  13  18
ENDBRANCH  10  17
ENDBRANCH   7  10
ENDBRANCH   1   7
BRANCH   4  20
ATOM     20  O   UNL     1       2.215   8.679  19.122  0.00  0.00    +0.000 OA
BRANCH  20  21
ATOM     21  C   UNL     1       1.056   9.407  19.296  0.00  0.00    +0.000 A 
ATOM     22  C   UNL     1       0.338   9.751  18.148  0.00  0.00    +0.000 A 
ATOM     23  C   UNL     1      -0.792  10.571  18.254  0.00  0.00    +0.000 A 
ATOM     24  C   UNL     1      -1.190  11.038  19.504  0.00  0.00    +0.000 A 
ATOM     25 CL   UNL     1      -2.514  12.129  19.630  0.00  0.00    +0.000 Cl
ATOM     26  C   UNL     1      -0.518  10.639  20.658  0.00  0.00    +0.000 A 
ATOM     27  C   UNL     1       0.585   9.792  20.555  0.00  0.00    +0.000 A 
ENDBRANCH  20  21
ENDBRANCH   4  20
TORSDOF 6
ENDMDL
MODEL 7
REMARK VINA RESULT:      -8.1      0.289      1.372
REMARK  Name = 
REMARK  6 active torsions:
REMARK  status: ('A' for Active; 'I' for Inactive)
REMARK    1  A    between atoms: C_3  and  O_4
REMARK    2  A    between atoms: N_8  and  C_9
REMARK    3  A    between atoms: C_9  and  S_10
REMARK    4  A    between atoms: S_10  and  C_13
REMARK    5  A    between atoms: C_16  and  O_17
REMARK    6  A    between atoms: O_17  and  C_18
REMARK                            x       y       z     vdW  Elec       q    Type
REMARK                         _______ _______ _______ _____ _____    ______ ____
ROOT
ATOM      1  C   UNL     1       2.382   6.939  18.901  0.00  0.00    +0.000 A 
ATOM      2  C   UNL     1       1.883   7.488  20.087  0.00  0.00    +0.000 A 
ATOM      3  C   UNL     1       1.414   8.806  20.093  0.00  0.00    +0.000 A 
ATOM      4  C   UNL     1       1.445   9.569  18.923  0.00  0.00    +0.000 A 
ATOM      5  C   UNL     1       1.897   8.988  17.730  0.00  0.00    +0.000 A 
ATOM      6  C   UNL     1       2.405   7.690  17.724  0.00  0.00    +0.000 A 
ENDROOT
BRANCH   1   7
ATOM      7  S   UNL     1       3.037   5.283  18.875  0.00  0.00    +0.000 S 
ATOM      8  O   UNL     1       1.940   4.393  18.548  0.00  0.00    +0.000 OA
ATOM      9  O   UNL     1       3.769   5.129  20.117  0.00  0.00    +0.000 OA
BRANCH   7  10
ATOM     10  C   UNL     1       4.208   5.305  17.498  0.00  0.00    +0.000 C 
BRANCH  10  17
ATOM     11  O   UNL     1       6.121   4.061  19.147  0.00  0.00    +0.000 OA
ATOM     12  C   UNL     1       6.371   5.161  18.655  0.00  0.00    +0.000 A 
ATOM     13  C   UNL     1       7.674   5.823  19.008  0.00  0.00    +0.000 A 
ATOM     14  C   UNL     1       7.989   7.001  18.455  0.00  0.00    +0.000 A 
ATOM     15  C   UNL     1       7.099   7.628  17.512  0.00  0.00    +0.000 A 
ATOM     16  C   UNL     1       5.925   7.059  17.210  0.00  0.00    +0.000 A 
ATOM     17  N   UNL     1       5.541   5.854  17.782  0.00  0.00    +0.000 N 
BRANCH  13  18
ATOM     18  O   UNL     1       8.513   5.192  19.905  0.00  0.00    +0.000 OA
ATOM     19  H   UNL     1       8.794   4.372  19.448  0.00  0.00    +0.000 HD
ENDBRANCH  13  18
ENDBRANCH  10  17
ENDBRANCH   7  10
ENDBRANCH   1   7
BRANCH   4  20
ATOM     20  O   UNL     1       0.999  10.872  19.025  0.00  0.00    +0.000 OA
BRANCH  20  21
ATOM     21  C   UNL     1      -0.345  11.121  18.837  0.00  0.00    +0.000 A 
ATOM     22  C   UNL     1      -0.905  12.182  19.553  0.00  0.00    +0.000 A 
ATOM     23  C   UNL     1      -2.282  12.422  19.477  0.00  0.00    +0.000 A 
ATOM     24  C   UNL     1      -3.083  11.600  18.688  0.00  0.00    +0.000 A 
ATOM     25 CL   UNL     1      -4.788  11.823  18.671  0.00  0.00    +0.000 Cl
ATOM     26  C   UNL     1      -2.517  10.585  17.918  0.00  0.00    +0.000 A 
ATOM     27  C   UNL     1      -1.140  10.371  17.965  0.00  0.00    +0.000 A 
ENDBRANCH  20  21
ENDBRANCH   4  20
TORSDOF 6
ENDMDL
MODEL 8
REMARK VINA RESULT:      -8.1      1.343      1.634
REMARK  Name = 
REMARK  6 active torsions:
REMARK  status: ('A' for Active; 'I' for Inactive)
REMARK    1  A    between atoms: C_3  and  O_4
REMARK    2  A    between atoms: N_8  and  C_9
REMARK    3  A    between atoms: C_9  and  S_10
REMARK    4  A    between atoms: S_10  and  C_13
REMARK    5  A    between atoms: C_16  and  O_17
REMARK    6  A    between atoms: O_17  and  C_18
REMARK                            x       y       z     vdW  Elec       q    Type
REMARK                         _______ _______ _______ _____ _____    ______ ____
ROOT
ATOM      1  C   UNL     1       2.522   6.371  18.686  0.00  0.00    +0.000 A 
ATOM      2  C   UNL     1       2.591   7.263  17.611  0.00  0.00    +0.000 A 
ATOM      3  C   UNL     1       2.178   8.588  17.787  0.00  0.00    +0.000 A 
ATOM      4  C   UNL     1       1.701   9.017  19.028  0.00  0.00    +0.000 A 
ATOM      5  C   UNL     1       1.690   8.127  20.110  0.00  0.00    +0.000 A 
ATOM      6  C   UNL     1       2.058   6.794  19.933  0.00  0.00    +0.000 A 
ENDROOT
BRANCH   1   7
ATOM      7  S   UNL     1       2.987   4.664  18.478  0.00  0.00    +0.000 S 
ATOM      8  O   UNL     1       1.890   4.001  17.799  0.00  0.00    +0.000 OA
ATOM      9  O   UNL     1       3.428   4.214  19.784  0.00  0.00    +0.000 OA
BRANCH   7  10
ATOM     10  C   UNL     1       4.410   4.738  17.367  0.00  0.00    +0.000 C 
BRANCH  10  17
ATOM     11  O   UNL     1       5.597   6.973  16.133  0.00  0.00    +0.000 OA
ATOM     12  C   UNL     1       6.116   6.492  17.140  0.00  0.00    +0.000 A 
ATOM     13  C   UNL     1       7.403   7.090  17.636  0.00  0.00    +0.000 A 
ATOM     14  C   UNL     1       7.967   6.613  18.752  0.00  0.00    +0.000 A 
ATOM     15  C   UNL     1       7.341   5.547  19.491  0.00  0.00    +0.000 A 
ATOM     16  C   UNL     1       6.207   4.991  19.044  0.00  0.00    +0.000 A 
ATOM     17  N   UNL     1       5.602   5.430  17.875  0.00  0.00    +0.000 N 
BRANCH  13  18
ATOM     18  O   UNL     1       7.974   8.119  16.914  0.00  0.00    +0.000 OA
ATOM     19  H   UNL     1       7.224   8.536  16.440  0.00  0.00    +0.000 HD
ENDBRANCH  13  18
ENDBRANCH  10  17
ENDBRANCH   7  10
ENDBRANCH   1   7
BRANCH   4  20
ATOM     20  O   UNL     1       1.279  10.331  19.105  0.00  0.00    +0.000 OA
BRANCH  20  21
ATOM     21  C   UNL     1      -0.062  10.600  18.925  0.00  0.00    +0.000 A 
ATOM     22  C   UNL     1      -0.691  10.006  17.828  0.00  0.00    +0.000 A 
ATOM     23  C   UNL     1      -2.025  10.318  17.539  0.00  0.00    +0.000 A 
ATOM     24  C   UNL     1      -2.713  11.220  18.346  0.00  0.00    +0.000 A 
ATOM     25 CL   UNL     1      -4.317  11.688  17.938  0.00  0.00    +0.000 Cl
ATOM     26  C   UNL     1      -2.110  11.759  19.482  0.00  0.00    +0.000 A 
ATOM     27  C   UNL     1      -0.794  11.418  19.790  0.00  0.00    +0.000 A 
ENDBRANCH  20  21
ENDBRANCH   4  20
TORSDOF 6
ENDMDL
MODEL 9
REMARK VINA RESULT:      -8.1      1.836      2.241
REMARK  Name = 
REMARK  6 active torsions:
REMARK  status: ('A' for Active; 'I' for Inactive)
REMARK    1  A    between atoms: C_3  and  O_4
REMARK    2  A    between atoms: N_8  and  C_9
REMARK    3  A    between atoms: C_9  and  S_10
REMARK    4  A    between atoms: S_10  and  C_13
REMARK    5  A    between atoms: C_16  and  O_17
REMARK    6  A    between atoms: O_17  and  C_18
REMARK                            x       y       z     vdW  Elec       q    Type
REMARK                         _______ _______ _______ _____ _____    ______ ____
ROOT
ATOM      1  C   UNL     1       2.550   5.260  18.677  0.00  0.00    +0.000 A 
ATOM      2  C   UNL     1       2.820   6.159  17.639  0.00  0.00    +0.000 A 
ATOM      3  C   UNL     1       2.659   7.532  17.859  0.00  0.00    +0.000 A 
ATOM      4  C   UNL     1       2.231   8.000  19.103  0.00  0.00    +0.000 A 
ATOM      5  C   UNL     1       2.018   7.092  20.148  0.00  0.00    +0.000 A 
ATOM      6  C   UNL     1       2.134   5.720  19.928  0.00  0.00    +0.000 A 
ENDROOT
BRANCH   1   7
ATOM      7  S   UNL     1       2.691   3.504  18.412  0.00  0.00    +0.000 S 
ATOM      8  O   UNL     1       2.380   3.254  17.018  0.00  0.00    +0.000 OA
ATOM      9  O   UNL     1       1.913   2.883  19.466  0.00  0.00    +0.000 OA
BRANCH   7  10
ATOM     10  C   UNL     1       4.444   3.166  18.694  0.00  0.00    +0.000 C 
BRANCH  10  17
ATOM     11  O   UNL     1       5.351   3.601  16.065  0.00  0.00    +0.000 OA
ATOM     12  C   UNL     1       5.791   4.298  16.979  0.00  0.00    +0.000 A 
ATOM     13  C   UNL     1       6.845   5.320  16.656  0.00  0.00    +0.000 A 
ATOM     14  C   UNL     1       7.310   6.119  17.624  0.00  0.00    +0.000 A 
ATOM     15  C   UNL     1       6.796   6.020  18.965  0.00  0.00    +0.000 A 
ATOM     16  C   UNL     1       5.875   5.097  19.269  0.00  0.00    +0.000 A 
ATOM     17  N   UNL     1       5.385   4.225  18.307  0.00  0.00    +0.000 N 
BRANCH  13  18
ATOM     18  O   UNL     1       7.310   5.400  15.358  0.00  0.00    +0.000 OA
ATOM     19  H   UNL     1       7.393   4.468  15.066  0.00  0.00    +0.000 HD
ENDBRANCH  13  18
ENDBRANCH  10  17
ENDBRANCH   7  10
ENDBRANCH   1   7
BRANCH   4  20
ATOM     20  O   UNL     1       2.062   9.366  19.223  0.00  0.00    +0.000 OA
BRANCH  20  21
ATOM     21  C   UNL     1       0.779   9.872  19.201  0.00  0.00    +0.000 A 
ATOM     22  C   UNL     1       0.048   9.711  18.021  0.00  0.00    +0.000 A 
ATOM     23  C   UNL     1      -1.224  10.287  17.907  0.00  0.00    +0.000 A 
ATOM     24  C   UNL     1      -1.748  11.017  18.971  0.00  0.00    +0.000 A 
ATOM     25 CL   UNL     1      -3.262  11.814  18.801  0.00  0.00    +0.000 Cl
ATOM     26  C   UNL     1      -1.051  11.119  20.174  0.00  0.00    +0.000 A 
ATOM     27  C   UNL     1       0.199  10.513  20.300  0.00  0.00    +0.000 A 
ENDBRANCH  20  21
ENDBRANCH   4  20
TORSDOF 6
ENDMDL
