MODEL 1
REMARK VINA RESULT:      -7.4      0.000      0.000
REMARK  Name = 
REMARK  13 active torsions:
REMARK  status: ('A' for Active; 'I' for Inactive)
REMARK    1  A    between atoms: C_1  and  C_2
REMARK    2  A    between atoms: C_2  and  C_3
REMARK    3  A    between atoms: C_3  and  N_4
REMARK    4  A    between atoms: N_4  and  C_5
REMARK    5  A    between atoms: C_5  and  C_6
REMARK    6  A    between atoms: N_8  and  C_9
REMARK    7  A    between atoms: C_14  and  O_15
REMARK    8  A    between atoms: O_15  and  C_16
REMARK    9  A    between atoms: C_17  and  C_19
REMARK   10  A    between atoms: C_23  and  S_24
REMARK   11  A    between atoms: S_24  and  N_27
REMARK   12  A    between atoms: N_27  and  C_28
REMARK   13  A    between atoms: C_28  and  C_29
REMARK                            x       y       z     vdW  Elec       q    Type
REMARK                         _______ _______ _______ _____ _____    ______ ____
ROOT
ATOM      1  N   UNL     1       0.384  10.734  21.757  0.00  0.00    +0.000 N 
ATOM      2  C   UNL     1      -0.603  10.996  22.726  0.00  0.00    +0.000 C 
ATOM      3  O   UNL     1      -0.743  10.277  23.716  0.00  0.00    +0.000 OA
ENDROOT
BRANCH   2   4
ATOM      4  C   UNL     1      -1.471  12.206  22.661  0.00  0.00    +0.000 A 
ATOM      5  C   UNL     1      -0.894  13.440  23.015  0.00  0.00    +0.000 A 
ATOM      6  C   UNL     1      -1.609  14.633  22.890  0.00  0.00    +0.000 A 
ATOM      7  C   UNL     1      -2.900  14.617  22.362  0.00  0.00    +0.000 A 
ATOM      8  C   UNL     1      -3.484  13.394  22.019  0.00  0.00    +0.000 A 
ATOM      9  C   UNL     1      -2.806  12.184  22.246  0.00  0.00    +0.000 A 
BRANCH   8  10
ATOM     10  S   UNL     1      -5.108  13.380  21.278  0.00  0.00    +0.000 S 
ATOM     11  O   UNL     1      -5.696  12.093  21.573  0.00  0.00    +0.000 OA
ATOM     12  O   UNL     1      -5.748  14.623  21.639  0.00  0.00    +0.000 OA
BRANCH  10  13
ATOM     13  N   UNL     1      -4.789  13.471  19.619  0.00  0.00    +0.000 NA
ATOM     14  H   UNL     1      -3.853  13.821  19.411  0.00  0.00    +0.000 HD
BRANCH  13  15
ATOM     15  C   UNL     1      -5.189  12.312  18.801  0.00  0.00    +0.000 C 
BRANCH  15  16
ATOM     16  C   UNL     1      -4.020  11.509  18.271  0.00  0.00    +0.000 A 
ATOM     17  C   UNL     1      -4.230  10.531  17.284  0.00  0.00    +0.000 A 
ATOM     18  C   UNL     1      -3.158   9.820  16.742  0.00  0.00    +0.000 A 
ATOM     19  C   UNL     1      -1.857  10.089  17.164  0.00  0.00    +0.000 A 
ATOM     20  C   UNL     1      -1.631  11.069  18.127  0.00  0.00    +0.000 A 
ATOM     21  C   UNL     1      -2.704  11.777  18.674  0.00  0.00    +0.000 A 
ENDBRANCH  15  16
ENDBRANCH  13  15
ENDBRANCH  10  13
ENDBRANCH   8  10
ENDBRANCH   2   4
BRANCH   1  22
ATOM     22  C   UNL     1       0.665  11.536  20.557  0.00  0.00    +0.000 C 
BRANCH  22  24
ATOM     23  C   UNL     1       2.034  13.360  19.373  0.00  0.00    +0.000 C 
ATOM     24  C   UNL     1       1.705  12.662  20.675  0.00  0.00    +0.000 C 
ENDBRANCH  22  24
ENDBRANCH   1  22
BRANCH   1  25
ATOM     25  C   UNL     1       1.263   9.557  21.986  0.00  0.00    +0.000 C 
BRANCH  25  26
ATOM     26  C   UNL     1       0.977   8.227  21.226  0.00  0.00    +0.000 C 
ATOM     27  O   UNL     1      -0.168   7.830  21.024  0.00  0.00    +0.000 OA
ATOM     28  N   UNL     1       2.140   7.564  20.805  0.00  0.00    +0.000 N 
ATOM     29  H   UNL     1       2.813   7.529  21.563  0.00  0.00    +0.000 HD
BRANCH  28  30
ATOM     30  C   UNL     1       2.043   6.358  20.060  0.00  0.00    +0.000 A 
ATOM     31  C   UNL     1       1.411   5.267  20.675  0.00  0.00    +0.000 A 
ATOM     32  C   UNL     1       1.246   4.056  19.995  0.00  0.00    +0.000 A 
ATOM     33  C   UNL     1       1.744   3.902  18.701  0.00  0.00    +0.000 A 
ATOM     34  C   UNL     1       2.409   4.969  18.098  0.00  0.00    +0.000 A 
ATOM     35  C   UNL     1       2.575   6.196  18.766  0.00  0.00    +0.000 A 
BRANCH  35  36
ATOM     36  O   UNL     1       3.257   7.122  18.019  0.00  0.00    +0.000 OA
ATOM     37  C   UNL     1       4.276   6.617  17.167  0.00  0.00    +0.000 C 
ENDBRANCH  35  36
ENDBRANCH  28  30
ENDBRANCH  25  26
ENDBRANCH   1  25
TORSDOF 11
ENDMDL
MODEL 2
REMARK VINA RESULT:      -7.4      3.750      9.377
REMARK  Name = 
REMARK  13 active torsions:
REMARK  status: ('A' for Active; 'I' for Inactive)
REMARK    1  A    between atoms: C_1  and  C_2
REMARK    2  A    between atoms: C_2  and  C_3
REMARK    3  A    between atoms: C_3  and  N_4
REMARK    4  A    between atoms: N_4  and  C_5
REMARK    5  A    between atoms: C_5  and  C_6
REMARK    6  A    between atoms: N_8  and  C_9
REMARK    7  A    between atoms: C_14  and  O_15
REMARK    8  A    between atoms: O_15  and  C_16
REMARK    9  A    between atoms: C_17  and  C_19
REMARK   10  A    between atoms: C_23  and  S_24
REMARK   11  A    between atoms: S_24  and  N_27
REMARK   12  A    between atoms: N_27  and  C_28
REMARK   13  A    between atoms: C_28  and  C_29
REMARK                            x       y       z     vdW  Elec       q    Type
REMARK                         _______ _______ _______ _____ _____    ______ ____
ROOT
ATOM      1  N   UNL     1       0.975   8.440  20.723  0.00  0.00    +0.000 N 
ATOM      2  C   UNL     1       1.515   7.174  20.431  0.00  0.00    +0.000 C 
ATOM      3  O   UNL     1       1.131   6.158  21.012  0.00  0.00    +0.000 OA
ENDROOT
BRANCH   2   4
ATOM      4  C   UNL     1       2.513   6.973  19.341  0.00  0.00    +0.000 A 
ATOM      5  C   UNL     1       2.423   7.813  18.216  0.00  0.00    +0.000 A 
ATOM      6  C   UNL     1       3.375   7.756  17.195  0.00  0.00    +0.000 A 
ATOM      7  C   UNL     1       4.462   6.889  17.308  0.00  0.00    +0.000 A 
ATOM      8  C   UNL     1       4.552   6.043  18.418  0.00  0.00    +0.000 A 
ATOM      9  C   UNL     1       3.538   6.024  19.391  0.00  0.00    +0.000 A 
BRANCH   8  10
ATOM     10  S   UNL     1       5.978   4.986  18.596  0.00  0.00    +0.000 S 
ATOM     11  O   UNL     1       6.844   5.251  17.469  0.00  0.00    +0.000 OA
ATOM     12  O   UNL     1       6.429   5.108  19.962  0.00  0.00    +0.000 OA
BRANCH  10  13
ATOM     13  N   UNL     1       5.339   3.426  18.443  0.00  0.00    +0.000 NA
ATOM     14  H   UNL     1       5.920   2.812  17.871  0.00  0.00    +0.000 HD
BRANCH  13  15
ATOM     15  C   UNL     1       4.829   2.795  19.673  0.00  0.00    +0.000 C 
BRANCH  15  16
ATOM     16  C   UNL     1       3.319   2.823  19.790  0.00  0.00    +0.000 A 
ATOM     17  C   UNL     1       2.523   2.716  18.637  0.00  0.00    +0.000 A 
ATOM     18  C   UNL     1       1.130   2.684  18.729  0.00  0.00    +0.000 A 
ATOM     19  C   UNL     1       0.512   2.739  19.977  0.00  0.00    +0.000 A 
ATOM     20  C   UNL     1       1.288   2.826  21.130  0.00  0.00    +0.000 A 
ATOM     21  C   UNL     1       2.681   2.863  21.038  0.00  0.00    +0.000 A 
ENDBRANCH  15  16
ENDBRANCH  13  15
ENDBRANCH  10  13
ENDBRANCH   8  10
ENDBRANCH   2   4
BRANCH   1  22
ATOM     22  C   UNL     1       1.331   9.713  20.077  0.00  0.00    +0.000 C 
BRANCH  22  24
ATOM     23  C   UNL     1       0.669  11.708  18.599  0.00  0.00    +0.000 C 
ATOM     24  C   UNL     1       0.330  10.312  19.076  0.00  0.00    +0.000 C 
ENDBRANCH  22  24
ENDBRANCH   1  22
BRANCH   1  25
ATOM     25  C   UNL     1      -0.093   8.500  21.756  0.00  0.00    +0.000 C 
BRANCH  25  26
ATOM     26  C   UNL     1      -0.292   9.809  22.578  0.00  0.00    +0.000 C 
ATOM     27  O   UNL     1       0.315  10.016  23.626  0.00  0.00    +0.000 OA
ATOM     28  N   UNL     1      -1.207  10.700  21.995  0.00  0.00    +0.000 N 
ATOM     29  H   UNL     1      -2.042  10.201  21.708  0.00  0.00    +0.000 HD
BRANCH  28  30
ATOM     30  C   UNL     1      -1.463  11.959  22.603  0.00  0.00    +0.000 A 
ATOM     31  C   UNL     1      -2.657  12.096  23.325  0.00  0.00    +0.000 A 
ATOM     32  C   UNL     1      -2.967  13.293  23.980  0.00  0.00    +0.000 A 
ATOM     33  C   UNL     1      -2.104  14.385  23.893  0.00  0.00    +0.000 A 
ATOM     34  C   UNL     1      -0.934  14.269  23.144  0.00  0.00    +0.000 A 
ATOM     35  C   UNL     1      -0.606  13.069  22.486  0.00  0.00    +0.000 A 
BRANCH  35  36
ATOM     36  O   UNL     1       0.576  13.146  21.796  0.00  0.00    +0.000 OA
ATOM     37  C   UNL     1       1.177  14.432  21.716  0.00  0.00    +0.000 C 
ENDBRANCH  35  36
ENDBRANCH  28  30
ENDBRANCH  25  26
ENDBRANCH   1  25
TORSDOF 11
ENDMDL
MODEL 3
REMARK VINA RESULT:      -7.3      2.890      4.722
REMARK  Name = 
REMARK  13 active torsions:
REMARK  status: ('A' for Active; 'I' for Inactive)
REMARK    1  A    between atoms: C_1  and  C_2
REMARK    2  A    between atoms: C_2  and  C_3
REMARK    3  A    between atoms: C_3  and  N_4
REMARK    4  A    between atoms: N_4  and  C_5
REMARK    5  A    between atoms: C_5  and  C_6
REMARK    6  A    between atoms: N_8  and  C_9
REMARK    7  A    between atoms: C_14  and  O_15
REMARK    8  A    between atoms: O_15  and  C_16
REMARK    9  A    between atoms: C_17  and  C_19
REMARK   10  A    between atoms: C_23  and  S_24
REMARK   11  A    between atoms: S_24  and  N_27
REMARK   12  A    between atoms: N_27  and  C_28
REMARK   13  A    between atoms: C_28  and  C_29
REMARK                            x       y       z     vdW  Elec       q    Type
REMARK                         _______ _______ _______ _____ _____    ______ ____
ROOT
ATOM      1  N   UNL     1       1.322   8.404  20.037  0.00  0.00    +0.000 N 
ATOM      2  C   UNL     1       1.435   9.255  18.922  0.00  0.00    +0.000 C 
ATOM      3  O   UNL     1       2.325   9.108  18.084  0.00  0.00    +0.000 OA
ENDROOT
BRANCH   2   4
ATOM      4  C   UNL     1       0.432  10.322  18.639  0.00  0.00    +0.000 A 
ATOM      5  C   UNL     1       0.796  11.649  18.932  0.00  0.00    +0.000 A 
ATOM      6  C   UNL     1      -0.046  12.716  18.608  0.00  0.00    +0.000 A 
ATOM      7  C   UNL     1      -1.247  12.475  17.941  0.00  0.00    +0.000 A 
ATOM      8  C   UNL     1      -1.621  11.158  17.657  0.00  0.00    +0.000 A 
ATOM      9  C   UNL     1      -0.826  10.079  18.078  0.00  0.00    +0.000 A 
BRANCH   8  10
ATOM     10  S   UNL     1      -3.122  10.855  16.742  0.00  0.00    +0.000 S 
ATOM     11  O   UNL     1      -2.812  11.051  15.344  0.00  0.00    +0.000 OA
ATOM     12  O   UNL     1      -3.683   9.623  17.243  0.00  0.00    +0.000 OA
BRANCH  10  13
ATOM     13  N   UNL     1      -4.157  12.093  17.254  0.00  0.00    +0.000 NA
ATOM     14  H   UNL     1      -4.313  12.803  16.538  0.00  0.00    +0.000 HD
BRANCH  13  15
ATOM     15  C   UNL     1      -5.379  11.683  17.968  0.00  0.00    +0.000 C 
BRANCH  15  16
ATOM     16  C   UNL     1      -5.384  12.063  19.434  0.00  0.00    +0.000 A 
ATOM     17  C   UNL     1      -4.217  12.568  20.032  0.00  0.00    +0.000 A 
ATOM     18  C   UNL     1      -4.216  12.977  21.368  0.00  0.00    +0.000 A 
ATOM     19  C   UNL     1      -5.387  12.904  22.120  0.00  0.00    +0.000 A 
ATOM     20  C   UNL     1      -6.556  12.423  21.536  0.00  0.00    +0.000 A 
ATOM     21  C   UNL     1      -6.556  12.010  20.202  0.00  0.00    +0.000 A 
ENDBRANCH  15  16
ENDBRANCH  13  15
ENDBRANCH  10  13
ENDBRANCH   8  10
ENDBRANCH   2   4
BRANCH   1  22
ATOM     22  C   UNL     1       0.287   8.463  21.081  0.00  0.00    +0.000 C 
BRANCH  22  24
ATOM     23  C   UNL     1      -0.007   9.448  23.436  0.00  0.00    +0.000 C 
ATOM     24  C   UNL     1       0.235   9.718  21.967  0.00  0.00    +0.000 C 
ENDBRANCH  22  24
ENDBRANCH   1  22
BRANCH   1  25
ATOM     25  C   UNL     1       2.318   7.307  20.156  0.00  0.00    +0.000 C 
BRANCH  25  26
ATOM     26  C   UNL     1       2.648   6.433  18.909  0.00  0.00    +0.000 C 
ATOM     27  O   UNL     1       1.771   5.862  18.266  0.00  0.00    +0.000 OA
ATOM     28  N   UNL     1       4.019   6.385  18.609  0.00  0.00    +0.000 N 
ATOM     29  H   UNL     1       4.553   6.208  19.453  0.00  0.00    +0.000 HD
BRANCH  28  30
ATOM     30  C   UNL     1       4.475   5.664  17.472  0.00  0.00    +0.000 A 
ATOM     31  C   UNL     1       4.991   6.406  16.401  0.00  0.00    +0.000 A 
ATOM     32  C   UNL     1       5.491   5.770  15.260  0.00  0.00    +0.000 A 
ATOM     33  C   UNL     1       5.449   4.380  15.155  0.00  0.00    +0.000 A 
ATOM     34  C   UNL     1       4.901   3.636  16.200  0.00  0.00    +0.000 A 
ATOM     35  C   UNL     1       4.402   4.262  17.357  0.00  0.00    +0.000 A 
BRANCH  35  36
ATOM     36  O   UNL     1       3.898   3.372  18.270  0.00  0.00    +0.000 OA
ATOM     37  C   UNL     1       4.673   3.166  19.443  0.00  0.00    +0.000 C 
ENDBRANCH  35  36
ENDBRANCH  28  30
ENDBRANCH  25  26
ENDBRANCH   1  25
TORSDOF 11
ENDMDL
MODEL 4
REMARK VINA RESULT:      -7.2      3.683      9.723
REMARK  Name = 
REMARK  13 active torsions:
REMARK  status: ('A' for Active; 'I' for Inactive)
REMARK    1  A    between atoms: C_1  and  C_2
REMARK    2  A    between atoms: C_2  and  C_3
REMARK    3  A    between atoms: C_3  and  N_4
REMARK    4  A    between atoms: N_4  and  C_5
REMARK    5  A    between atoms: C_5  and  C_6
REMARK    6  A    between atoms: N_8  and  C_9
REMARK    7  A    between atoms: C_14  and  O_15
REMARK    8  A    between atoms: O_15  and  C_16
REMARK    9  A    between atoms: C_17  and  C_19
REMARK   10  A    between atoms: C_23  and  S_24
REMARK   11  A    between atoms: S_24  and  N_27
REMARK   12  A    between atoms: N_27  and  C_28
REMARK   13  A    between atoms: C_28  and  C_29
REMARK                            x       y       z     vdW  Elec       q    Type
REMARK                         _______ _______ _______ _____ _____    ______ ____
ROOT
ATOM      1  N   UNL     1       1.709   8.131  19.429  0.00  0.00    +0.000 N 
ATOM      2  C   UNL     1       1.673   7.262  20.536  0.00  0.00    +0.000 C 
ATOM      3  O   UNL     1       1.384   7.663  21.664  0.00  0.00    +0.000 OA
ENDROOT
BRANCH   2   4
ATOM      4  C   UNL     1       1.891   5.793  20.393  0.00  0.00    +0.000 A 
ATOM      5  C   UNL     1       0.756   4.962  20.434  0.00  0.00    +0.000 A 
ATOM      6  C   UNL     1       0.862   3.586  20.212  0.00  0.00    +0.000 A 
ATOM      7  C   UNL     1       2.100   3.027  19.897  0.00  0.00    +0.000 A 
ATOM      8  C   UNL     1       3.234   3.846  19.866  0.00  0.00    +0.000 A 
ATOM      9  C   UNL     1       3.145   5.209  20.195  0.00  0.00    +0.000 A 
BRANCH   8  10
ATOM     10  S   UNL     1       4.804   3.143  19.394  0.00  0.00    +0.000 S 
ATOM     11  O   UNL     1       5.771   4.217  19.414  0.00  0.00    +0.000 OA
ATOM     12  O   UNL     1       4.976   1.934  20.165  0.00  0.00    +0.000 OA
BRANCH  10  13
ATOM     13  N   UNL     1       4.557   2.655  17.793  0.00  0.00    +0.000 NA
ATOM     14  H   UNL     1       3.986   1.813  17.716  0.00  0.00    +0.000 HD
BRANCH  13  15
ATOM     15  C   UNL     1       4.202   3.709  16.825  0.00  0.00    +0.000 C 
BRANCH  15  16
ATOM     16  C   UNL     1       5.306   4.025  15.838  0.00  0.00    +0.000 A 
ATOM     17  C   UNL     1       5.119   3.768  14.469  0.00  0.00    +0.000 A 
ATOM     18  C   UNL     1       6.103   4.105  13.537  0.00  0.00    +0.000 A 
ATOM     19  C   UNL     1       7.280   4.721  13.957  0.00  0.00    +0.000 A 
ATOM     20  C   UNL     1       7.471   5.000  15.308  0.00  0.00    +0.000 A 
ATOM     21  C   UNL     1       6.490   4.659  16.241  0.00  0.00    +0.000 A 
ENDBRANCH  15  16
ENDBRANCH  13  15
ENDBRANCH  10  13
ENDBRANCH   8  10
ENDBRANCH   2   4
BRANCH   1  22
ATOM     22  C   UNL     1       2.008   7.763  18.037  0.00  0.00    +0.000 C 
BRANCH  22  24
ATOM     23  C   UNL     1       4.417   7.187  17.351  0.00  0.00    +0.000 C 
ATOM     24  C   UNL     1       3.340   8.246  17.440  0.00  0.00    +0.000 C 
ENDBRANCH  22  24
ENDBRANCH   1  22
BRANCH   1  25
ATOM     25  C   UNL     1       1.367   9.557  19.676  0.00  0.00    +0.000 C 
BRANCH  25  26
ATOM     26  C   UNL     1      -0.129   9.983  19.763  0.00  0.00    +0.000 C 
ATOM     27  O   UNL     1      -0.725  10.044  20.835  0.00  0.00    +0.000 OA
ATOM     28  N   UNL     1      -0.694  10.290  18.515  0.00  0.00    +0.000 N 
ATOM     29  H   UNL     1      -0.455   9.572  17.839  0.00  0.00    +0.000 HD
BRANCH  28  30
ATOM     30  C   UNL     1      -2.040  10.739  18.433  0.00  0.00    +0.000 A 
ATOM     31  C   UNL     1      -2.952   9.925  17.744  0.00  0.00    +0.000 A 
ATOM     32  C   UNL     1      -4.301  10.279  17.647  0.00  0.00    +0.000 A 
ATOM     33  C   UNL     1      -4.756  11.474  18.206  0.00  0.00    +0.000 A 
ATOM     34  C   UNL     1      -3.847  12.308  18.857  0.00  0.00    +0.000 A 
ATOM     35  C   UNL     1      -2.489  11.960  18.969  0.00  0.00    +0.000 A 
BRANCH  35  36
ATOM     36  O   UNL     1      -1.750  12.904  19.636  0.00  0.00    +0.000 OA
ATOM     37  C   UNL     1      -2.306  13.400  20.846  0.00  0.00    +0.000 C 
ENDBRANCH  35  36
ENDBRANCH  28  30
ENDBRANCH  25  26
ENDBRANCH   1  25
TORSDOF 11
ENDMDL
MODEL 5
REMARK VINA RESULT:      -7.2      4.101     10.492
REMARK  Name = 
REMARK  13 active torsions:
REMARK  status: ('A' for Active; 'I' for Inactive)
REMARK    1  A    between atoms: C_1  and  C_2
REMARK    2  A    between atoms: C_2  and  C_3
REMARK    3  A    between atoms: C_3  and  N_4
REMARK    4  A    between atoms: N_4  and  C_5
REMARK    5  A    between atoms: C_5  and  C_6
REMARK    6  A    between atoms: N_8  and  C_9
REMARK    7  A    between atoms: C_14  and  O_15
REMARK    8  A    between atoms: O_15  and  C_16
REMARK    9  A    between atoms: C_17  and  C_19
REMARK   10  A    between atoms: C_23  and  S_24
REMARK   11  A    between atoms: S_24  and  N_27
REMARK   12  A    between atoms: N_27  and  C_28
REMARK   13  A    between atoms: C_28  and  C_29
REMARK                            x       y       z     vdW  Elec       q    Type
REMARK                         _______ _______ _______ _____ _____    ______ ____
ROOT
ATOM      1  N   UNL     1       1.751   6.094  20.442  0.00  0.00    +0.000 N 
ATOM      2  C   UNL     1       2.390   6.346  19.213  0.00  0.00    +0.000 C 
ATOM      3  O   UNL     1       2.182   7.380  18.577  0.00  0.00    +0.000 OA
ENDROOT
BRANCH   2   4
ATOM      4  C   UNL     1       3.422   5.424  18.656  0.00  0.00    +0.000 A 
ATOM      5  C   UNL     1       2.973   4.231  18.062  0.00  0.00    +0.000 A 
ATOM      6  C   UNL     1       3.865   3.359  17.431  0.00  0.00    +0.000 A 
ATOM      7  C   UNL     1       5.216   3.693  17.343  0.00  0.00    +0.000 A 
ATOM      8  C   UNL     1       5.671   4.872  17.941  0.00  0.00    +0.000 A 
ATOM      9  C   UNL     1       4.793   5.694  18.668  0.00  0.00    +0.000 A 
BRANCH   8  10
ATOM     10  S   UNL     1       7.386   5.333  17.768  0.00  0.00    +0.000 S 
ATOM     11  O   UNL     1       7.657   6.340  18.769  0.00  0.00    +0.000 OA
ATOM     12  O   UNL     1       8.146   4.109  17.677  0.00  0.00    +0.000 OA
BRANCH  10  13
ATOM     13  N   UNL     1       7.452   6.050  16.236  0.00  0.00    +0.000 NA
ATOM     14  H   UNL     1       8.320   5.848  15.739  0.00  0.00    +0.000 HD
BRANCH  13  15
ATOM     15  C   UNL     1       6.244   5.941  15.399  0.00  0.00    +0.000 C 
BRANCH  15  16
ATOM     16  C   UNL     1       6.425   5.061  14.180  0.00  0.00    +0.000 A 
ATOM     17  C   UNL     1       5.442   4.115  13.845  0.00  0.00    +0.000 A 
ATOM     18  C   UNL     1       5.564   3.333  12.693  0.00  0.00    +0.000 A 
ATOM     19  C   UNL     1       6.661   3.499  11.851  0.00  0.00    +0.000 A 
ATOM     20  C   UNL     1       7.634   4.447  12.160  0.00  0.00    +0.000 A 
ATOM     21  C   UNL     1       7.516   5.225  13.313  0.00  0.00    +0.000 A 
ENDBRANCH  15  16
ENDBRANCH  13  15
ENDBRANCH  10  13
ENDBRANCH   8  10
ENDBRANCH   2   4
BRANCH   1  22
ATOM     22  C   UNL     1       1.943   4.916  21.301  0.00  0.00    +0.000 C 
BRANCH  22  24
ATOM     23  C   UNL     1       1.898   2.346  21.274  0.00  0.00    +0.000 C 
ATOM     24  C   UNL     1       1.176   3.633  20.939  0.00  0.00    +0.000 C 
ENDBRANCH  22  24
ENDBRANCH   1  22
BRANCH   1  25
ATOM     25  C   UNL     1       0.823   7.138  20.950  0.00  0.00    +0.000 C 
BRANCH  25  26
ATOM     26  C   UNL     1       1.284   8.626  20.980  0.00  0.00    +0.000 C 
ATOM     27  O   UNL     1       2.144   9.023  21.762  0.00  0.00    +0.000 OA
ATOM     28  N   UNL     1       0.632   9.430  20.032  0.00  0.00    +0.000 N 
ATOM     29  H   UNL     1      -0.367   9.254  20.055  0.00  0.00    +0.000 HD
BRANCH  28  30
ATOM     30  C   UNL     1       0.976  10.804  19.905  0.00  0.00    +0.000 A 
ATOM     31  C   UNL     1       1.631  11.199  18.729  0.00  0.00    +0.000 A 
ATOM     32  C   UNL     1       1.973  12.538  18.513  0.00  0.00    +0.000 A 
ATOM     33  C   UNL     1       1.700  13.499  19.486  0.00  0.00    +0.000 A 
ATOM     34  C   UNL     1       1.086  13.106  20.675  0.00  0.00    +0.000 A 
ATOM     35  C   UNL     1       0.728  11.765  20.903  0.00  0.00    +0.000 A 
BRANCH  35  36
ATOM     36  O   UNL     1       0.142  11.570  22.127  0.00  0.00    +0.000 OA
ATOM     37  C   UNL     1      -1.271  11.713  22.178  0.00  0.00    +0.000 C 
ENDBRANCH  35  36
ENDBRANCH  28  30
ENDBRANCH  25  26
ENDBRANCH   1  25
TORSDOF 11
ENDMDL
MODEL 6
REMARK VINA RESULT:      -7.1      3.707      9.390
REMARK  Name = 
REMARK  13 active torsions:
REMARK  status: ('A' for Active; 'I' for Inactive)
REMARK    1  A    between atoms: C_1  and  C_2
REMARK    2  A    between atoms: C_2  and  C_3
REMARK    3  A    between atoms: C_3  and  N_4
REMARK    4  A    between atoms: N_4  and  C_5
REMARK    5  A    between atoms: C_5  and  C_6
REMARK    6  A    between atoms: N_8  and  C_9
REMARK    7  A    between atoms: C_14  and  O_15
REMARK    8  A    between atoms: O_15  and  C_16
REMARK    9  A    between atoms: C_17  and  C_19
REMARK   10  A    between atoms: C_23  and  S_24
REMARK   11  A    between atoms: S_24  and  N_27
REMARK   12  A    between atoms: N_27  and  C_28
REMARK   13  A    between atoms: C_28  and  C_29
REMARK                            x       y       z     vdW  Elec       q    Type
REMARK                         _______ _______ _______ _____ _____    ______ ____
ROOT
ATOM      1  N   UNL     1       1.239   9.190  19.428  0.00  0.00    +0.000 N 
ATOM      2  C   UNL     1       1.966   8.205  18.734  0.00  0.00    +0.000 C 
ATOM      3  O   UNL     1       2.578   8.464  17.697  0.00  0.00    +0.000 OA
ENDROOT
BRANCH   2   4
ATOM      4  C   UNL     1       2.117   6.818  19.261  0.00  0.00    +0.000 A 
ATOM      5  C   UNL     1       1.996   6.634  20.650  0.00  0.00    +0.000 A 
ATOM      6  C   UNL     1       2.028   5.356  21.214  0.00  0.00    +0.000 A 
ATOM      7  C   UNL     1       2.132   4.236  20.390  0.00  0.00    +0.000 A 
ATOM      8  C   UNL     1       2.264   4.412  19.009  0.00  0.00    +0.000 A 
ATOM      9  C   UNL     1       2.340   5.699  18.452  0.00  0.00    +0.000 A 
BRANCH   8  10
ATOM     10  S   UNL     1       2.326   2.978  17.949  0.00  0.00    +0.000 S 
ATOM     11  O   UNL     1       1.622   1.916  18.633  0.00  0.00    +0.000 OA
ATOM     12  O   UNL     1       1.964   3.415  16.622  0.00  0.00    +0.000 OA
BRANCH  10  13
ATOM     13  N   UNL     1       3.974   2.596  17.892  0.00  0.00    +0.000 NA
ATOM     14  H   UNL     1       4.215   1.985  17.111  0.00  0.00    +0.000 HD
BRANCH  13  15
ATOM     15  C   UNL     1       4.920   3.708  18.095  0.00  0.00    +0.000 C 
BRANCH  15  16
ATOM     16  C   UNL     1       5.608   4.161  16.824  0.00  0.00    +0.000 A 
ATOM     17  C   UNL     1       6.892   4.728  16.885  0.00  0.00    +0.000 A 
ATOM     18  C   UNL     1       7.566   5.100  15.719  0.00  0.00    +0.000 A 
ATOM     19  C   UNL     1       6.975   4.893  14.475  0.00  0.00    +0.000 A 
ATOM     20  C   UNL     1       5.711   4.315  14.398  0.00  0.00    +0.000 A 
ATOM     21  C   UNL     1       5.033   3.947  15.563  0.00  0.00    +0.000 A 
ENDBRANCH  15  16
ENDBRANCH  13  15
ENDBRANCH  10  13
ENDBRANCH   8  10
ENDBRANCH   2   4
BRANCH   1  22
ATOM     22  C   UNL     1       0.499   9.007  20.686  0.00  0.00    +0.000 C 
BRANCH  22  24
ATOM     23  C   UNL     1      -0.285   9.916  22.959  0.00  0.00    +0.000 C 
ATOM     24  C   UNL     1       0.568  10.136  21.728  0.00  0.00    +0.000 C 
ENDBRANCH  22  24
ENDBRANCH   1  22
BRANCH   1  25
ATOM     25  C   UNL     1       1.251  10.565  18.864  0.00  0.00    +0.000 C 
BRANCH  25  26
ATOM     26  C   UNL     1      -0.099  11.274  18.543  0.00  0.00    +0.000 C 
ATOM     27  O   UNL     1      -0.182  12.495  18.438  0.00  0.00    +0.000 OA
ATOM     28  N   UNL     1      -1.173  10.384  18.384  0.00  0.00    +0.000 N 
ATOM     29  H   UNL     1      -1.174   9.703  19.136  0.00  0.00    +0.000 HD
BRANCH  28  30
ATOM     30  C   UNL     1      -2.463  10.875  18.044  0.00  0.00    +0.000 A 
ATOM     31  C   UNL     1      -3.235  11.429  19.076  0.00  0.00    +0.000 A 
ATOM     32  C   UNL     1      -4.501  11.964  18.817  0.00  0.00    +0.000 A 
ATOM     33  C   UNL     1      -5.033  11.920  17.528  0.00  0.00    +0.000 A 
ATOM     34  C   UNL     1      -4.288  11.334  16.506  0.00  0.00    +0.000 A 
ATOM     35  C   UNL     1      -3.009  10.799  16.749  0.00  0.00    +0.000 A 
BRANCH  35  36
ATOM     36  O   UNL     1      -2.434  10.262  15.627  0.00  0.00    +0.000 OA
ATOM     37  C   UNL     1      -3.268  10.153  14.482  0.00  0.00    +0.000 C 
ENDBRANCH  35  36
ENDBRANCH  28  30
ENDBRANCH  25  26
ENDBRANCH   1  25
TORSDOF 11
ENDMDL
MODEL 7
REMARK VINA RESULT:      -7.0      3.036      9.348
REMARK  Name = 
REMARK  13 active torsions:
REMARK  status: ('A' for Active; 'I' for Inactive)
REMARK    1  A    between atoms: C_1  and  C_2
REMARK    2  A    between atoms: C_2  and  C_3
REMARK    3  A    between atoms: C_3  and  N_4
REMARK    4  A    between atoms: N_4  and  C_5
REMARK    5  A    between atoms: C_5  and  C_6
REMARK    6  A    between atoms: N_8  and  C_9
REMARK    7  A    between atoms: C_14  and  O_15
REMARK    8  A    between atoms: O_15  and  C_16
REMARK    9  A    between atoms: C_17  and  C_19
REMARK   10  A    between atoms: C_23  and  S_24
REMARK   11  A    between atoms: S_24  and  N_27
REMARK   12  A    between atoms: N_27  and  C_28
REMARK   13  A    between atoms: C_28  and  C_29
REMARK                            x       y       z     vdW  Elec       q    Type
REMARK                         _______ _______ _______ _____ _____    ______ ____
ROOT
ATOM      1  N   UNL     1       0.486  10.866  20.595  0.00  0.00    +0.000 N 
ATOM      2  C   UNL     1       1.192   9.731  21.035  0.00  0.00    +0.000 C 
ATOM      3  O   UNL     1       1.526   9.593  22.212  0.00  0.00    +0.000 OA
ENDROOT
BRANCH   2   4
ATOM      4  C   UNL     1       1.497   8.589  20.125  0.00  0.00    +0.000 A 
ATOM      5  C   UNL     1       1.935   8.895  18.823  0.00  0.00    +0.000 A 
ATOM      6  C   UNL     1       2.333   7.887  17.941  0.00  0.00    +0.000 A 
ATOM      7  C   UNL     1       2.344   6.558  18.365  0.00  0.00    +0.000 A 
ATOM      8  C   UNL     1       1.900   6.246  19.653  0.00  0.00    +0.000 A 
ATOM      9  C   UNL     1       1.398   7.246  20.502  0.00  0.00    +0.000 A 
BRANCH   8  10
ATOM     10  S   UNL     1       1.981   4.555  20.218  0.00  0.00    +0.000 S 
ATOM     11  O   UNL     1       2.596   4.576  21.526  0.00  0.00    +0.000 OA
ATOM     12  O   UNL     1       0.684   3.967  19.984  0.00  0.00    +0.000 OA
BRANCH  10  13
ATOM     13  N   UNL     1       3.042   3.820  19.123  0.00  0.00    +0.000 NA
ATOM     14  H   UNL     1       2.886   4.115  18.158  0.00  0.00    +0.000 HD
BRANCH  13  15
ATOM     15  C   UNL     1       4.463   3.767  19.510  0.00  0.00    +0.000 C 
BRANCH  15  16
ATOM     16  C   UNL     1       5.372   4.567  18.600  0.00  0.00    +0.000 A 
ATOM     17  C   UNL     1       5.128   4.600  17.217  0.00  0.00    +0.000 A 
ATOM     18  C   UNL     1       5.921   5.376  16.369  0.00  0.00    +0.000 A 
ATOM     19  C   UNL     1       6.957   6.146  16.893  0.00  0.00    +0.000 A 
ATOM     20  C   UNL     1       7.199   6.138  18.264  0.00  0.00    +0.000 A 
ATOM     21  C   UNL     1       6.410   5.359  19.113  0.00  0.00    +0.000 A 
ENDBRANCH  15  16
ENDBRANCH  13  15
ENDBRANCH  10  13
ENDBRANCH   8  10
ENDBRANCH   2   4
BRANCH   1  22
ATOM     22  C   UNL     1       0.010  11.124  19.227  0.00  0.00    +0.000 C 
BRANCH  22  24
ATOM     23  C   UNL     1      -1.462   9.938  17.486  0.00  0.00    +0.000 C 
ATOM     24  C   UNL     1      -1.384  10.602  18.844  0.00  0.00    +0.000 C 
ENDBRANCH  22  24
ENDBRANCH   1  22
BRANCH   1  25
ATOM     25  C   UNL     1       0.144  11.890  21.617  0.00  0.00    +0.000 C 
BRANCH  25  26
ATOM     26  C   UNL     1      -1.301  11.939  22.199  0.00  0.00    +0.000 C 
ATOM     27  O   UNL     1      -1.683  11.144  23.054  0.00  0.00    +0.000 OA
ATOM     28  N   UNL     1      -2.085  12.970  21.658  0.00  0.00    +0.000 N 
ATOM     29  H   UNL     1      -1.991  12.985  20.648  0.00  0.00    +0.000 HD
BRANCH  28  30
ATOM     30  C   UNL     1      -3.413  13.174  22.121  0.00  0.00    +0.000 A 
ATOM     31  C   UNL     1      -4.454  12.624  21.359  0.00  0.00    +0.000 A 
ATOM     32  C   UNL     1      -5.787  12.752  21.764  0.00  0.00    +0.000 A 
ATOM     33  C   UNL     1      -6.104  13.464  22.920  0.00  0.00    +0.000 A 
ATOM     34  C   UNL     1      -5.078  14.047  23.662  0.00  0.00    +0.000 A 
ATOM     35  C   UNL     1      -3.732  13.920  23.271  0.00  0.00    +0.000 A 
BRANCH  35  36
ATOM     36  O   UNL     1      -2.868  14.564  24.118  0.00  0.00    +0.000 OA
ATOM     37  C   UNL     1      -3.453  15.455  25.058  0.00  0.00    +0.000 C 
ENDBRANCH  35  36
ENDBRANCH  28  30
ENDBRANCH  25  26
ENDBRANCH   1  25
TORSDOF 11
ENDMDL
MODEL 8
REMARK VINA RESULT:      -7.0      2.452      4.223
REMARK  Name = 
REMARK  13 active torsions:
REMARK  status: ('A' for Active; 'I' for Inactive)
REMARK    1  A    between atoms: C_1  and  C_2
REMARK    2  A    between atoms: C_2  and  C_3
REMARK    3  A    between atoms: C_3  and  N_4
REMARK    4  A    between atoms: N_4  and  C_5
REMARK    5  A    between atoms: C_5  and  C_6
REMARK    6  A    between atoms: N_8  and  C_9
REMARK    7  A    between atoms: C_14  and  O_15
REMARK    8  A    between atoms: O_15  and  C_16
REMARK    9  A    between atoms: C_17  and  C_19
REMARK   10  A    between atoms: C_23  and  S_24
REMARK   11  A    between atoms: S_24  and  N_27
REMARK   12  A    between atoms: N_27  and  C_28
REMARK   13  A    between atoms: C_28  and  C_29
REMARK                            x       y       z     vdW  Elec       q    Type
REMARK                         _______ _______ _______ _____ _____    ______ ____
ROOT
ATOM      1  N   UNL     1       1.503   8.330  20.076  0.00  0.00    +0.000 N 
ATOM      2  C   UNL     1       1.534   9.169  18.947  0.00  0.00    +0.000 C 
ATOM      3  O   UNL     1       1.627   8.714  17.806  0.00  0.00    +0.000 OA
ENDROOT
BRANCH   2   4
ATOM      4  C   UNL     1       1.363  10.647  19.057  0.00  0.00    +0.000 A 
ATOM      5  C   UNL     1       2.193  11.457  18.260  0.00  0.00    +0.000 A 
ATOM      6  C   UNL     1       2.032  12.845  18.231  0.00  0.00    +0.000 A 
ATOM      7  C   UNL     1       1.005  13.440  18.963  0.00  0.00    +0.000 A 
ATOM      8  C   UNL     1       0.184  12.642  19.766  0.00  0.00    +0.000 A 
ATOM      9  C   UNL     1       0.413  11.260  19.879  0.00  0.00    +0.000 A 
BRANCH   8  10
ATOM     10  S   UNL     1      -1.173  13.395  20.646  0.00  0.00    +0.000 S 
ATOM     11  O   UNL     1      -1.491  12.526  21.756  0.00  0.00    +0.000 OA
ATOM     12  O   UNL     1      -0.841  14.788  20.826  0.00  0.00    +0.000 OA
BRANCH  10  13
ATOM     13  N   UNL     1      -2.446  13.349  19.530  0.00  0.00    +0.000 NA
ATOM     14  H   UNL     1      -2.189  13.728  18.618  0.00  0.00    +0.000 HD
BRANCH  13  15
ATOM     15  C   UNL     1      -3.224  12.100  19.463  0.00  0.00    +0.000 C 
BRANCH  15  16
ATOM     16  C   UNL     1      -3.150  11.409  18.117  0.00  0.00    +0.000 A 
ATOM     17  C   UNL     1      -2.134  10.471  17.864  0.00  0.00    +0.000 A 
ATOM     18  C   UNL     1      -2.082   9.783  16.650  0.00  0.00    +0.000 A 
ATOM     19  C   UNL     1      -3.056  10.006  15.679  0.00  0.00    +0.000 A 
ATOM     20  C   UNL     1      -4.080  10.918  15.923  0.00  0.00    +0.000 A 
ATOM     21  C   UNL     1      -4.130  11.612  17.134  0.00  0.00    +0.000 A 
ENDBRANCH  15  16
ENDBRANCH  13  15
ENDBRANCH  10  13
ENDBRANCH   8  10
ENDBRANCH   2   4
BRANCH   1  22
ATOM     22  C   UNL     1       1.365   8.754  21.478  0.00  0.00    +0.000 C 
BRANCH  22  24
ATOM     23  C   UNL     1      -0.275   9.641  23.246  0.00  0.00    +0.000 C 
ATOM     24  C   UNL     1      -0.029   8.660  22.120  0.00  0.00    +0.000 C 
ENDBRANCH  22  24
ENDBRANCH   1  22
BRANCH   1  25
ATOM     25  C   UNL     1       1.573   6.865  19.834  0.00  0.00    +0.000 C 
BRANCH  25  26
ATOM     26  C   UNL     1       2.884   6.243  19.267  0.00  0.00    +0.000 C 
ATOM     27  O   UNL     1       3.825   5.935  19.995  0.00  0.00    +0.000 OA
ATOM     28  N   UNL     1       2.862   6.071  17.874  0.00  0.00    +0.000 N 
ATOM     29  H   UNL     1       2.516   6.912  17.425  0.00  0.00    +0.000 HD
BRANCH  28  30
ATOM     30  C   UNL     1       3.969   5.473  17.211  0.00  0.00    +0.000 A 
ATOM     31  C   UNL     1       4.733   6.290  16.366  0.00  0.00    +0.000 A 
ATOM     32  C   UNL     1       5.857   5.786  15.703  0.00  0.00    +0.000 A 
ATOM     33  C   UNL     1       6.215   4.445  15.846  0.00  0.00    +0.000 A 
ATOM     34  C   UNL     1       5.436   3.617  16.654  0.00  0.00    +0.000 A 
ATOM     35  C   UNL     1       4.307   4.112  17.332  0.00  0.00    +0.000 A 
BRANCH  35  36
ATOM     36  O   UNL     1       3.665   3.152  18.071  0.00  0.00    +0.000 OA
ATOM     37  C   UNL     1       2.758   2.316  17.365  0.00  0.00    +0.000 C 
ENDBRANCH  35  36
ENDBRANCH  28  30
ENDBRANCH  25  26
ENDBRANCH   1  25
TORSDOF 11
ENDMDL
MODEL 9
REMARK VINA RESULT:      -7.0      2.033      3.278
REMARK  Name = 
REMARK  13 active torsions:
REMARK  status: ('A' for Active; 'I' for Inactive)
REMARK    1  A    between atoms: C_1  and  C_2
REMARK    2  A    between atoms: C_2  and  C_3
REMARK    3  A    between atoms: C_3  and  N_4
REMARK    4  A    between atoms: N_4  and  C_5
REMARK    5  A    between atoms: C_5  and  C_6
REMARK    6  A    between atoms: N_8  and  C_9
REMARK    7  A    between atoms: C_14  and  O_15
REMARK    8  A    between atoms: O_15  and  C_16
REMARK    9  A    between atoms: C_17  and  C_19
REMARK   10  A    between atoms: C_23  and  S_24
REMARK   11  A    between atoms: S_24  and  N_27
REMARK   12  A    between atoms: N_27  and  C_28
REMARK   13  A    between atoms: C_28  and  C_29
REMARK                            x       y       z     vdW  Elec       q    Type
REMARK                         _______ _______ _______ _____ _____    ______ ____
ROOT
ATOM      1  N   UNL     1       0.132  10.243  19.574  0.00  0.00    +0.000 N 
ATOM      2  C   UNL     1       0.259  11.108  20.677  0.00  0.00    +0.000 C 
ATOM      3  O   UNL     1       1.355  11.530  21.046  0.00  0.00    +0.000 OA
ENDROOT
BRANCH   2   4
ATOM      4  C   UNL     1      -0.931  11.637  21.406  0.00  0.00    +0.000 A 
ATOM      5  C   UNL     1      -1.191  11.117  22.687  0.00  0.00    +0.000 A 
ATOM      6  C   UNL     1      -2.227  11.626  23.475  0.00  0.00    +0.000 A 
ATOM      7  C   UNL     1      -2.989  12.698  23.011  0.00  0.00    +0.000 A 
ATOM      8  C   UNL     1      -2.743  13.212  21.734  0.00  0.00    +0.000 A 
ATOM      9  C   UNL     1      -1.774  12.630  20.900  0.00  0.00    +0.000 A 
BRANCH   8  10
ATOM     10  S   UNL     1      -3.671  14.628  21.170  0.00  0.00    +0.000 S 
ATOM     11  O   UNL     1      -4.598  14.973  22.224  0.00  0.00    +0.000 OA
ATOM     12  O   UNL     1      -2.719  15.574  20.638  0.00  0.00    +0.000 OA
BRANCH  10  13
ATOM     13  N   UNL     1      -4.541  14.032  19.846  0.00  0.00    +0.000 NA
ATOM     14  H   UNL     1      -4.083  13.242  19.391  0.00  0.00    +0.000 HD
BRANCH  13  15
ATOM     15  C   UNL     1      -5.993  13.855  20.032  0.00  0.00    +0.000 C 
BRANCH  15  16
ATOM     16  C   UNL     1      -6.438  12.408  20.007  0.00  0.00    +0.000 A 
ATOM     17  C   UNL     1      -7.290  11.918  21.011  0.00  0.00    +0.000 A 
ATOM     18  C   UNL     1      -7.757  10.602  20.974  0.00  0.00    +0.000 A 
ATOM     19  C   UNL     1      -7.394   9.762  19.924  0.00  0.00    +0.000 A 
ATOM     20  C   UNL     1      -6.565  10.239  18.911  0.00  0.00    +0.000 A 
ATOM     21  C   UNL     1      -6.094  11.553  18.949  0.00  0.00    +0.000 A 
ENDBRANCH  15  16
ENDBRANCH  13  15
ENDBRANCH  10  13
ENDBRANCH   8  10
ENDBRANCH   2   4
BRANCH   1  22
ATOM     22  C   UNL     1      -1.121   9.703  19.025  0.00  0.00    +0.000 C 
BRANCH  22  24
ATOM     23  C   UNL     1      -3.118   9.925  17.424  0.00  0.00    +0.000 C 
ATOM     24  C   UNL     1      -1.745  10.424  17.820  0.00  0.00    +0.000 C 
ENDBRANCH  22  24
ENDBRANCH   1  22
BRANCH   1  25
ATOM     25  C   UNL     1       1.381   9.870  18.859  0.00  0.00    +0.000 C 
BRANCH  25  26
ATOM     26  C   UNL     1       1.962   8.434  19.028  0.00  0.00    +0.000 C 
ATOM     27  O   UNL     1       2.078   7.908  20.132  0.00  0.00    +0.000 OA
ATOM     28  N   UNL     1       2.315   7.828  17.812  0.00  0.00    +0.000 N 
ATOM     29  H   UNL     1       2.845   8.478  17.241  0.00  0.00    +0.000 HD
BRANCH  28  30
ATOM     30  C   UNL     1       2.818   6.499  17.797  0.00  0.00    +0.000 A 
ATOM     31  C   UNL     1       1.905   5.460  18.027  0.00  0.00    +0.000 A 
ATOM     32  C   UNL     1       2.314   4.123  17.996  0.00  0.00    +0.000 A 
ATOM     33  C   UNL     1       3.653   3.804  17.771  0.00  0.00    +0.000 A 
ATOM     34  C   UNL     1       4.575   4.833  17.581  0.00  0.00    +0.000 A 
ATOM     35  C   UNL     1       4.176   6.182  17.602  0.00  0.00    +0.000 A 
BRANCH  35  36
ATOM     36  O   UNL     1       5.218   7.050  17.404  0.00  0.00    +0.000 OA
ATOM     37  C   UNL     1       6.524   6.498  17.501  0.00  0.00    +0.000 C 
ENDBRANCH  35  36
ENDBRANCH  28  30
ENDBRANCH  25  26
ENDBRANCH   1  25
TORSDOF 11
ENDMDL
