MODEL 1
REMARK VINA RESULT:      -7.7      0.000      0.000
REMARK  Name = 
REMARK  7 active torsions:
REMARK  status: ('A' for Active; 'I' for Inactive)
REMARK    1  A    between atoms: C_1  and  O_2
REMARK    2  A    between atoms: O_2  and  C_3
REMARK    3  A    between atoms: C_7  and  N_8
REMARK    4  A    between atoms: N_11  and  C_12
REMARK    5  A    between atoms: C_12  and  C_13
REMARK    6  A    between atoms: C_13  and  C_14
REMARK    7  A    between atoms: C_14  and  N_15
REMARK                            x       y       z     vdW  Elec       q    Type
REMARK                         _______ _______ _______ _____ _____    ______ ____
ROOT
ATOM      1  C   UNL     1       2.107   4.750  21.022  0.00  0.00    +0.000 C 
ENDROOT
BRANCH   1   5
ATOM      2  N   UNL     1       4.509   4.388  17.706  0.00  0.00    +0.000 N 
ATOM      3  C   UNL     1       3.103   4.795  17.601  0.00  0.00    +0.000 C 
ATOM      4  C   UNL     1       2.228   3.974  18.623  0.00  0.00    +0.000 C 
ATOM      5  N   UNL     1       2.669   3.804  20.033  0.00  0.00    +0.000 NA
ATOM      6  C   UNL     1       4.172   3.731  20.067  0.00  0.00    +0.000 C 
ATOM      7  C   UNL     1       5.018   4.590  19.071  0.00  0.00    +0.000 C 
BRANCH   2  12
ATOM      8  C   UNL     1       5.891   4.063  14.255  0.00  0.00    +0.000 A 
ATOM      9  C   UNL     1       7.146   4.653  14.390  0.00  0.00    +0.000 A 
ATOM     10  C   UNL     1       7.539   5.169  15.631  0.00  0.00    +0.000 A 
ATOM     11  C   UNL     1       6.680   5.073  16.743  0.00  0.00    +0.000 A 
ATOM     12  C   UNL     1       5.412   4.464  16.649  0.00  0.00    +0.000 A 
ATOM     13  C   UNL     1       5.054   3.961  15.379  0.00  0.00    +0.000 A 
BRANCH   8  15
ATOM     14  C   UNL     1       6.676   3.600  12.056  0.00  0.00    +0.000 C 
ATOM     15  O   UNL     1       5.600   3.630  12.990  0.00  0.00    +0.000 OA
ENDBRANCH   8  15
ENDBRANCH   2  12
ENDBRANCH   1   5
BRANCH   1  16
ATOM     16  C   UNL     1       1.442   6.172  20.680  0.00  0.00    +0.000 C 
BRANCH  16  17
ATOM     17  C   UNL     1       2.051   7.597  20.169  0.00  0.00    +0.000 C 
BRANCH  17  18
ATOM     18  N   UNL     1       1.205   8.778  19.919  0.00  0.00    +0.000 N 
ATOM     19  C   UNL     1       1.352   9.321  18.654  0.00  0.00    +0.000 C 
ATOM     20  O   UNL     1       1.165   8.712  17.609  0.00  0.00    +0.000 OA
ATOM     21  C   UNL     1       1.723  10.768  18.713  0.00  0.00    +0.000 C 
ATOM     22  C   UNL     1       0.475  11.435  19.205  0.00  0.00    +0.000 C 
ATOM     23  C   UNL     1       0.227  10.968  20.618  0.00  0.00    +0.000 A 
ATOM     24  C   UNL     1      -0.353  11.860  21.544  0.00  0.00    +0.000 A 
ATOM     25 CL   UNL     1      -0.470  13.562  21.248  0.00  0.00    +0.000 Cl
ATOM     26  C   UNL     1      -0.842  11.389  22.745  0.00  0.00    +0.000 A 
ATOM     27  C   UNL     1      -0.744  10.024  23.023  0.00  0.00    +0.000 A 
ATOM     28  C   UNL     1      -0.045   9.139  22.150  0.00  0.00    +0.000 A 
ATOM     29  C   UNL     1       0.497   9.589  20.938  0.00  0.00    +0.000 A 
ENDBRANCH  17  18
ENDBRANCH  16  17
ENDBRANCH   1  16
TORSDOF 6
ENDMDL
MODEL 2
REMARK VINA RESULT:      -7.7      1.775      2.822
REMARK  Name = 
REMARK  7 active torsions:
REMARK  status: ('A' for Active; 'I' for Inactive)
REMARK    1  A    between atoms: C_1  and  O_2
REMARK    2  A    between atoms: O_2  and  C_3
REMARK    3  A    between atoms: C_7  and  N_8
REMARK    4  A    between atoms: N_11  and  C_12
REMARK    5  A    between atoms: C_12  and  C_13
REMARK    6  A    between atoms: C_13  and  C_14
REMARK    7  A    between atoms: C_14  and  N_15
REMARK                            x       y       z     vdW  Elec       q    Type
REMARK                         _______ _______ _______ _____ _____    ______ ____
ROOT
ATOM      1  C   UNL     1       3.204   5.638  19.532  0.00  0.00    +0.000 C 
ENDROOT
BRANCH   1   5
ATOM      2  N   UNL     1       5.424   4.821  16.171  0.00  0.00    +0.000 N 
ATOM      3  C   UNL     1       4.808   3.754  16.969  0.00  0.00    +0.000 C 
ATOM      4  C   UNL     1       4.919   4.099  18.503  0.00  0.00    +0.000 C 
ATOM      5  N   UNL     1       4.573   5.456  19.002  0.00  0.00    +0.000 NA
ATOM      6  C   UNL     1       4.944   6.469  17.951  0.00  0.00    +0.000 C 
ATOM      7  C   UNL     1       4.782   6.117  16.437  0.00  0.00    +0.000 C 
BRANCH   2  12
ATOM      8  C   UNL     1       5.874   3.498  12.710  0.00  0.00    +0.000 A 
ATOM      9  C   UNL     1       7.016   4.176  12.289  0.00  0.00    +0.000 A 
ATOM     10  C   UNL     1       7.641   5.084  13.152  0.00  0.00    +0.000 A 
ATOM     11  C   UNL     1       7.132   5.296  14.449  0.00  0.00    +0.000 A 
ATOM     12  C   UNL     1       5.992   4.611  14.917  0.00  0.00    +0.000 A 
ATOM     13  C   UNL     1       5.390   3.709  14.013  0.00  0.00    +0.000 A 
BRANCH   8  15
ATOM     14  C   UNL     1       4.123   3.102  11.149  0.00  0.00    +0.000 C 
ATOM     15  O   UNL     1       5.328   2.667  11.771  0.00  0.00    +0.000 OA
ENDBRANCH   8  15
ENDBRANCH   2  12
ENDBRANCH   1   5
BRANCH   1  16
ATOM     16  C   UNL     1       2.494   7.050  19.818  0.00  0.00    +0.000 C 
BRANCH  16  17
ATOM     17  C   UNL     1       1.273   7.510  20.797  0.00  0.00    +0.000 C 
BRANCH  17  18
ATOM     18  N   UNL     1       0.892   8.922  20.981  0.00  0.00    +0.000 N 
ATOM     19  C   UNL     1       1.044   9.384  22.277  0.00  0.00    +0.000 C 
ATOM     20  O   UNL     1       2.097   9.375  22.900  0.00  0.00    +0.000 OA
ATOM     21  C   UNL     1      -0.231   9.947  22.817  0.00  0.00    +0.000 C 
ATOM     22  C   UNL     1      -0.416  11.217  22.044  0.00  0.00    +0.000 C 
ATOM     23  C   UNL     1      -0.653  10.848  20.600  0.00  0.00    +0.000 A 
ATOM     24  C   UNL     1      -1.517  11.646  19.822  0.00  0.00    +0.000 A 
ATOM     25 CL   UNL     1      -2.590  12.812  20.521  0.00  0.00    +0.000 Cl
ATOM     26  C   UNL     1      -1.539  11.506  18.449  0.00  0.00    +0.000 A 
ATOM     27  C   UNL     1      -0.700  10.560  17.856  0.00  0.00    +0.000 A 
ATOM     28  C   UNL     1       0.079   9.663  18.644  0.00  0.00    +0.000 A 
ATOM     29  C   UNL     1       0.099   9.752  20.043  0.00  0.00    +0.000 A 
ENDBRANCH  17  18
ENDBRANCH  16  17
ENDBRANCH   1  16
TORSDOF 6
ENDMDL
MODEL 3
REMARK VINA RESULT:      -7.6      1.499      1.961
REMARK  Name = 
REMARK  7 active torsions:
REMARK  status: ('A' for Active; 'I' for Inactive)
REMARK    1  A    between atoms: C_1  and  O_2
REMARK    2  A    between atoms: O_2  and  C_3
REMARK    3  A    between atoms: C_7  and  N_8
REMARK    4  A    between atoms: N_11  and  C_12
REMARK    5  A    between atoms: C_12  and  C_13
REMARK    6  A    between atoms: C_13  and  C_14
REMARK    7  A    between atoms: C_14  and  N_15
REMARK                            x       y       z     vdW  Elec       q    Type
REMARK                         _______ _______ _______ _____ _____    ______ ____
ROOT
ATOM      1  C   UNL     1       1.801   2.764  20.248  0.00  0.00    +0.000 C 
ENDROOT
BRANCH   1   5
ATOM      2  N   UNL     1       4.585   3.451  17.303  0.00  0.00    +0.000 N 
ATOM      3  C   UNL     1       3.172   3.207  16.990  0.00  0.00    +0.000 C 
ATOM      4  C   UNL     1       2.593   2.097  17.946  0.00  0.00    +0.000 C 
ATOM      5  N   UNL     1       2.852   2.146  19.409  0.00  0.00    +0.000 NA
ATOM      6  C   UNL     1       4.220   2.733  19.641  0.00  0.00    +0.000 C 
ATOM      7  C   UNL     1       4.752   3.865  18.704  0.00  0.00    +0.000 C 
BRANCH   2  12
ATOM      8  C   UNL     1       6.226   4.031  14.002  0.00  0.00    +0.000 A 
ATOM      9  C   UNL     1       7.298   4.848  14.353  0.00  0.00    +0.000 A 
ATOM     10  C   UNL     1       7.479   5.218  15.691  0.00  0.00    +0.000 A 
ATOM     11  C   UNL     1       6.595   4.748  16.682  0.00  0.00    +0.000 A 
ATOM     12  C   UNL     1       5.512   3.902  16.367  0.00  0.00    +0.000 A 
ATOM     13  C   UNL     1       5.364   3.558  15.006  0.00  0.00    +0.000 A 
BRANCH   8  15
ATOM     14  C   UNL     1       4.879   3.262  12.197  0.00  0.00    +0.000 C 
ATOM     15  O   UNL     1       6.127   3.767  12.663  0.00  0.00    +0.000 OA
ENDBRANCH   8  15
ENDBRANCH   2  12
ENDBRANCH   1   5
BRANCH   1  16
ATOM     16  C   UNL     1       1.871   4.228  20.904  0.00  0.00    +0.000 C 
BRANCH  16  17
ATOM     17  C   UNL     1       2.661   5.598  20.501  0.00  0.00    +0.000 C 
BRANCH  17  18
ATOM     18  N   UNL     1       2.024   6.687  19.740  0.00  0.00    +0.000 N 
ATOM     19  C   UNL     1       2.279   6.650  18.380  0.00  0.00    +0.000 C 
ATOM     20  O   UNL     1       2.013   5.707  17.647  0.00  0.00    +0.000 OA
ATOM     21  C   UNL     1       2.880   7.930  17.895  0.00  0.00    +0.000 C 
ATOM     22  C   UNL     1       1.750   8.910  17.983  0.00  0.00    +0.000 C 
ATOM     23  C   UNL     1       1.405   9.089  19.441  0.00  0.00    +0.000 A 
ATOM     24  C   UNL     1       0.963  10.350  19.891  0.00  0.00    +0.000 A 
ATOM     25 CL   UNL     1       1.131  11.789  18.941  0.00  0.00    +0.000 Cl
ATOM     26  C   UNL     1       0.384  10.476  21.136  0.00  0.00    +0.000 A 
ATOM     27  C   UNL     1       0.252   9.338  21.935  0.00  0.00    +0.000 A 
ATOM     28  C   UNL     1       0.813   8.087  21.540  0.00  0.00    +0.000 A 
ATOM     29  C   UNL     1       1.441   7.930  20.297  0.00  0.00    +0.000 A 
ENDBRANCH  17  18
ENDBRANCH  16  17
ENDBRANCH   1  16
TORSDOF 6
ENDMDL
MODEL 4
REMARK VINA RESULT:      -7.6      5.842      7.597
REMARK  Name = 
REMARK  7 active torsions:
REMARK  status: ('A' for Active; 'I' for Inactive)
REMARK    1  A    between atoms: C_1  and  O_2
REMARK    2  A    between atoms: O_2  and  C_3
REMARK    3  A    between atoms: C_7  and  N_8
REMARK    4  A    between atoms: N_11  and  C_12
REMARK    5  A    between atoms: C_12  and  C_13
REMARK    6  A    between atoms: C_13  and  C_14
REMARK    7  A    between atoms: C_14  and  N_15
REMARK                            x       y       z     vdW  Elec       q    Type
REMARK                         _______ _______ _______ _____ _____    ______ ____
ROOT
ATOM      1  C   UNL     1       8.201   7.894  18.469  0.00  0.00    +0.000 C 
ENDROOT
BRANCH   1   5
ATOM      2  N   UNL     1       5.088   5.220  18.233  0.00  0.00    +0.000 N 
ATOM      3  C   UNL     1       6.236   4.994  19.118  0.00  0.00    +0.000 C 
ATOM      4  C   UNL     1       7.564   5.453  18.404  0.00  0.00    +0.000 C 
ATOM      5  N   UNL     1       7.634   6.762  17.703  0.00  0.00    +0.000 NA
ATOM      6  C   UNL     1       6.287   7.065  17.102  0.00  0.00    +0.000 C 
ATOM      7  C   UNL     1       4.984   6.637  17.854  0.00  0.00    +0.000 C 
BRANCH   2  12
ATOM      8  C   UNL     1       1.906   3.776  19.545  0.00  0.00    +0.000 A 
ATOM      9  C   UNL     1       1.461   3.027  18.458  0.00  0.00    +0.000 A 
ATOM     10  C   UNL     1       2.213   3.002  17.278  0.00  0.00    +0.000 A 
ATOM     11  C   UNL     1       3.427   3.713  17.195  0.00  0.00    +0.000 A 
ATOM     12  C   UNL     1       3.919   4.464  18.282  0.00  0.00    +0.000 A 
ATOM     13  C   UNL     1       3.128   4.465  19.450  0.00  0.00    +0.000 A 
BRANCH   8  15
ATOM     14  C   UNL     1       1.377   2.823  21.660  0.00  0.00    +0.000 C 
ATOM     15  O   UNL     1       1.072   3.757  20.629  0.00  0.00    +0.000 OA
ENDBRANCH   8  15
ENDBRANCH   2  12
ENDBRANCH   1   5
BRANCH   1  16
ATOM     16  C   UNL     1       8.333   9.405  17.939  0.00  0.00    +0.000 C 
BRANCH  16  17
ATOM     17  C   UNL     1       9.340  10.635  18.308  0.00  0.00    +0.000 C 
BRANCH  17  18
ATOM     18  N   UNL     1       8.855  11.939  18.794  0.00  0.00    +0.000 N 
ATOM     19  C   UNL     1       8.548  12.838  17.786  0.00  0.00    +0.000 C 
ATOM     20  O   UNL     1       7.732  12.635  16.898  0.00  0.00    +0.000 OA
ATOM     21  C   UNL     1       9.302  14.120  17.940  0.00  0.00    +0.000 C 
ATOM     22  C   UNL     1       8.677  14.759  19.142  0.00  0.00    +0.000 C 
ATOM     23  C   UNL     1       8.991  13.897  20.339  0.00  0.00    +0.000 A 
ATOM     24  C   UNL     1       9.191  14.512  21.593  0.00  0.00    +0.000 A 
ATOM     25 CL   UNL     1       9.446  16.216  21.764  0.00  0.00    +0.000 Cl
ATOM     26  C   UNL     1       9.203  13.749  22.742  0.00  0.00    +0.000 A 
ATOM     27  C   UNL     1       9.021  12.369  22.637  0.00  0.00    +0.000 A 
ATOM     28  C   UNL     1       8.948  11.727  21.365  0.00  0.00    +0.000 A 
ATOM     29  C   UNL     1       8.968  12.466  20.174  0.00  0.00    +0.000 A 
ENDBRANCH  17  18
ENDBRANCH  16  17
ENDBRANCH   1  16
TORSDOF 6
ENDMDL
MODEL 5
REMARK VINA RESULT:      -7.5      6.367      8.496
REMARK  Name = 
REMARK  7 active torsions:
REMARK  status: ('A' for Active; 'I' for Inactive)
REMARK    1  A    between atoms: C_1  and  O_2
REMARK    2  A    between atoms: O_2  and  C_3
REMARK    3  A    between atoms: C_7  and  N_8
REMARK    4  A    between atoms: N_11  and  C_12
REMARK    5  A    between atoms: C_12  and  C_13
REMARK    6  A    between atoms: C_13  and  C_14
REMARK    7  A    between atoms: C_14  and  N_15
REMARK                            x       y       z     vdW  Elec       q    Type
REMARK                         _______ _______ _______ _____ _____    ______ ____
ROOT
ATOM      1  C   UNL     1       7.573   8.803  17.846  0.00  0.00    +0.000 C 
ENDROOT
BRANCH   1   5
ATOM      2  N   UNL     1       5.361   5.343  18.026  0.00  0.00    +0.000 N 
ATOM      3  C   UNL     1       6.317   5.705  19.080  0.00  0.00    +0.000 C 
ATOM      4  C   UNL     1       7.604   6.349  18.439  0.00  0.00    +0.000 C 
ATOM      5  N   UNL     1       7.486   7.398  17.391  0.00  0.00    +0.000 NA
ATOM      6  C   UNL     1       6.264   7.116  16.558  0.00  0.00    +0.000 C 
ATOM      7  C   UNL     1       4.984   6.518  17.228  0.00  0.00    +0.000 C 
BRANCH   2  12
ATOM      8  C   UNL     1       2.635   3.235  19.460  0.00  0.00    +0.000 A 
ATOM      9  C   UNL     1       2.456   2.279  18.463  0.00  0.00    +0.000 A 
ATOM     10  C   UNL     1       3.237   2.332  17.302  0.00  0.00    +0.000 A 
ATOM     11  C   UNL     1       4.216   3.335  17.152  0.00  0.00    +0.000 A 
ATOM     12  C   UNL     1       4.440   4.305  18.149  0.00  0.00    +0.000 A 
ATOM     13  C   UNL     1       3.627   4.218  19.300  0.00  0.00    +0.000 A 
BRANCH   8  15
ATOM     14  C   UNL     1       2.248   3.621  21.775  0.00  0.00    +0.000 C 
ATOM     15  O   UNL     1       1.791   3.107  20.529  0.00  0.00    +0.000 OA
ENDBRANCH   8  15
ENDBRANCH   2  12
ENDBRANCH   1   5
BRANCH   1  16
ATOM     16  C   UNL     1       8.899   9.528  18.389  0.00  0.00    +0.000 C 
BRANCH  16  17
ATOM     17  C   UNL     1       9.266  10.292  19.782  0.00  0.00    +0.000 C 
BRANCH  17  18
ATOM     18  N   UNL     1       9.687  11.704  19.827  0.00  0.00    +0.000 N 
ATOM     19  C   UNL     1       9.168  12.414  20.897  0.00  0.00    +0.000 C 
ATOM     20  O   UNL     1       9.327  12.116  22.073  0.00  0.00    +0.000 OA
ATOM     21  C   UNL     1       8.424  13.629  20.444  0.00  0.00    +0.000 C 
ATOM     22  C   UNL     1       9.501  14.542  19.945  0.00  0.00    +0.000 C 
ATOM     23  C   UNL     1      10.121  13.904  18.726  0.00  0.00    +0.000 A 
ATOM     24  C   UNL     1      10.584  14.729  17.680  0.00  0.00    +0.000 A 
ATOM     25 CL   UNL     1      10.164  16.405  17.561  0.00  0.00    +0.000 Cl
ATOM     26  C   UNL     1      11.393  14.205  16.693  0.00  0.00    +0.000 A 
ATOM     27  C   UNL     1      11.734  12.853  16.749  0.00  0.00    +0.000 A 
ATOM     28  C   UNL     1      11.165  11.986  17.729  0.00  0.00    +0.000 A 
ATOM     29  C   UNL     1      10.310  12.475  18.726  0.00  0.00    +0.000 A 
ENDBRANCH  17  18
ENDBRANCH  16  17
ENDBRANCH   1  16
TORSDOF 6
ENDMDL
MODEL 6
REMARK VINA RESULT:      -7.5      1.440      1.937
REMARK  Name = 
REMARK  7 active torsions:
REMARK  status: ('A' for Active; 'I' for Inactive)
REMARK    1  A    between atoms: C_1  and  O_2
REMARK    2  A    between atoms: O_2  and  C_3
REMARK    3  A    between atoms: C_7  and  N_8
REMARK    4  A    between atoms: N_11  and  C_12
REMARK    5  A    between atoms: C_12  and  C_13
REMARK    6  A    between atoms: C_13  and  C_14
REMARK    7  A    between atoms: C_14  and  N_15
REMARK                            x       y       z     vdW  Elec       q    Type
REMARK                         _______ _______ _______ _____ _____    ______ ____
ROOT
ATOM      1  C   UNL     1       3.107   5.781  19.332  0.00  0.00    +0.000 C 
ENDROOT
BRANCH   1   5
ATOM      2  N   UNL     1       5.370   4.808  16.042  0.00  0.00    +0.000 N 
ATOM      3  C   UNL     1       4.515   3.821  16.712  0.00  0.00    +0.000 C 
ATOM      4  C   UNL     1       4.579   4.026  18.273  0.00  0.00    +0.000 C 
ATOM      5  N   UNL     1       4.453   5.384  18.865  0.00  0.00    +0.000 NA
ATOM      6  C   UNL     1       5.077   6.383  17.926  0.00  0.00    +0.000 C 
ATOM      7  C   UNL     1       4.960   6.178  16.381  0.00  0.00    +0.000 C 
BRANCH   2  12
ATOM      8  C   UNL     1       5.892   3.511  12.581  0.00  0.00    +0.000 A 
ATOM      9  C   UNL     1       7.082   4.137  12.216  0.00  0.00    +0.000 A 
ATOM     10  C   UNL     1       7.716   5.001  13.117  0.00  0.00    +0.000 A 
ATOM     11  C   UNL     1       7.167   5.219  14.396  0.00  0.00    +0.000 A 
ATOM     12  C   UNL     1       5.977   4.587  14.808  0.00  0.00    +0.000 A 
ATOM     13  C   UNL     1       5.368   3.728  13.867  0.00  0.00    +0.000 A 
BRANCH   8  15
ATOM     14  C   UNL     1       4.024   3.049  11.182  0.00  0.00    +0.000 C 
ATOM     15  O   UNL     1       5.343   2.721  11.609  0.00  0.00    +0.000 OA
ENDBRANCH   8  15
ENDBRANCH   2  12
ENDBRANCH   1   5
BRANCH   1  16
ATOM     16  C   UNL     1       2.236   6.996  18.744  0.00  0.00    +0.000 C 
BRANCH  16  17
ATOM     17  C   UNL     1       2.176   8.592  19.075  0.00  0.00    +0.000 C 
BRANCH  17  18
ATOM     18  N   UNL     1       0.917   9.292  19.387  0.00  0.00    +0.000 N 
ATOM     19  C   UNL     1       0.344   9.933  18.301  0.00  0.00    +0.000 C 
ATOM     20  O   UNL     1       0.018   9.381  17.260  0.00  0.00    +0.000 OA
ATOM     21  C   UNL     1       0.122  11.386  18.572  0.00  0.00    +0.000 C 
ATOM     22  C   UNL     1      -0.991  11.396  19.575  0.00  0.00    +0.000 C 
ATOM     23  C   UNL     1      -0.474  10.768  20.845  0.00  0.00    +0.000 A 
ATOM     24  C   UNL     1      -0.946  11.243  22.086  0.00  0.00    +0.000 A 
ATOM     25 CL   UNL     1      -1.812  12.734  22.244  0.00  0.00    +0.000 Cl
ATOM     26  C   UNL     1      -0.712  10.520  23.238  0.00  0.00    +0.000 A 
ATOM     27  C   UNL     1       0.001   9.323  23.148  0.00  0.00    +0.000 A 
ATOM     28  C   UNL     1       0.591   8.903  21.919  0.00  0.00    +0.000 A 
ATOM     29  C   UNL     1       0.405   9.631  20.735  0.00  0.00    +0.000 A 
ENDBRANCH  17  18
ENDBRANCH  16  17
ENDBRANCH   1  16
TORSDOF 6
ENDMDL
MODEL 7
REMARK VINA RESULT:      -7.5      3.875     10.537
REMARK  Name = 
REMARK  7 active torsions:
REMARK  status: ('A' for Active; 'I' for Inactive)
REMARK    1  A    between atoms: C_1  and  O_2
REMARK    2  A    between atoms: O_2  and  C_3
REMARK    3  A    between atoms: C_7  and  N_8
REMARK    4  A    between atoms: N_11  and  C_12
REMARK    5  A    between atoms: C_12  and  C_13
REMARK    6  A    between atoms: C_13  and  C_14
REMARK    7  A    between atoms: C_14  and  N_15
REMARK                            x       y       z     vdW  Elec       q    Type
REMARK                         _______ _______ _______ _____ _____    ______ ____
ROOT
ATOM      1  C   UNL     1       0.672   9.761  18.505  0.00  0.00    +0.000 C 
ENDROOT
BRANCH   1   5
ATOM      2  N   UNL     1      -1.145  12.156  21.308  0.00  0.00    +0.000 N 
ATOM      3  C   UNL     1      -1.747  11.914  19.991  0.00  0.00    +0.000 C 
ATOM      4  C   UNL     1      -0.626  11.893  18.884  0.00  0.00    +0.000 C 
ATOM      5  N   UNL     1       0.627  11.120  19.089  0.00  0.00    +0.000 NA
ATOM      6  C   UNL     1       0.984  11.151  20.552  0.00  0.00    +0.000 C 
ATOM      7  C   UNL     1      -0.148  11.126  21.631  0.00  0.00    +0.000 C 
BRANCH   2  12
ATOM      8  C   UNL     1      -3.731  12.761  23.931  0.00  0.00    +0.000 A 
ATOM      9  C   UNL     1      -3.237  13.898  24.565  0.00  0.00    +0.000 A 
ATOM     10  C   UNL     1      -2.035  14.469  24.129  0.00  0.00    +0.000 A 
ATOM     11  C   UNL     1      -1.340  13.910  23.038  0.00  0.00    +0.000 A 
ATOM     12  C   UNL     1      -1.820  12.772  22.359  0.00  0.00    +0.000 A 
ATOM     13  C   UNL     1      -3.032  12.226  22.835  0.00  0.00    +0.000 A 
BRANCH   8  15
ATOM     14  C   UNL     1      -6.109  12.808  23.968  0.00  0.00    +0.000 C 
ATOM     15  O   UNL     1      -4.889  12.268  24.467  0.00  0.00    +0.000 OA
ENDBRANCH   8  15
ENDBRANCH   2  12
ENDBRANCH   1   5
BRANCH   1  16
ATOM     16  C   UNL     1       1.846   8.688  18.727  0.00  0.00    +0.000 C 
BRANCH  16  17
ATOM     17  C   UNL     1       2.933   7.996  17.726  0.00  0.00    +0.000 C 
BRANCH  17  18
ATOM     18  N   UNL     1       3.573   6.702  18.021  0.00  0.00    +0.000 N 
ATOM     19  C   UNL     1       4.708   6.449  17.269  0.00  0.00    +0.000 C 
ATOM     20  O   UNL     1       5.699   7.165  17.243  0.00  0.00    +0.000 OA
ATOM     21  C   UNL     1       4.599   5.158  16.523  0.00  0.00    +0.000 C 
ATOM     22  C   UNL     1       4.687   4.117  17.597  0.00  0.00    +0.000 C 
ATOM     23  C   UNL     1       3.462   4.246  18.467  0.00  0.00    +0.000 A 
ATOM     24  C   UNL     1       2.902   3.085  19.040  0.00  0.00    +0.000 A 
ATOM     25 CL   UNL     1       3.328   1.491  18.518  0.00  0.00    +0.000 Cl
ATOM     26  C   UNL     1       1.966   3.194  20.048  0.00  0.00    +0.000 A 
ATOM     27  C   UNL     1       1.585   4.467  20.478  0.00  0.00    +0.000 A 
ATOM     28  C   UNL     1       2.049   5.642  19.817  0.00  0.00    +0.000 A 
ATOM     29  C   UNL     1       2.973   5.569  18.765  0.00  0.00    +0.000 A 
ENDBRANCH  17  18
ENDBRANCH  16  17
ENDBRANCH   1  16
TORSDOF 6
ENDMDL
MODEL 8
REMARK VINA RESULT:      -7.5      3.787     10.419
REMARK  Name = 
REMARK  7 active torsions:
REMARK  status: ('A' for Active; 'I' for Inactive)
REMARK    1  A    between atoms: C_1  and  O_2
REMARK    2  A    between atoms: O_2  and  C_3
REMARK    3  A    between atoms: C_7  and  N_8
REMARK    4  A    between atoms: N_11  and  C_12
REMARK    5  A    between atoms: C_12  and  C_13
REMARK    6  A    between atoms: C_13  and  C_14
REMARK    7  A    between atoms: C_14  and  N_15
REMARK                            x       y       z     vdW  Elec       q    Type
REMARK                         _______ _______ _______ _____ _____    ______ ____
ROOT
ATOM      1  C   UNL     1       1.185   7.726  20.353  0.00  0.00    +0.000 C 
ENDROOT
BRANCH   1   5
ATOM      2  N   UNL     1      -0.561  11.000  22.121  0.00  0.00    +0.000 N 
ATOM      3  C   UNL     1      -0.510  10.844  20.663  0.00  0.00    +0.000 C 
ATOM      4  C   UNL     1       0.876  10.229  20.236  0.00  0.00    +0.000 C 
ATOM      5  N   UNL     1       1.437   9.054  20.955  0.00  0.00    +0.000 NA
ATOM      6  C   UNL     1       1.039   9.136  22.405  0.00  0.00    +0.000 C 
ATOM      7  C   UNL     1      -0.361   9.710  22.798  0.00  0.00    +0.000 C 
BRANCH   2  12
ATOM      8  C   UNL     1      -3.428  12.566  23.927  0.00  0.00    +0.000 A 
ATOM      9  C   UNL     1      -2.947  13.849  24.173  0.00  0.00    +0.000 A 
ATOM     10  C   UNL     1      -1.661  14.202  23.746  0.00  0.00    +0.000 A 
ATOM     11  C   UNL     1      -0.865  13.271  23.050  0.00  0.00    +0.000 A 
ATOM     12  C   UNL     1      -1.327  11.970  22.764  0.00  0.00    +0.000 A 
ATOM     13  C   UNL     1      -2.627  11.655  23.217  0.00  0.00    +0.000 A 
BRANCH   8  15
ATOM     14  C   UNL     1      -5.759  13.031  23.823  0.00  0.00    +0.000 C 
ATOM     15  O   UNL     1      -4.679  12.322  24.424  0.00  0.00    +0.000 OA
ENDBRANCH   8  15
ENDBRANCH   2  12
ENDBRANCH   1   5
BRANCH   1  16
ATOM     16  C   UNL     1       1.424   6.313  21.078  0.00  0.00    +0.000 C 
BRANCH  16  17
ATOM     17  C   UNL     1       2.409   5.050  20.770  0.00  0.00    +0.000 C 
BRANCH  17  18
ATOM     18  N   UNL     1       2.641   4.537  19.408  0.00  0.00    +0.000 N 
ATOM     19  C   UNL     1       2.289   3.209  19.237  0.00  0.00    +0.000 C 
ATOM     20  O   UNL     1       1.172   2.754  19.439  0.00  0.00    +0.000 OA
ATOM     21  C   UNL     1       3.434   2.396  18.724  0.00  0.00    +0.000 C 
ATOM     22  C   UNL     1       3.602   2.867  17.312  0.00  0.00    +0.000 C 
ATOM     23  C   UNL     1       4.047   4.308  17.356  0.00  0.00    +0.000 A 
ATOM     24  C   UNL     1       4.928   4.784  16.363  0.00  0.00    +0.000 A 
ATOM     25 CL   UNL     1       5.801   3.724  15.307  0.00  0.00    +0.000 Cl
ATOM     26  C   UNL     1       5.132   6.140  16.212  0.00  0.00    +0.000 A 
ATOM     27  C   UNL     1       4.459   7.021  17.060  0.00  0.00    +0.000 A 
ATOM     28  C   UNL     1       3.669   6.543  18.148  0.00  0.00    +0.000 A 
ATOM     29  C   UNL     1       3.468   5.171  18.354  0.00  0.00    +0.000 A 
ENDBRANCH  17  18
ENDBRANCH  16  17
ENDBRANCH   1  16
TORSDOF 6
ENDMDL
MODEL 9
REMARK VINA RESULT:      -7.3      3.992     10.663
REMARK  Name = 
REMARK  7 active torsions:
REMARK  status: ('A' for Active; 'I' for Inactive)
REMARK    1  A    between atoms: C_1  and  O_2
REMARK    2  A    between atoms: O_2  and  C_3
REMARK    3  A    between atoms: C_7  and  N_8
REMARK    4  A    between atoms: N_11  and  C_12
REMARK    5  A    between atoms: C_12  and  C_13
REMARK    6  A    between atoms: C_13  and  C_14
REMARK    7  A    between atoms: C_14  and  N_15
REMARK                            x       y       z     vdW  Elec       q    Type
REMARK                         _______ _______ _______ _____ _____    ______ ____
ROOT
ATOM      1  C   UNL     1       1.311   8.614  20.744  0.00  0.00    +0.000 C 
ENDROOT
BRANCH   1   5
ATOM      2  N   UNL     1      -0.861  11.548  22.634  0.00  0.00    +0.000 N 
ATOM      3  C   UNL     1      -0.352  11.721  21.268  0.00  0.00    +0.000 C 
ATOM      4  C   UNL     1       1.089  11.095  21.148  0.00  0.00    +0.000 C 
ATOM      5  N   UNL     1       1.377   9.744  21.697  0.00  0.00    +0.000 NA
ATOM      6  C   UNL     1       0.541   9.532  22.931  0.00  0.00    +0.000 C 
ATOM      7  C   UNL     1      -0.903  10.126  23.006  0.00  0.00    +0.000 C 
BRANCH   2  12
ATOM      8  C   UNL     1      -2.347  14.710  23.945  0.00  0.00    +0.000 A 
ATOM      9  C   UNL     1      -3.613  14.289  24.345  0.00  0.00    +0.000 A 
ATOM     10  C   UNL     1      -3.985  12.950  24.175  0.00  0.00    +0.000 A 
ATOM     11  C   UNL     1      -3.074  12.027  23.623  0.00  0.00    +0.000 A 
ATOM     12  C   UNL     1      -1.778  12.412  23.227  0.00  0.00    +0.000 A 
ATOM     13  C   UNL     1      -1.446  13.772  23.412  0.00  0.00    +0.000 A 
BRANCH   8  15
ATOM     14  C   UNL     1      -3.121  16.945  23.679  0.00  0.00    +0.000 C 
ATOM     15  O   UNL     1      -2.109  16.046  24.123  0.00  0.00    +0.000 OA
ENDBRANCH   8  15
ENDBRANCH   2  12
ENDBRANCH   1   5
BRANCH   1  16
ATOM     16  C   UNL     1       1.884   8.623  19.244  0.00  0.00    +0.000 C 
BRANCH  16  17
ATOM     17  C   UNL     1       2.110   7.457  18.126  0.00  0.00    +0.000 C 
BRANCH  17  18
ATOM     18  N   UNL     1       2.964   6.280  18.368  0.00  0.00    +0.000 N 
ATOM     19  C   UNL     1       4.128   6.264  17.617  0.00  0.00    +0.000 C 
ATOM     20  O   UNL     1       4.980   7.141  17.636  0.00  0.00    +0.000 OA
ATOM     21  C   UNL     1       4.247   5.011  16.810  0.00  0.00    +0.000 C 
ATOM     22  C   UNL     1       4.511   3.950  17.835  0.00  0.00    +0.000 C 
ATOM     23  C   UNL     1       3.279   3.824  18.697  0.00  0.00    +0.000 A 
ATOM     24  C   UNL     1       2.928   2.557  19.208  0.00  0.00    +0.000 A 
ATOM     25 CL   UNL     1       3.626   1.088  18.617  0.00  0.00    +0.000 Cl
ATOM     26  C   UNL     1       1.984   2.454  20.210  0.00  0.00    +0.000 A 
ATOM     27  C   UNL     1       1.387   3.619  20.695  0.00  0.00    +0.000 A 
ATOM     28  C   UNL     1       1.643   4.888  20.094  0.00  0.00    +0.000 A 
ATOM     29  C   UNL     1       2.568   5.026  19.051  0.00  0.00    +0.000 A 
ENDBRANCH  17  18
ENDBRANCH  16  17
ENDBRANCH   1  16
TORSDOF 6
ENDMDL
