MODEL 1
REMARK VINA RESULT:      -7.8      0.000      0.000
REMARK  Name = 
REMARK  10 active torsions:
REMARK  status: ('A' for Active; 'I' for Inactive)
REMARK    1  A    between atoms: N_1  and  CA_2
REMARK    2  A    between atoms: CA_2  and  C_3
REMARK    3  A    between atoms: CA_2  and  C_19
REMARK    4  A    between atoms: C_3  and  C_4
REMARK    5  A    between atoms: C_4  and  C_5
REMARK    6  A    between atoms: C_4  and  C_16
REMARK    7  A    between atoms: C_5  and  C_6
REMARK    8  A    between atoms: C_9  and  C_10
REMARK    9  A    between atoms: C_16  and  O_18
REMARK   10  A    between atoms: C_19  and  OXT_21
REMARK                            x       y       z     vdW  Elec       q    Type
REMARK                         _______ _______ _______ _____ _____    ______ ____
ROOT
ATOM      1  C   UNL     1       6.198   4.148  15.962  0.00  0.00    +0.000 C 
ENDROOT
BRANCH   1   2
ATOM      2  C   UNL     1       6.833   4.359  14.589  0.00  0.00    +0.000 C 
ATOM      3  O   UNL     1       7.617   5.259  14.324  0.00  0.00    +0.000 OA
BRANCH   2   4
ATOM      4  O   UNL     1       6.479   3.445  13.663  0.00  0.00    +0.000 OA
ATOM      5  H   UNL     1       7.228   3.018  13.201  0.00  0.00    +0.000 HD
ENDBRANCH   2   4
ENDBRANCH   1   2
BRANCH   1   6
ATOM      6  C   UNL     1       7.248   4.617  17.015  0.00  0.00    +0.000 C 
BRANCH   6   7
ATOM      7  CA  UNL     1       7.154   5.998  17.680  0.00  0.00    +0.000 C 
BRANCH   7   8
ATOM      8  N   UNL     1       7.672   7.118  16.852  0.00  0.00    +0.000 NA
ATOM      9  H1  UNL     1       8.528   7.469  17.293  0.00  0.00    +0.000 HD
ATOM     10  H2  UNL     1       7.018   7.901  16.876  0.00  0.00    +0.000 HD
ENDBRANCH   7   8
BRANCH   7  11
ATOM     11  C   UNL     1       7.752   6.091  19.095  0.00  0.00    +0.000 C 
ATOM     12  O   UNL     1       7.492   5.353  20.029  0.00  0.00    +0.000 OA
BRANCH  11  13
ATOM     13  OXT UNL     1       8.614   7.141  19.185  0.00  0.00    +0.000 OA
ATOM     14  HXT UNL     1       9.231   7.062  18.415  0.00  0.00    +0.000 HD
ENDBRANCH  11  13
ENDBRANCH   7  11
ENDBRANCH   6   7
ENDBRANCH   1   6
BRANCH   1  15
ATOM     15  C   UNL     1       4.880   4.928  16.032  0.00  0.00    +0.000 C 
BRANCH  15  16
ATOM     16  C   UNL     1       3.855   4.496  17.064  0.00  0.00    +0.000 A 
ATOM     17  C   UNL     1       3.673   3.147  17.399  0.00  0.00    +0.000 A 
ATOM     18  C   UNL     1       2.919   2.792  18.523  0.00  0.00    +0.000 A 
ATOM     19  C   UNL     1       2.350   3.776  19.345  0.00  0.00    +0.000 A 
ATOM     20  C   UNL     1       2.453   5.117  18.954  0.00  0.00    +0.000 A 
ATOM     21  C   UNL     1       3.195   5.471  17.825  0.00  0.00    +0.000 A 
BRANCH  19  22
ATOM     22  C   UNL     1       1.726   3.425  20.676  0.00  0.00    +0.000 C 
ATOM     23  F   UNL     1       1.609   2.083  20.882  0.00  0.00    +0.000 F 
ATOM     24  F   UNL     1       2.458   3.896  21.724  0.00  0.00    +0.000 F 
ATOM     25  F   UNL     1       0.476   3.940  20.832  0.00  0.00    +0.000 F 
ENDBRANCH  19  22
ENDBRANCH  15  16
ENDBRANCH   1  15
TORSDOF 10
ENDMDL
MODEL 2
REMARK VINA RESULT:      -7.8      0.809      1.284
REMARK  Name = 
REMARK  10 active torsions:
REMARK  status: ('A' for Active; 'I' for Inactive)
REMARK    1  A    between atoms: N_1  and  CA_2
REMARK    2  A    between atoms: CA_2  and  C_3
REMARK    3  A    between atoms: CA_2  and  C_19
REMARK    4  A    between atoms: C_3  and  C_4
REMARK    5  A    between atoms: C_4  and  C_5
REMARK    6  A    between atoms: C_4  and  C_16
REMARK    7  A    between atoms: C_5  and  C_6
REMARK    8  A    between atoms: C_9  and  C_10
REMARK    9  A    between atoms: C_16  and  O_18
REMARK   10  A    between atoms: C_19  and  OXT_21
REMARK                            x       y       z     vdW  Elec       q    Type
REMARK                         _______ _______ _______ _____ _____    ______ ____
ROOT
ATOM      1  C   UNL     1       6.345   4.027  15.963  0.00  0.00    +0.000 C 
ENDROOT
BRANCH   1   2
ATOM      2  C   UNL     1       6.810   4.354  14.545  0.00  0.00    +0.000 C 
ATOM      3  O   UNL     1       7.531   5.299  14.258  0.00  0.00    +0.000 OA
BRANCH   2   4
ATOM      4  O   UNL     1       6.380   3.491  13.603  0.00  0.00    +0.000 OA
ATOM      5  H   UNL     1       7.080   2.942  13.198  0.00  0.00    +0.000 HD
ENDBRANCH   2   4
ENDBRANCH   1   2
BRANCH   1   6
ATOM      6  C   UNL     1       7.410   4.629  16.930  0.00  0.00    +0.000 C 
BRANCH   6   7
ATOM      7  CA  UNL     1       7.205   5.998  17.595  0.00  0.00    +0.000 C 
BRANCH   7   8
ATOM      8  N   UNL     1       7.668   7.154  16.783  0.00  0.00    +0.000 NA
ATOM      9  H1  UNL     1       8.664   7.298  16.975  0.00  0.00    +0.000 HD
ATOM     10  H2  UNL     1       7.207   8.008  17.097  0.00  0.00    +0.000 HD
ENDBRANCH   7   8
BRANCH   7  11
ATOM     11  C   UNL     1       7.758   6.127  19.026  0.00  0.00    +0.000 C 
ATOM     12  O   UNL     1       7.486   5.397  19.963  0.00  0.00    +0.000 OA
BRANCH  11  13
ATOM     13  OXT UNL     1       8.592   7.197  19.124  0.00  0.00    +0.000 OA
ATOM     14  HXT UNL     1       8.499   7.541  20.047  0.00  0.00    +0.000 HD
ENDBRANCH  11  13
ENDBRANCH   7  11
ENDBRANCH   6   7
ENDBRANCH   1   6
BRANCH   1  15
ATOM     15  C   UNL     1       4.939   4.601  16.176  0.00  0.00    +0.000 C 
BRANCH  15  16
ATOM     16  C   UNL     1       4.064   3.956  17.234  0.00  0.00    +0.000 A 
ATOM     17  C   UNL     1       4.519   3.763  18.546  0.00  0.00    +0.000 A 
ATOM     18  C   UNL     1       3.622   3.410  19.561  0.00  0.00    +0.000 A 
ATOM     19  C   UNL     1       2.254   3.264  19.290  0.00  0.00    +0.000 A 
ATOM     20  C   UNL     1       1.818   3.363  17.963  0.00  0.00    +0.000 A 
ATOM     21  C   UNL     1       2.715   3.703  16.947  0.00  0.00    +0.000 A 
BRANCH  19  22
ATOM     22  C   UNL     1       1.244   3.104  20.404  0.00  0.00    +0.000 C 
ATOM     23  F   UNL     1       0.991   4.261  21.077  0.00  0.00    +0.000 F 
ATOM     24  F   UNL     1       0.037   2.675  19.942  0.00  0.00    +0.000 F 
ATOM     25  F   UNL     1       1.628   2.198  21.345  0.00  0.00    +0.000 F 
ENDBRANCH  19  22
ENDBRANCH  15  16
ENDBRANCH   1  15
TORSDOF 10
ENDMDL
MODEL 3
REMARK VINA RESULT:      -7.5      1.167      1.544
REMARK  Name = 
REMARK  10 active torsions:
REMARK  status: ('A' for Active; 'I' for Inactive)
REMARK    1  A    between atoms: N_1  and  CA_2
REMARK    2  A    between atoms: CA_2  and  C_3
REMARK    3  A    between atoms: CA_2  and  C_19
REMARK    4  A    between atoms: C_3  and  C_4
REMARK    5  A    between atoms: C_4  and  C_5
REMARK    6  A    between atoms: C_4  and  C_16
REMARK    7  A    between atoms: C_5  and  C_6
REMARK    8  A    between atoms: C_9  and  C_10
REMARK    9  A    between atoms: C_16  and  O_18
REMARK   10  A    between atoms: C_19  and  OXT_21
REMARK                            x       y       z     vdW  Elec       q    Type
REMARK                         _______ _______ _______ _____ _____    ______ ____
ROOT
ATOM      1  C   UNL     1       5.945   4.274  16.001  0.00  0.00    +0.000 C 
ENDROOT
BRANCH   1   2
ATOM      2  C   UNL     1       6.514   4.445  14.594  0.00  0.00    +0.000 C 
ATOM      3  O   UNL     1       6.075   3.882  13.601  0.00  0.00    +0.000 OA
BRANCH   2   4
ATOM      4  O   UNL     1       7.549   5.304  14.511  0.00  0.00    +0.000 OA
ATOM      5  H   UNL     1       7.463   6.107  15.062  0.00  0.00    +0.000 HD
ENDBRANCH   2   4
ENDBRANCH   1   2
BRANCH   1   6
ATOM      6  C   UNL     1       6.455   5.487  16.838  0.00  0.00    +0.000 C 
BRANCH   6   7
ATOM      7  CA  UNL     1       7.508   5.314  17.942  0.00  0.00    +0.000 C 
BRANCH   7   8
ATOM      8  N   UNL     1       8.343   4.091  17.811  0.00  0.00    +0.000 NA
ATOM      9  H1  UNL     1       9.326   4.367  17.901  0.00  0.00    +0.000 HD
ATOM     10  H2  UNL     1       8.256   3.708  16.869  0.00  0.00    +0.000 HD
ENDBRANCH   7   8
BRANCH   7  11
ATOM     11  C   UNL     1       6.977   5.417  19.383  0.00  0.00    +0.000 C 
ATOM     12  O   UNL     1       7.653   5.378  20.396  0.00  0.00    +0.000 OA
BRANCH  11  13
ATOM     13  OXT UNL     1       5.622   5.536  19.387  0.00  0.00    +0.000 OA
ATOM     14  HXT UNL     1       5.278   4.846  18.766  0.00  0.00    +0.000 HD
ENDBRANCH  11  13
ENDBRANCH   7  11
ENDBRANCH   6   7
ENDBRANCH   1   6
BRANCH   1  15
ATOM     15  C   UNL     1       4.416   4.194  15.919  0.00  0.00    +0.000 C 
BRANCH  15  16
ATOM     16  C   UNL     1       3.661   3.777  17.167  0.00  0.00    +0.000 A 
ATOM     17  C   UNL     1       4.068   2.682  17.941  0.00  0.00    +0.000 A 
ATOM     18  C   UNL     1       3.523   2.471  19.213  0.00  0.00    +0.000 A 
ATOM     19  C   UNL     1       2.577   3.361  19.743  0.00  0.00    +0.000 A 
ATOM     20  C   UNL     1       2.102   4.398  18.931  0.00  0.00    +0.000 A 
ATOM     21  C   UNL     1       2.637   4.601  17.656  0.00  0.00    +0.000 A 
BRANCH  19  22
ATOM     22  C   UNL     1       2.145   3.278  21.190  0.00  0.00    +0.000 C 
ATOM     23  F   UNL     1       0.837   2.929  21.345  0.00  0.00    +0.000 F 
ATOM     24  F   UNL     1       2.859   2.348  21.884  0.00  0.00    +0.000 F 
ATOM     25  F   UNL     1       2.305   4.451  21.862  0.00  0.00    +0.000 F 
ENDBRANCH  19  22
ENDBRANCH  15  16
ENDBRANCH   1  15
TORSDOF 10
ENDMDL
MODEL 4
REMARK VINA RESULT:      -7.4      1.127      2.041
REMARK  Name = 
REMARK  10 active torsions:
REMARK  status: ('A' for Active; 'I' for Inactive)
REMARK    1  A    between atoms: N_1  and  CA_2
REMARK    2  A    between atoms: CA_2  and  C_3
REMARK    3  A    between atoms: CA_2  and  C_19
REMARK    4  A    between atoms: C_3  and  C_4
REMARK    5  A    between atoms: C_4  and  C_5
REMARK    6  A    between atoms: C_4  and  C_16
REMARK    7  A    between atoms: C_5  and  C_6
REMARK    8  A    between atoms: C_9  and  C_10
REMARK    9  A    between atoms: C_16  and  O_18
REMARK   10  A    between atoms: C_19  and  OXT_21
REMARK                            x       y       z     vdW  Elec       q    Type
REMARK                         _______ _______ _______ _____ _____    ______ ____
ROOT
ATOM      1  C   UNL     1       6.317   4.351  15.702  0.00  0.00    +0.000 C 
ENDROOT
BRANCH   1   2
ATOM      2  C   UNL     1       6.891   4.599  14.309  0.00  0.00    +0.000 C 
ATOM      3  O   UNL     1       6.537   4.002  13.302  0.00  0.00    +0.000 OA
BRANCH   2   4
ATOM      4  O   UNL     1       7.827   5.568  14.254  0.00  0.00    +0.000 OA
ATOM      5  H   UNL     1       7.786   6.220  14.982  0.00  0.00    +0.000 HD
ENDBRANCH   2   4
ENDBRANCH   1   2
BRANCH   1   6
ATOM      6  C   UNL     1       7.036   5.346  16.663  0.00  0.00    +0.000 C 
BRANCH   6   7
ATOM      7  CA  UNL     1       7.504   4.915  18.061  0.00  0.00    +0.000 C 
BRANCH   7   8
ATOM      8  N   UNL     1       6.553   4.032  18.784  0.00  0.00    +0.000 NA
ATOM      9  H1  UNL     1       7.097   3.399  19.379  0.00  0.00    +0.000 HD
ATOM     10  H2  UNL     1       6.066   3.426  18.123  0.00  0.00    +0.000 HD
ENDBRANCH   7   8
BRANCH   7  11
ATOM     11  C   UNL     1       7.947   6.058  18.991  0.00  0.00    +0.000 C 
ATOM     12  O   UNL     1       8.229   7.191  18.643  0.00  0.00    +0.000 OA
BRANCH  11  13
ATOM     13  OXT UNL     1       8.010   5.630  20.281  0.00  0.00    +0.000 OA
ATOM     14  HXT UNL     1       8.908   5.879  20.615  0.00  0.00    +0.000 HD
ENDBRANCH  11  13
ENDBRANCH   7  11
ENDBRANCH   6   7
ENDBRANCH   1   6
BRANCH   1  15
ATOM     15  C   UNL     1       4.796   4.540  15.660  0.00  0.00    +0.000 C 
BRANCH  15  16
ATOM     16  C   UNL     1       4.007   4.212  16.914  0.00  0.00    +0.000 A 
ATOM     17  C   UNL     1       3.391   5.212  17.678  0.00  0.00    +0.000 A 
ATOM     18  C   UNL     1       2.463   4.876  18.670  0.00  0.00    +0.000 A 
ATOM     19  C   UNL     1       2.119   3.536  18.905  0.00  0.00    +0.000 A 
ATOM     20  C   UNL     1       2.806   2.535  18.207  0.00  0.00    +0.000 A 
ATOM     21  C   UNL     1       3.742   2.870  17.225  0.00  0.00    +0.000 A 
BRANCH  19  22
ATOM     22  C   UNL     1       0.966   3.168  19.810  0.00  0.00    +0.000 C 
ATOM     23  F   UNL     1       0.323   4.248  20.337  0.00  0.00    +0.000 F 
ATOM     24  F   UNL     1       0.008   2.454  19.153  0.00  0.00    +0.000 F 
ATOM     25  F   UNL     1       1.343   2.401  20.869  0.00  0.00    +0.000 F 
ENDBRANCH  19  22
ENDBRANCH  15  16
ENDBRANCH   1  15
TORSDOF 10
ENDMDL
MODEL 5
REMARK VINA RESULT:      -7.4      0.649      1.272
REMARK  Name = 
REMARK  10 active torsions:
REMARK  status: ('A' for Active; 'I' for Inactive)
REMARK    1  A    between atoms: N_1  and  CA_2
REMARK    2  A    between atoms: CA_2  and  C_3
REMARK    3  A    between atoms: CA_2  and  C_19
REMARK    4  A    between atoms: C_3  and  C_4
REMARK    5  A    between atoms: C_4  and  C_5
REMARK    6  A    between atoms: C_4  and  C_16
REMARK    7  A    between atoms: C_5  and  C_6
REMARK    8  A    between atoms: C_9  and  C_10
REMARK    9  A    between atoms: C_16  and  O_18
REMARK   10  A    between atoms: C_19  and  OXT_21
REMARK                            x       y       z     vdW  Elec       q    Type
REMARK                         _______ _______ _______ _____ _____    ______ ____
ROOT
ATOM      1  C   UNL     1       6.048   3.938  15.763  0.00  0.00    +0.000 C 
ENDROOT
BRANCH   1   2
ATOM      2  C   UNL     1       6.554   4.247  14.356  0.00  0.00    +0.000 C 
ATOM      3  O   UNL     1       7.171   5.258  14.053  0.00  0.00    +0.000 OA
BRANCH   2   4
ATOM      4  O   UNL     1       6.288   3.290  13.444  0.00  0.00    +0.000 OA
ATOM      5  H   UNL     1       5.902   2.469  13.810  0.00  0.00    +0.000 HD
ENDBRANCH   2   4
ENDBRANCH   1   2
BRANCH   1   6
ATOM      6  C   UNL     1       7.132   4.465  16.752  0.00  0.00    +0.000 C 
BRANCH   6   7
ATOM      7  CA  UNL     1       6.985   5.824  17.453  0.00  0.00    +0.000 C 
BRANCH   7   8
ATOM      8  N   UNL     1       7.641   6.956  16.748  0.00  0.00    +0.000 NA
ATOM      9  H1  UNL     1       8.222   6.568  15.998  0.00  0.00    +0.000 HD
ATOM     10  H2  UNL     1       8.291   7.429  17.376  0.00  0.00    +0.000 HD
ENDBRANCH   7   8
BRANCH   7  11
ATOM     11  C   UNL     1       7.388   5.847  18.939  0.00  0.00    +0.000 C 
ATOM     12  O   UNL     1       8.385   6.375  19.399  0.00  0.00    +0.000 OA
BRANCH  11  13
ATOM     13  OXT UNL     1       6.481   5.167  19.692  0.00  0.00    +0.000 OA
ATOM     14  HXT UNL     1       5.590   5.515  19.439  0.00  0.00    +0.000 HD
ENDBRANCH  11  13
ENDBRANCH   7  11
ENDBRANCH   6   7
ENDBRANCH   1   6
BRANCH   1  15
ATOM     15  C   UNL     1       4.677   4.596  15.961  0.00  0.00    +0.000 C 
BRANCH  15  16
ATOM     16  C   UNL     1       3.846   4.159  17.153  0.00  0.00    +0.000 A 
ATOM     17  C   UNL     1       4.043   2.916  17.769  0.00  0.00    +0.000 A 
ATOM     18  C   UNL     1       3.456   2.639  19.010  0.00  0.00    +0.000 A 
ATOM     19  C   UNL     1       2.680   3.606  19.667  0.00  0.00    +0.000 A 
ATOM     20  C   UNL     1       2.406   4.810  19.005  0.00  0.00    +0.000 A 
ATOM     21  C   UNL     1       2.982   5.081  17.761  0.00  0.00    +0.000 A 
BRANCH  19  22
ATOM     22  C   UNL     1       2.225   3.411  21.095  0.00  0.00    +0.000 C 
ATOM     23  F   UNL     1       2.407   4.513  21.877  0.00  0.00    +0.000 F 
ATOM     24  F   UNL     1       0.897   3.119  21.173  0.00  0.00    +0.000 F 
ATOM     25  F   UNL     1       2.870   2.392  21.726  0.00  0.00    +0.000 F 
ENDBRANCH  19  22
ENDBRANCH  15  16
ENDBRANCH   1  15
TORSDOF 10
ENDMDL
MODEL 6
REMARK VINA RESULT:      -7.4      0.683      1.007
REMARK  Name = 
REMARK  10 active torsions:
REMARK  status: ('A' for Active; 'I' for Inactive)
REMARK    1  A    between atoms: N_1  and  CA_2
REMARK    2  A    between atoms: CA_2  and  C_3
REMARK    3  A    between atoms: CA_2  and  C_19
REMARK    4  A    between atoms: C_3  and  C_4
REMARK    5  A    between atoms: C_4  and  C_5
REMARK    6  A    between atoms: C_4  and  C_16
REMARK    7  A    between atoms: C_5  and  C_6
REMARK    8  A    between atoms: C_9  and  C_10
REMARK    9  A    between atoms: C_16  and  O_18
REMARK   10  A    between atoms: C_19  and  OXT_21
REMARK                            x       y       z     vdW  Elec       q    Type
REMARK                         _______ _______ _______ _____ _____    ______ ____
ROOT
ATOM      1  C   UNL     1       6.177   4.104  15.854  0.00  0.00    +0.000 C 
ENDROOT
BRANCH   1   2
ATOM      2  C   UNL     1       6.708   4.361  14.445  0.00  0.00    +0.000 C 
ATOM      3  O   UNL     1       6.347   3.747  13.451  0.00  0.00    +0.000 OA
BRANCH   2   4
ATOM      4  O   UNL     1       7.611   5.358  14.362  0.00  0.00    +0.000 OA
ATOM      5  H   UNL     1       7.794   5.818  15.205  0.00  0.00    +0.000 HD
ENDBRANCH   2   4
ENDBRANCH   1   2
BRANCH   1   6
ATOM      6  C   UNL     1       7.274   4.608  16.841  0.00  0.00    +0.000 C 
BRANCH   6   7
ATOM      7  CA  UNL     1       7.013   5.780  17.799  0.00  0.00    +0.000 C 
BRANCH   7   8
ATOM      8  N   UNL     1       7.882   6.965  17.576  0.00  0.00    +0.000 NA
ATOM      9  H1  UNL     1       8.113   7.005  16.578  0.00  0.00    +0.000 HD
ATOM     10  H2  UNL     1       8.775   6.837  18.054  0.00  0.00    +0.000 HD
ENDBRANCH   7   8
BRANCH   7  11
ATOM     11  C   UNL     1       7.013   5.422  19.296  0.00  0.00    +0.000 C 
ATOM     12  O   UNL     1       6.050   5.040  19.938  0.00  0.00    +0.000 OA
BRANCH  11  13
ATOM     13  OXT UNL     1       8.248   5.611  19.835  0.00  0.00    +0.000 OA
ATOM     14  HXT UNL     1       8.253   6.528  20.209  0.00  0.00    +0.000 HD
ENDBRANCH  11  13
ENDBRANCH   7  11
ENDBRANCH   6   7
ENDBRANCH   1   6
BRANCH   1  15
ATOM     15  C   UNL     1       4.833   4.822  16.024  0.00  0.00    +0.000 C 
BRANCH  15  16
ATOM     16  C   UNL     1       3.939   4.389  17.170  0.00  0.00    +0.000 A 
ATOM     17  C   UNL     1       3.980   3.084  17.682  0.00  0.00    +0.000 A 
ATOM     18  C   UNL     1       3.345   2.778  18.891  0.00  0.00    +0.000 A 
ATOM     19  C   UNL     1       2.676   3.771  19.622  0.00  0.00    +0.000 A 
ATOM     20  C   UNL     1       2.555   5.049  19.061  0.00  0.00    +0.000 A 
ATOM     21  C   UNL     1       3.177   5.352  17.847  0.00  0.00    +0.000 A 
BRANCH  19  22
ATOM     22  C   UNL     1       2.179   3.514  21.026  0.00  0.00    +0.000 C 
ATOM     23  F   UNL     1       2.790   2.458  21.632  0.00  0.00    +0.000 F 
ATOM     24  F   UNL     1       2.390   4.582  21.846  0.00  0.00    +0.000 F 
ATOM     25  F   UNL     1       0.843   3.259  21.081  0.00  0.00    +0.000 F 
ENDBRANCH  19  22
ENDBRANCH  15  16
ENDBRANCH   1  15
TORSDOF 10
ENDMDL
MODEL 7
REMARK VINA RESULT:      -7.4      0.961      1.682
REMARK  Name = 
REMARK  10 active torsions:
REMARK  status: ('A' for Active; 'I' for Inactive)
REMARK    1  A    between atoms: N_1  and  CA_2
REMARK    2  A    between atoms: CA_2  and  C_3
REMARK    3  A    between atoms: CA_2  and  C_19
REMARK    4  A    between atoms: C_3  and  C_4
REMARK    5  A    between atoms: C_4  and  C_5
REMARK    6  A    between atoms: C_4  and  C_16
REMARK    7  A    between atoms: C_5  and  C_6
REMARK    8  A    between atoms: C_9  and  C_10
REMARK    9  A    between atoms: C_16  and  O_18
REMARK   10  A    between atoms: C_19  and  OXT_21
REMARK                            x       y       z     vdW  Elec       q    Type
REMARK                         _______ _______ _______ _____ _____    ______ ____
ROOT
ATOM      1  C   UNL     1       6.472   4.876  16.062  0.00  0.00    +0.000 C 
ENDROOT
BRANCH   1   2
ATOM      2  C   UNL     1       6.873   4.665  14.604  0.00  0.00    +0.000 C 
ATOM      3  O   UNL     1       6.366   3.834  13.864  0.00  0.00    +0.000 OA
BRANCH   2   4
ATOM      4  O   UNL     1       7.837   5.498  14.163  0.00  0.00    +0.000 OA
ATOM      5  H   UNL     1       8.719   5.350  14.558  0.00  0.00    +0.000 HD
ENDBRANCH   2   4
ENDBRANCH   1   2
BRANCH   1   6
ATOM      6  C   UNL     1       7.475   5.912  16.654  0.00  0.00    +0.000 C 
BRANCH   6   7
ATOM      7  CA  UNL     1       7.234   6.571  18.021  0.00  0.00    +0.000 C 
BRANCH   7   8
ATOM      8  N   UNL     1       8.117   7.731  18.310  0.00  0.00    +0.000 NA
ATOM      9  H1  UNL     1       7.583   8.588  18.136  0.00  0.00    +0.000 HD
ATOM     10  H2  UNL     1       8.891   7.756  17.645  0.00  0.00    +0.000 HD
ENDBRANCH   7   8
BRANCH   7  11
ATOM     11  C   UNL     1       7.238   5.613  19.225  0.00  0.00    +0.000 C 
ATOM     12  O   UNL     1       6.264   5.049  19.691  0.00  0.00    +0.000 OA
BRANCH  11  13
ATOM     13  OXT UNL     1       8.494   5.488  19.735  0.00  0.00    +0.000 OA
ATOM     14  HXT UNL     1       8.408   5.581  20.716  0.00  0.00    +0.000 HD
ENDBRANCH  11  13
ENDBRANCH   7  11
ENDBRANCH   6   7
ENDBRANCH   1   6
BRANCH   1  15
ATOM     15  C   UNL     1       5.013   5.344  16.120  0.00  0.00    +0.000 C 
BRANCH  15  16
ATOM     16  C   UNL     1       4.137   4.799  17.232  0.00  0.00    +0.000 A 
ATOM     17  C   UNL     1       3.253   5.623  17.943  0.00  0.00    +0.000 A 
ATOM     18  C   UNL     1       2.279   5.063  18.777  0.00  0.00    +0.000 A 
ATOM     19  C   UNL     1       2.155   3.671  18.901  0.00  0.00    +0.000 A 
ATOM     20  C   UNL     1       3.100   2.854  18.267  0.00  0.00    +0.000 A 
ATOM     21  C   UNL     1       4.081   3.414  17.444  0.00  0.00    +0.000 A 
BRANCH  19  22
ATOM     22  C   UNL     1       0.979   3.046  19.616  0.00  0.00    +0.000 C 
ATOM     23  F   UNL     1       0.158   2.337  18.791  0.00  0.00    +0.000 F 
ATOM     24  F   UNL     1       1.373   2.172  20.583  0.00  0.00    +0.000 F 
ATOM     25  F   UNL     1       0.186   3.961  20.239  0.00  0.00    +0.000 F 
ENDBRANCH  19  22
ENDBRANCH  15  16
ENDBRANCH   1  15
TORSDOF 10
ENDMDL
MODEL 8
REMARK VINA RESULT:      -7.3      1.164      1.636
REMARK  Name = 
REMARK  10 active torsions:
REMARK  status: ('A' for Active; 'I' for Inactive)
REMARK    1  A    between atoms: N_1  and  CA_2
REMARK    2  A    between atoms: CA_2  and  C_3
REMARK    3  A    between atoms: CA_2  and  C_19
REMARK    4  A    between atoms: C_3  and  C_4
REMARK    5  A    between atoms: C_4  and  C_5
REMARK    6  A    between atoms: C_4  and  C_16
REMARK    7  A    between atoms: C_5  and  C_6
REMARK    8  A    between atoms: C_9  and  C_10
REMARK    9  A    between atoms: C_16  and  O_18
REMARK   10  A    between atoms: C_19  and  OXT_21
REMARK                            x       y       z     vdW  Elec       q    Type
REMARK                         _______ _______ _______ _____ _____    ______ ____
ROOT
ATOM      1  C   UNL     1       6.243   4.601  15.797  0.00  0.00    +0.000 C 
ENDROOT
BRANCH   1   2
ATOM      2  C   UNL     1       6.720   4.512  14.350  0.00  0.00    +0.000 C 
ATOM      3  O   UNL     1       7.431   5.347  13.807  0.00  0.00    +0.000 OA
BRANCH   2   4
ATOM      4  O   UNL     1       6.315   3.406  13.694  0.00  0.00    +0.000 OA
ATOM      5  H   UNL     1       5.477   3.506  13.199  0.00  0.00    +0.000 HD
ENDBRANCH   2   4
ENDBRANCH   1   2
BRANCH   1   6
ATOM      6  C   UNL     1       7.482   5.010  16.651  0.00  0.00    +0.000 C 
BRANCH   6   7
ATOM      7  CA  UNL     1       7.562   4.695  18.152  0.00  0.00    +0.000 C 
BRANCH   7   8
ATOM      8  N   UNL     1       6.376   3.983  18.696  0.00  0.00    +0.000 NA
ATOM      9  H1  UNL     1       6.709   3.256  19.337  0.00  0.00    +0.000 HD
ATOM     10  H2  UNL     1       5.895   3.483  17.948  0.00  0.00    +0.000 HD
ENDBRANCH   7   8
BRANCH   7  11
ATOM     11  C   UNL     1       7.901   5.890  19.060  0.00  0.00    +0.000 C 
ATOM     12  O   UNL     1       8.158   7.020  18.685  0.00  0.00    +0.000 OA
BRANCH  11  13
ATOM     13  OXT UNL     1       7.901   5.514  20.368  0.00  0.00    +0.000 OA
ATOM     14  HXT UNL     1       6.978   5.223  20.576  0.00  0.00    +0.000 HD
ENDBRANCH  11  13
ENDBRANCH   7  11
ENDBRANCH   6   7
ENDBRANCH   1   6
BRANCH   1  15
ATOM     15  C   UNL     1       5.088   5.606  15.886  0.00  0.00    +0.000 C 
BRANCH  15  16
ATOM     16  C   UNL     1       4.009   5.355  16.922  0.00  0.00    +0.000 A 
ATOM     17  C   UNL     1       3.367   4.114  17.029  0.00  0.00    +0.000 A 
ATOM     18  C   UNL     1       2.570   3.822  18.143  0.00  0.00    +0.000 A 
ATOM     19  C   UNL     1       2.417   4.756  19.179  0.00  0.00    +0.000 A 
ATOM     20  C   UNL     1       2.980   6.029  19.023  0.00  0.00    +0.000 A 
ATOM     21  C   UNL     1       3.765   6.325  17.906  0.00  0.00    +0.000 A 
BRANCH  19  22
ATOM     22  C   UNL     1       1.749   4.382  20.482  0.00  0.00    +0.000 C 
ATOM     23  F   UNL     1       1.925   5.307  21.467  0.00  0.00    +0.000 F 
ATOM     24  F   UNL     1       0.401   4.243  20.344  0.00  0.00    +0.000 F 
ATOM     25  F   UNL     1       2.196   3.201  20.990  0.00  0.00    +0.000 F 
ENDBRANCH  19  22
ENDBRANCH  15  16
ENDBRANCH   1  15
TORSDOF 10
ENDMDL
MODEL 9
REMARK VINA RESULT:      -7.2      1.071      1.517
REMARK  Name = 
REMARK  10 active torsions:
REMARK  status: ('A' for Active; 'I' for Inactive)
REMARK    1  A    between atoms: N_1  and  CA_2
REMARK    2  A    between atoms: CA_2  and  C_3
REMARK    3  A    between atoms: CA_2  and  C_19
REMARK    4  A    between atoms: C_3  and  C_4
REMARK    5  A    between atoms: C_4  and  C_5
REMARK    6  A    between atoms: C_4  and  C_16
REMARK    7  A    between atoms: C_5  and  C_6
REMARK    8  A    between atoms: C_9  and  C_10
REMARK    9  A    between atoms: C_16  and  O_18
REMARK   10  A    between atoms: C_19  and  OXT_21
REMARK                            x       y       z     vdW  Elec       q    Type
REMARK                         _______ _______ _______ _____ _____    ______ ____
ROOT
ATOM      1  C   UNL     1       6.005   4.675  16.086  0.00  0.00    +0.000 C 
ENDROOT
BRANCH   1   2
ATOM      2  C   UNL     1       6.636   4.543  14.702  0.00  0.00    +0.000 C 
ATOM      3  O   UNL     1       6.240   3.777  13.835  0.00  0.00    +0.000 OA
BRANCH   2   4
ATOM      4  O   UNL     1       7.676   5.372  14.480  0.00  0.00    +0.000 OA
ATOM      5  H   UNL     1       7.741   5.715  13.567  0.00  0.00    +0.000 HD
ENDBRANCH   2   4
ENDBRANCH   1   2
BRANCH   1   6
ATOM      6  C   UNL     1       6.191   6.162  16.520  0.00  0.00    +0.000 C 
BRANCH   6   7
ATOM      7  CA  UNL     1       6.878   6.530  17.844  0.00  0.00    +0.000 C 
BRANCH   7   8
ATOM      8  N   UNL     1       7.842   7.657  17.745  0.00  0.00    +0.000 NA
ATOM      9  H1  UNL     1       7.447   8.457  18.248  0.00  0.00    +0.000 HD
ATOM     10  H2  UNL     1       7.925   7.962  16.775  0.00  0.00    +0.000 HD
ENDBRANCH   7   8
BRANCH   7  11
ATOM     11  C   UNL     1       7.537   5.359  18.594  0.00  0.00    +0.000 C 
ATOM     12  O   UNL     1       8.246   4.502  18.096  0.00  0.00    +0.000 OA
BRANCH  11  13
ATOM     13  OXT UNL     1       7.203   5.384  19.912  0.00  0.00    +0.000 OA
ATOM     14  HXT UNL     1       7.085   4.441  20.190  0.00  0.00    +0.000 HD
ENDBRANCH  11  13
ENDBRANCH   7  11
ENDBRANCH   6   7
ENDBRANCH   1   6
BRANCH   1  15
ATOM     15  C   UNL     1       4.535   4.245  16.012  0.00  0.00    +0.000 C 
BRANCH  15  16
ATOM     16  C   UNL     1       3.881   3.739  17.284  0.00  0.00    +0.000 A 
ATOM     17  C   UNL     1       4.639   3.249  18.356  0.00  0.00    +0.000 A 
ATOM     18  C   UNL     1       4.044   3.031  19.604  0.00  0.00    +0.000 A 
ATOM     19  C   UNL     1       2.686   3.317  19.809  0.00  0.00    +0.000 A 
ATOM     20  C   UNL     1       1.910   3.714  18.713  0.00  0.00    +0.000 A 
ATOM     21  C   UNL     1       2.502   3.919  17.464  0.00  0.00    +0.000 A 
BRANCH  19  22
ATOM     22  C   UNL     1       2.080   3.301  21.194  0.00  0.00    +0.000 C 
ATOM     23  F   UNL     1       0.732   3.102  21.194  0.00  0.00    +0.000 F 
ATOM     24  F   UNL     1       2.599   2.305  21.967  0.00  0.00    +0.000 F 
ATOM     25  F   UNL     1       2.291   4.456  21.883  0.00  0.00    +0.000 F 
ENDBRANCH  19  22
ENDBRANCH  15  16
ENDBRANCH   1  15
TORSDOF 10
ENDMDL
