MODEL 1
REMARK VINA RESULT:      -7.8      0.000      0.000
REMARK  Name = 
REMARK  8 active torsions:
REMARK  status: ('A' for Active; 'I' for Inactive)
REMARK    1  A    between atoms: C_1  and  N_2
REMARK    2  A    between atoms: C_3  and  C_5
REMARK    3  A    between atoms: N_14  and  C_15
REMARK    4  A    between atoms: C_18  and  C_19
REMARK    5  A    between atoms: N_21  and  C_22
REMARK    6  A    between atoms: C_22  and  C_23
REMARK    7  A    between atoms: C_26  and  O_27
REMARK    8  A    between atoms: O_27  and  C_28
REMARK                            x       y       z     vdW  Elec       q    Type
REMARK                         _______ _______ _______ _____ _____    ______ ____
ROOT
ATOM      1  C   UNL     1       6.959   4.713  17.808  0.00  0.00    +0.000 C 
ATOM      2  C   UNL     1       6.868   5.193  16.334  0.00  0.00    +0.000 C 
ATOM      3  C   UNL     1       6.269   4.142  15.426  0.00  0.00    +0.000 C 
ATOM      4  C   UNL     1       4.962   4.072  15.719  0.00  0.00    +0.000 C 
ATOM      5  C   UNL     1       4.776   5.036  16.860  0.00  0.00    +0.000 C 
ATOM      6  O   UNL     1       5.704   6.057  16.453  0.00  0.00    +0.000 OA
ATOM      7  C   UNL     1       5.479   4.400  18.077  0.00  0.00    +0.000 C 
ATOM      8  C   UNL     1       4.539   4.680  19.230  0.00  0.00    +0.000 C 
ATOM      9  O   UNL     1       4.797   4.430  20.393  0.00  0.00    +0.000 OA
ATOM     10  N   UNL     1       3.277   4.941  18.644  0.00  0.00    +0.000 N 
ATOM     11  C   UNL     1       3.417   5.513  17.314  0.00  0.00    +0.000 C 
ENDROOT
BRANCH   1  14
ATOM     12  C   UNL     1       8.501   8.060  18.778  0.00  0.00    +0.000 C 
ATOM     13  N   UNL     1       7.902   6.996  18.005  0.00  0.00    +0.000 N 
ATOM     14  C   UNL     1       7.785   5.748  18.553  0.00  0.00    +0.000 C 
ATOM     15  O   UNL     1       8.184   5.523  19.697  0.00  0.00    +0.000 OA
ATOM     16  H   UNL     1       7.541   7.203  17.072  0.00  0.00    +0.000 HD
ENDBRANCH   1  14
BRANCH  11  17
ATOM     17  C   UNL     1       3.373   7.032  17.556  0.00  0.00    +0.000 C 
ATOM     18  O   UNL     1       4.391   7.698  17.762  0.00  0.00    +0.000 OA
ATOM     19  N   UNL     1       2.125   7.609  17.560  0.00  0.00    +0.000 N 
ATOM     20  H   UNL     1       1.288   7.044  17.493  0.00  0.00    +0.000 HD
BRANCH  19  21
ATOM     21  C   UNL     1       1.987   8.994  17.954  0.00  0.00    +0.000 C 
BRANCH  21  22
ATOM     22  C   UNL     1       1.250   9.126  19.255  0.00  0.00    +0.000 A 
ATOM     23  C   UNL     1       0.196  10.034  19.394  0.00  0.00    +0.000 A 
ATOM     24  C   UNL     1      -0.464  10.159  20.618  0.00  0.00    +0.000 A 
ATOM     25  C   UNL     1      -0.092   9.373  21.711  0.00  0.00    +0.000 A 
ATOM     26  C   UNL     1       0.961   8.467  21.579  0.00  0.00    +0.000 A 
ATOM     27  C   UNL     1       1.631   8.350  20.358  0.00  0.00    +0.000 A 
BRANCH  25  28
ATOM     28  O   UNL     1      -0.791   9.615  22.861  0.00  0.00    +0.000 OA
ATOM     29  C   UNL     1      -1.164  10.969  23.086  0.00  0.00    +0.000 C 
ENDBRANCH  25  28
ENDBRANCH  21  22
ENDBRANCH  19  21
ENDBRANCH  11  17
BRANCH  10  30
ATOM     30  C   UNL     1       2.004   4.421  19.047  0.00  0.00    +0.000 C 
ATOM     31  C   UNL     1       1.768   3.341  20.056  0.00  0.00    +0.000 C 
ATOM     32  C   UNL     1       1.465   4.760  20.422  0.00  0.00    +0.000 C 
ENDBRANCH  10  30
TORSDOF 6
ENDMDL
MODEL 2
REMARK VINA RESULT:      -7.7      1.457      2.011
REMARK  Name = 
REMARK  8 active torsions:
REMARK  status: ('A' for Active; 'I' for Inactive)
REMARK    1  A    between atoms: C_1  and  N_2
REMARK    2  A    between atoms: C_3  and  C_5
REMARK    3  A    between atoms: N_14  and  C_15
REMARK    4  A    between atoms: C_18  and  C_19
REMARK    5  A    between atoms: N_21  and  C_22
REMARK    6  A    between atoms: C_22  and  C_23
REMARK    7  A    between atoms: C_26  and  O_27
REMARK    8  A    between atoms: O_27  and  C_28
REMARK                            x       y       z     vdW  Elec       q    Type
REMARK                         _______ _______ _______ _____ _____    ______ ____
ROOT
ATOM      1  C   UNL     1       7.053   5.819  16.973  0.00  0.00    +0.000 C 
ATOM      2  C   UNL     1       6.430   5.654  15.561  0.00  0.00    +0.000 C 
ATOM      3  C   UNL     1       6.597   4.250  15.021  0.00  0.00    +0.000 C 
ATOM      4  C   UNL     1       5.770   3.462  15.724  0.00  0.00    +0.000 C 
ATOM      5  C   UNL     1       5.146   4.377  16.744  0.00  0.00    +0.000 C 
ATOM      6  O   UNL     1       5.030   5.567  15.944  0.00  0.00    +0.000 OA
ATOM      7  C   UNL     1       6.269   4.740  17.736  0.00  0.00    +0.000 C 
ATOM      8  C   UNL     1       5.590   4.695  19.088  0.00  0.00    +0.000 C 
ATOM      9  O   UNL     1       6.125   5.034  20.129  0.00  0.00    +0.000 OA
ATOM     10  N   UNL     1       4.431   3.903  18.912  0.00  0.00    +0.000 N 
ATOM     11  C   UNL     1       3.929   3.994  17.550  0.00  0.00    +0.000 C 
ENDROOT
BRANCH   1  14
ATOM     12  C   UNL     1       8.239   9.295  17.989  0.00  0.00    +0.000 C 
ATOM     13  N   UNL     1       8.142   7.858  17.865  0.00  0.00    +0.000 N 
ATOM     14  C   UNL     1       7.032   7.305  17.287  0.00  0.00    +0.000 C 
ATOM     15  O   UNL     1       6.117   8.019  16.872  0.00  0.00    +0.000 OA
ATOM     16  H   UNL     1       8.922   7.279  18.180  0.00  0.00    +0.000 HD
ENDBRANCH   1  14
BRANCH  11  17
ATOM     17  C   UNL     1       2.882   5.120  17.614  0.00  0.00    +0.000 C 
ATOM     18  O   UNL     1       1.673   4.905  17.504  0.00  0.00    +0.000 OA
ATOM     19  N   UNL     1       3.373   6.396  17.772  0.00  0.00    +0.000 N 
ATOM     20  H   UNL     1       4.369   6.577  17.759  0.00  0.00    +0.000 HD
BRANCH  19  21
ATOM     21  C   UNL     1       2.470   7.520  17.664  0.00  0.00    +0.000 C 
BRANCH  21  22
ATOM     22  C   UNL     1       2.027   8.003  19.015  0.00  0.00    +0.000 A 
ATOM     23  C   UNL     1       2.134   7.183  20.142  0.00  0.00    +0.000 A 
ATOM     24  C   UNL     1       1.697   7.643  21.385  0.00  0.00    +0.000 A 
ATOM     25  C   UNL     1       1.162   8.926  21.523  0.00  0.00    +0.000 A 
ATOM     26  C   UNL     1       1.051   9.748  20.401  0.00  0.00    +0.000 A 
ATOM     27  C   UNL     1       1.476   9.285  19.153  0.00  0.00    +0.000 A 
BRANCH  25  28
ATOM     28  O   UNL     1       0.738   9.243  22.784  0.00  0.00    +0.000 OA
ATOM     29  C   UNL     1      -0.631   9.606  22.905  0.00  0.00    +0.000 C 
ENDBRANCH  25  28
ENDBRANCH  21  22
ENDBRANCH  19  21
ENDBRANCH  11  17
BRANCH  10  30
ATOM     30  C   UNL     1       3.957   2.849  19.759  0.00  0.00    +0.000 C 
ATOM     31  C   UNL     1       2.789   2.923  20.694  0.00  0.00    +0.000 C 
ATOM     32  C   UNL     1       2.656   2.151  19.418  0.00  0.00    +0.000 C 
ENDBRANCH  10  30
TORSDOF 6
ENDMDL
MODEL 3
REMARK VINA RESULT:      -7.6      1.411      1.706
REMARK  Name = 
REMARK  8 active torsions:
REMARK  status: ('A' for Active; 'I' for Inactive)
REMARK    1  A    between atoms: C_1  and  N_2
REMARK    2  A    between atoms: C_3  and  C_5
REMARK    3  A    between atoms: N_14  and  C_15
REMARK    4  A    between atoms: C_18  and  C_19
REMARK    5  A    between atoms: N_21  and  C_22
REMARK    6  A    between atoms: C_22  and  C_23
REMARK    7  A    between atoms: C_26  and  O_27
REMARK    8  A    between atoms: O_27  and  C_28
REMARK                            x       y       z     vdW  Elec       q    Type
REMARK                         _______ _______ _______ _____ _____    ______ ____
ROOT
ATOM      1  C   UNL     1       7.194   5.780  17.083  0.00  0.00    +0.000 C 
ATOM      2  C   UNL     1       6.580   5.704  15.659  0.00  0.00    +0.000 C 
ATOM      3  C   UNL     1       6.586   4.296  15.107  0.00  0.00    +0.000 C 
ATOM      4  C   UNL     1       5.658   3.606  15.787  0.00  0.00    +0.000 C 
ATOM      5  C   UNL     1       5.131   4.581  16.806  0.00  0.00    +0.000 C 
ATOM      6  O   UNL     1       5.173   5.784  16.018  0.00  0.00    +0.000 OA
ATOM      7  C   UNL     1       6.272   4.797  17.821  0.00  0.00    +0.000 C 
ATOM      8  C   UNL     1       5.569   4.821  19.161  0.00  0.00    +0.000 C 
ATOM      9  O   UNL     1       6.122   5.085  20.214  0.00  0.00    +0.000 OA
ATOM     10  N   UNL     1       4.326   4.176  18.957  0.00  0.00    +0.000 N 
ATOM     11  C   UNL     1       3.862   4.339  17.588  0.00  0.00    +0.000 C 
ENDROOT
BRANCH   1  14
ATOM     12  C   UNL     1       8.600   9.013  18.530  0.00  0.00    +0.000 C 
ATOM     13  N   UNL     1       8.284   7.615  18.341  0.00  0.00    +0.000 N 
ATOM     14  C   UNL     1       7.346   7.255  17.414  0.00  0.00    +0.000 C 
ATOM     15  O   UNL     1       6.768   8.110  16.739  0.00  0.00    +0.000 OA
ATOM     16  H   UNL     1       8.795   6.913  18.881  0.00  0.00    +0.000 HD
ENDBRANCH   1  14
BRANCH  11  17
ATOM     17  C   UNL     1       2.958   5.583  17.647  0.00  0.00    +0.000 C 
ATOM     18  O   UNL     1       1.753   5.536  17.390  0.00  0.00    +0.000 OA
ATOM     19  N   UNL     1       3.576   6.767  17.977  0.00  0.00    +0.000 N 
ATOM     20  H   UNL     1       4.581   6.818  18.086  0.00  0.00    +0.000 HD
BRANCH  19  21
ATOM     21  C   UNL     1       2.832   8.004  17.881  0.00  0.00    +0.000 C 
BRANCH  21  22
ATOM     22  C   UNL     1       1.988   8.235  19.100  0.00  0.00    +0.000 A 
ATOM     23  C   UNL     1       1.131   9.337  19.181  0.00  0.00    +0.000 A 
ATOM     24  C   UNL     1       0.369   9.548  20.332  0.00  0.00    +0.000 A 
ATOM     25  C   UNL     1       0.442   8.659  21.407  0.00  0.00    +0.000 A 
ATOM     26  C   UNL     1       1.297   7.560  21.333  0.00  0.00    +0.000 A 
ATOM     27  C   UNL     1       2.070   7.353  20.187  0.00  0.00    +0.000 A 
BRANCH  25  28
ATOM     28  O   UNL     1      -0.325   8.996  22.488  0.00  0.00    +0.000 OA
ATOM     29  C   UNL     1      -0.481  10.390  22.727  0.00  0.00    +0.000 C 
ENDBRANCH  25  28
ENDBRANCH  21  22
ENDBRANCH  19  21
ENDBRANCH  11  17
BRANCH  10  30
ATOM     30  C   UNL     1       3.714   3.180  19.785  0.00  0.00    +0.000 C 
ATOM     31  C   UNL     1       2.777   2.105  19.329  0.00  0.00    +0.000 C 
ATOM     32  C   UNL     1       4.185   1.742  19.688  0.00  0.00    +0.000 C 
ENDBRANCH  10  30
TORSDOF 6
ENDMDL
MODEL 4
REMARK VINA RESULT:      -7.4      1.191      1.319
REMARK  Name = 
REMARK  8 active torsions:
REMARK  status: ('A' for Active; 'I' for Inactive)
REMARK    1  A    between atoms: C_1  and  N_2
REMARK    2  A    between atoms: C_3  and  C_5
REMARK    3  A    between atoms: N_14  and  C_15
REMARK    4  A    between atoms: C_18  and  C_19
REMARK    5  A    between atoms: N_21  and  C_22
REMARK    6  A    between atoms: C_22  and  C_23
REMARK    7  A    between atoms: C_26  and  O_27
REMARK    8  A    between atoms: O_27  and  C_28
REMARK                            x       y       z     vdW  Elec       q    Type
REMARK                         _______ _______ _______ _____ _____    ______ ____
ROOT
ATOM      1  C   UNL     1       6.896   4.862  17.380  0.00  0.00    +0.000 C 
ATOM      2  C   UNL     1       6.420   5.035  15.913  0.00  0.00    +0.000 C 
ATOM      3  C   UNL     1       6.156   3.708  15.236  0.00  0.00    +0.000 C 
ATOM      4  C   UNL     1       5.034   3.211  15.778  0.00  0.00    +0.000 C 
ATOM      5  C   UNL     1       4.649   4.208  16.839  0.00  0.00    +0.000 C 
ATOM      6  O   UNL     1       5.041   5.419  16.169  0.00  0.00    +0.000 OA
ATOM      7  C   UNL     1       5.706   4.075  17.953  0.00  0.00    +0.000 C 
ATOM      8  C   UNL     1       4.903   4.171  19.232  0.00  0.00    +0.000 C 
ATOM      9  O   UNL     1       5.398   4.220  20.344  0.00  0.00    +0.000 OA
ATOM     10  N   UNL     1       3.571   3.854  18.876  0.00  0.00    +0.000 N 
ATOM     11  C   UNL     1       3.290   4.219  17.495  0.00  0.00    +0.000 C 
ENDROOT
BRANCH   1  14
ATOM     12  C   UNL     1       7.393   8.638  17.511  0.00  0.00    +0.000 C 
ATOM     13  N   UNL     1       7.166   7.299  17.018  0.00  0.00    +0.000 N 
ATOM     14  C   UNL     1       7.350   6.232  17.855  0.00  0.00    +0.000 C 
ATOM     15  O   UNL     1       7.706   6.403  19.022  0.00  0.00    +0.000 OA
ATOM     16  H   UNL     1       6.837   7.172  16.059  0.00  0.00    +0.000 HD
ENDBRANCH   1  14
BRANCH  11  17
ATOM     17  C   UNL     1       2.694   5.633  17.599  0.00  0.00    +0.000 C 
ATOM     18  O   UNL     1       1.503   5.867  17.379  0.00  0.00    +0.000 OA
ATOM     19  N   UNL     1       3.574   6.640  17.924  0.00  0.00    +0.000 N 
ATOM     20  H   UNL     1       4.566   6.460  18.003  0.00  0.00    +0.000 HD
BRANCH  19  21
ATOM     21  C   UNL     1       3.128   8.015  17.867  0.00  0.00    +0.000 C 
BRANCH  21  22
ATOM     22  C   UNL     1       2.156   8.326  18.968  0.00  0.00    +0.000 A 
ATOM     23  C   UNL     1       1.239   9.374  18.842  0.00  0.00    +0.000 A 
ATOM     24  C   UNL     1       0.358   9.662  19.885  0.00  0.00    +0.000 A 
ATOM     25  C   UNL     1       0.371   8.903  21.058  0.00  0.00    +0.000 A 
ATOM     26  C   UNL     1       1.285   7.858  21.190  0.00  0.00    +0.000 A 
ATOM     27  C   UNL     1       2.176   7.576  20.152  0.00  0.00    +0.000 A 
BRANCH  25  28
ATOM     28  O   UNL     1      -0.516   9.309  22.017  0.00  0.00    +0.000 OA
ATOM     29  C   UNL     1       0.015   9.459  23.329  0.00  0.00    +0.000 C 
ENDBRANCH  25  28
ENDBRANCH  21  22
ENDBRANCH  19  21
ENDBRANCH  11  17
BRANCH  10  30
ATOM     30  C   UNL     1       2.670   2.975  19.559  0.00  0.00    +0.000 C 
ATOM     31  C   UNL     1       2.587   2.769  21.040  0.00  0.00    +0.000 C 
ATOM     32  C   UNL     1       1.518   3.561  20.352  0.00  0.00    +0.000 C 
ENDBRANCH  10  30
TORSDOF 6
ENDMDL
MODEL 5
REMARK VINA RESULT:      -7.4      1.560      1.928
REMARK  Name = 
REMARK  8 active torsions:
REMARK  status: ('A' for Active; 'I' for Inactive)
REMARK    1  A    between atoms: C_1  and  N_2
REMARK    2  A    between atoms: C_3  and  C_5
REMARK    3  A    between atoms: N_14  and  C_15
REMARK    4  A    between atoms: C_18  and  C_19
REMARK    5  A    between atoms: N_21  and  C_22
REMARK    6  A    between atoms: C_22  and  C_23
REMARK    7  A    between atoms: C_26  and  O_27
REMARK    8  A    between atoms: O_27  and  C_28
REMARK                            x       y       z     vdW  Elec       q    Type
REMARK                         _______ _______ _______ _____ _____    ______ ____
ROOT
ATOM      1  C   UNL     1       6.522   4.486  17.235  0.00  0.00    +0.000 C 
ATOM      2  C   UNL     1       6.135   5.397  16.039  0.00  0.00    +0.000 C 
ATOM      3  C   UNL     1       5.338   4.655  14.989  0.00  0.00    +0.000 C 
ATOM      4  C   UNL     1       4.120   4.436  15.507  0.00  0.00    +0.000 C 
ATOM      5  C   UNL     1       4.196   4.987  16.906  0.00  0.00    +0.000 C 
ATOM      6  O   UNL     1       5.040   6.126  16.659  0.00  0.00    +0.000 OA
ATOM      7  C   UNL     1       5.124   4.037  17.689  0.00  0.00    +0.000 C 
ATOM      8  C   UNL     1       4.452   3.900  19.038  0.00  0.00    +0.000 C 
ATOM      9  O   UNL     1       4.942   3.311  19.986  0.00  0.00    +0.000 OA
ATOM     10  N   UNL     1       3.102   4.271  18.836  0.00  0.00    +0.000 N 
ATOM     11  C   UNL     1       2.973   5.235  17.754  0.00  0.00    +0.000 C 
ENDROOT
BRANCH   1  14
ATOM     12  C   UNL     1       8.355   7.434  18.807  0.00  0.00    +0.000 C 
ATOM     13  N   UNL     1       7.588   6.626  17.886  0.00  0.00    +0.000 N 
ATOM     14  C   UNL     1       7.506   5.275  18.082  0.00  0.00    +0.000 C 
ATOM     15  O   UNL     1       8.080   4.741  19.034  0.00  0.00    +0.000 OA
ATOM     16  H   UNL     1       7.088   7.084  17.123  0.00  0.00    +0.000 HD
ENDBRANCH   1  14
BRANCH  11  17
ATOM     17  C   UNL     1       3.012   6.599  18.465  0.00  0.00    +0.000 C 
ATOM     18  O   UNL     1       3.299   6.714  19.660  0.00  0.00    +0.000 OA
ATOM     19  N   UNL     1       2.678   7.692  17.700  0.00  0.00    +0.000 N 
ATOM     20  H   UNL     1       2.346   7.582  16.750  0.00  0.00    +0.000 HD
BRANCH  19  21
ATOM     21  C   UNL     1       2.520   8.981  18.337  0.00  0.00    +0.000 C 
BRANCH  21  22
ATOM     22  C   UNL     1       1.078   9.390  18.404  0.00  0.00    +0.000 A 
ATOM     23  C   UNL     1       0.244   9.271  17.288  0.00  0.00    +0.000 A 
ATOM     24  C   UNL     1      -1.089   9.676  17.364  0.00  0.00    +0.000 A 
ATOM     25  C   UNL     1      -1.610  10.192  18.553  0.00  0.00    +0.000 A 
ATOM     26  C   UNL     1      -0.783  10.315  19.669  0.00  0.00    +0.000 A 
ATOM     27  C   UNL     1       0.555   9.921  19.592  0.00  0.00    +0.000 A 
BRANCH  25  28
ATOM     28  O   UNL     1      -2.918  10.586  18.487  0.00  0.00    +0.000 OA
ATOM     29  C   UNL     1      -3.178  11.937  18.850  0.00  0.00    +0.000 C 
ENDBRANCH  25  28
ENDBRANCH  21  22
ENDBRANCH  19  21
ENDBRANCH  11  17
BRANCH  10  30
ATOM     30  C   UNL     1       1.931   3.593  19.307  0.00  0.00    +0.000 C 
ATOM     31  C   UNL     1       1.859   2.651  20.468  0.00  0.00    +0.000 C 
ATOM     32  C   UNL     1       1.293   4.030  20.611  0.00  0.00    +0.000 C 
ENDBRANCH  10  30
TORSDOF 6
ENDMDL
MODEL 6
REMARK VINA RESULT:      -7.2      1.499      2.055
REMARK  Name = 
REMARK  8 active torsions:
REMARK  status: ('A' for Active; 'I' for Inactive)
REMARK    1  A    between atoms: C_1  and  N_2
REMARK    2  A    between atoms: C_3  and  C_5
REMARK    3  A    between atoms: N_14  and  C_15
REMARK    4  A    between atoms: C_18  and  C_19
REMARK    5  A    between atoms: N_21  and  C_22
REMARK    6  A    between atoms: C_22  and  C_23
REMARK    7  A    between atoms: C_26  and  O_27
REMARK    8  A    between atoms: O_27  and  C_28
REMARK                            x       y       z     vdW  Elec       q    Type
REMARK                         _______ _______ _______ _____ _____    ______ ____
ROOT
ATOM      1  C   UNL     1       6.802   4.705  17.302  0.00  0.00    +0.000 C 
ATOM      2  C   UNL     1       6.373   5.530  16.059  0.00  0.00    +0.000 C 
ATOM      3  C   UNL     1       5.668   4.681  15.023  0.00  0.00    +0.000 C 
ATOM      4  C   UNL     1       4.459   4.384  15.522  0.00  0.00    +0.000 C 
ATOM      5  C   UNL     1       4.452   4.996  16.897  0.00  0.00    +0.000 C 
ATOM      6  O   UNL     1       5.206   6.190  16.621  0.00  0.00    +0.000 OA
ATOM      7  C   UNL     1       5.434   4.159  17.742  0.00  0.00    +0.000 C 
ATOM      8  C   UNL     1       4.740   4.023  19.080  0.00  0.00    +0.000 C 
ATOM      9  O   UNL     1       5.251   3.516  20.063  0.00  0.00    +0.000 OA
ATOM     10  N   UNL     1       3.369   4.272  18.831  0.00  0.00    +0.000 N 
ATOM     11  C   UNL     1       3.190   5.176  17.705  0.00  0.00    +0.000 C 
ENDROOT
BRANCH   1  14
ATOM     12  C   UNL     1       8.446   7.853  18.683  0.00  0.00    +0.000 C 
ATOM     13  N   UNL     1       7.775   6.929  17.796  0.00  0.00    +0.000 N 
ATOM     14  C   UNL     1       7.695   5.606  18.136  0.00  0.00    +0.000 C 
ATOM     15  O   UNL     1       8.188   5.196  19.189  0.00  0.00    +0.000 OA
ATOM     16  H   UNL     1       7.339   7.286  16.944  0.00  0.00    +0.000 HD
ENDBRANCH   1  14
BRANCH  11  17
ATOM     17  C   UNL     1       3.098   6.567  18.358  0.00  0.00    +0.000 C 
ATOM     18  O   UNL     1       3.874   7.483  18.074  0.00  0.00    +0.000 OA
ATOM     19  N   UNL     1       2.114   6.728  19.306  0.00  0.00    +0.000 N 
ATOM     20  H   UNL     1       1.548   5.946  19.608  0.00  0.00    +0.000 HD
BRANCH  19  21
ATOM     21  C   UNL     1       2.078   7.945  20.087  0.00  0.00    +0.000 C 
BRANCH  21  22
ATOM     22  C   UNL     1       1.022   8.889  19.589  0.00  0.00    +0.000 A 
ATOM     23  C   UNL     1       0.874   9.146  18.223  0.00  0.00    +0.000 A 
ATOM     24  C   UNL     1      -0.099  10.043  17.781  0.00  0.00    +0.000 A 
ATOM     25  C   UNL     1      -0.943  10.683  18.691  0.00  0.00    +0.000 A 
ATOM     26  C   UNL     1      -0.799  10.433  20.056  0.00  0.00    +0.000 A 
ATOM     27  C   UNL     1       0.183   9.544  20.501  0.00  0.00    +0.000 A 
BRANCH  25  28
ATOM     28  O   UNL     1      -1.829  11.565  18.135  0.00  0.00    +0.000 OA
ATOM     29  C   UNL     1      -3.008  10.993  17.581  0.00  0.00    +0.000 C 
ENDBRANCH  25  28
ENDBRANCH  21  22
ENDBRANCH  19  21
ENDBRANCH  11  17
BRANCH  10  30
ATOM     30  C   UNL     1       2.245   3.519  19.303  0.00  0.00    +0.000 C 
ATOM     31  C   UNL     1       1.014   3.183  18.521  0.00  0.00    +0.000 C 
ATOM     32  C   UNL     1       2.025   2.111  18.786  0.00  0.00    +0.000 C 
ENDBRANCH  10  30
TORSDOF 6
ENDMDL
MODEL 7
REMARK VINA RESULT:      -7.1      1.707      2.062
REMARK  Name = 
REMARK  8 active torsions:
REMARK  status: ('A' for Active; 'I' for Inactive)
REMARK    1  A    between atoms: C_1  and  N_2
REMARK    2  A    between atoms: C_3  and  C_5
REMARK    3  A    between atoms: N_14  and  C_15
REMARK    4  A    between atoms: C_18  and  C_19
REMARK    5  A    between atoms: N_21  and  C_22
REMARK    6  A    between atoms: C_22  and  C_23
REMARK    7  A    between atoms: C_26  and  O_27
REMARK    8  A    between atoms: O_27  and  C_28
REMARK                            x       y       z     vdW  Elec       q    Type
REMARK                         _______ _______ _______ _____ _____    ______ ____
ROOT
ATOM      1  C   UNL     1       6.693   4.156  16.979  0.00  0.00    +0.000 C 
ATOM      2  C   UNL     1       6.466   5.388  16.062  0.00  0.00    +0.000 C 
ATOM      3  C   UNL     1       5.692   5.036  14.811  0.00  0.00    +0.000 C 
ATOM      4  C   UNL     1       4.426   4.802  15.188  0.00  0.00    +0.000 C 
ATOM      5  C   UNL     1       4.443   4.944  16.687  0.00  0.00    +0.000 C 
ATOM      6  O   UNL     1       5.389   6.022  16.805  0.00  0.00    +0.000 OA
ATOM      7  C   UNL     1       5.235   3.735  17.223  0.00  0.00    +0.000 C 
ATOM      8  C   UNL     1       4.459   3.302  18.448  0.00  0.00    +0.000 C 
ATOM      9  O   UNL     1       4.831   2.436  19.219  0.00  0.00    +0.000 OA
ATOM     10  N   UNL     1       3.159   3.840  18.290  0.00  0.00    +0.000 N 
ATOM     11  C   UNL     1       3.184   5.069  17.511  0.00  0.00    +0.000 C 
ENDROOT
BRANCH   1  14
ATOM     12  C   UNL     1       8.050   5.648  20.211  0.00  0.00    +0.000 C 
ATOM     13  N   UNL     1       7.208   5.387  19.066  0.00  0.00    +0.000 N 
ATOM     14  C   UNL     1       7.672   4.589  18.057  0.00  0.00    +0.000 C 
ATOM     15  O   UNL     1       8.798   4.092  18.114  0.00  0.00    +0.000 OA
ATOM     16  H   UNL     1       6.263   5.775  19.046  0.00  0.00    +0.000 HD
ENDBRANCH   1  14
BRANCH  11  17
ATOM     17  C   UNL     1       3.278   6.180  18.571  0.00  0.00    +0.000 C 
ATOM     18  O   UNL     1       4.096   6.146  19.494  0.00  0.00    +0.000 OA
ATOM     19  N   UNL     1       2.372   7.209  18.452  0.00  0.00    +0.000 N 
ATOM     20  H   UNL     1       1.639   7.181  17.756  0.00  0.00    +0.000 HD
BRANCH  19  21
ATOM     21  C   UNL     1       2.281   8.195  19.506  0.00  0.00    +0.000 C 
BRANCH  21  22
ATOM     22  C   UNL     1       1.130   9.134  19.285  0.00  0.00    +0.000 A 
ATOM     23  C   UNL     1       0.566   9.842  20.350  0.00  0.00    +0.000 A 
ATOM     24  C   UNL     1      -0.517  10.694  20.128  0.00  0.00    +0.000 A 
ATOM     25  C   UNL     1      -1.040  10.861  18.844  0.00  0.00    +0.000 A 
ATOM     26  C   UNL     1      -0.483  10.155  17.778  0.00  0.00    +0.000 A 
ATOM     27  C   UNL     1       0.593   9.292  18.000  0.00  0.00    +0.000 A 
BRANCH  25  28
ATOM     28  O   UNL     1      -2.122  11.694  18.765  0.00  0.00    +0.000 OA
ATOM     29  C   UNL     1      -2.483  12.357  19.971  0.00  0.00    +0.000 C 
ENDBRANCH  25  28
ENDBRANCH  21  22
ENDBRANCH  19  21
ENDBRANCH  11  17
BRANCH  10  30
ATOM     30  C   UNL     1       1.908   3.174  18.498  0.00  0.00    +0.000 C 
ATOM     31  C   UNL     1       1.645   2.069  19.473  0.00  0.00    +0.000 C 
ATOM     32  C   UNL     1       1.127   3.442  19.770  0.00  0.00    +0.000 C 
ENDBRANCH  10  30
TORSDOF 6
ENDMDL
MODEL 8
REMARK VINA RESULT:      -7.1      1.779      2.320
REMARK  Name = 
REMARK  8 active torsions:
REMARK  status: ('A' for Active; 'I' for Inactive)
REMARK    1  A    between atoms: C_1  and  N_2
REMARK    2  A    between atoms: C_3  and  C_5
REMARK    3  A    between atoms: N_14  and  C_15
REMARK    4  A    between atoms: C_18  and  C_19
REMARK    5  A    between atoms: N_21  and  C_22
REMARK    6  A    between atoms: C_22  and  C_23
REMARK    7  A    between atoms: C_26  and  O_27
REMARK    8  A    between atoms: O_27  and  C_28
REMARK                            x       y       z     vdW  Elec       q    Type
REMARK                         _______ _______ _______ _____ _____    ______ ____
ROOT
ATOM      1  C   UNL     1       6.639   4.694  17.316  0.00  0.00    +0.000 C 
ATOM      2  C   UNL     1       6.141   5.698  16.241  0.00  0.00    +0.000 C 
ATOM      3  C   UNL     1       5.378   5.014  15.128  0.00  0.00    +0.000 C 
ATOM      4  C   UNL     1       4.199   4.633  15.641  0.00  0.00    +0.000 C 
ATOM      5  C   UNL     1       4.271   5.025  17.093  0.00  0.00    +0.000 C 
ATOM      6  O   UNL     1       5.008   6.254  16.963  0.00  0.00    +0.000 OA
ATOM      7  C   UNL     1       5.298   4.076  17.742  0.00  0.00    +0.000 C 
ATOM      8  C   UNL     1       4.681   3.729  19.080  0.00  0.00    +0.000 C 
ATOM      9  O   UNL     1       5.247   3.081  19.942  0.00  0.00    +0.000 OA
ATOM     10  N   UNL     1       3.298   4.002  18.949  0.00  0.00    +0.000 N 
ATOM     11  C   UNL     1       3.056   5.068  17.989  0.00  0.00    +0.000 C 
ENDROOT
BRANCH   1  14
ATOM     12  C   UNL     1       8.457   7.604  18.973  0.00  0.00    +0.000 C 
ATOM     13  N   UNL     1       7.738   6.804  18.007  0.00  0.00    +0.000 N 
ATOM     14  C   UNL     1       7.579   5.464  18.228  0.00  0.00    +0.000 C 
ATOM     15  O   UNL     1       8.040   4.933  19.240  0.00  0.00    +0.000 OA
ATOM     16  H   UNL     1       7.330   7.261  17.190  0.00  0.00    +0.000 HD
ENDBRANCH   1  14
BRANCH  11  17
ATOM     17  C   UNL     1       3.002   6.340  18.852  0.00  0.00    +0.000 C 
ATOM     18  O   UNL     1       3.333   6.348  20.041  0.00  0.00    +0.000 OA
ATOM     19  N   UNL     1       2.533   7.475  18.232  0.00  0.00    +0.000 N 
ATOM     20  H   UNL     1       2.168   7.441  17.289  0.00  0.00    +0.000 HD
BRANCH  19  21
ATOM     21  C   UNL     1       2.286   8.662  19.021  0.00  0.00    +0.000 C 
BRANCH  21  22
ATOM     22  C   UNL     1       0.954   9.273  18.697  0.00  0.00    +0.000 A 
ATOM     23  C   UNL     1       0.290  10.081  19.624  0.00  0.00    +0.000 A 
ATOM     24  C   UNL     1      -0.958  10.623  19.314  0.00  0.00    +0.000 A 
ATOM     25  C   UNL     1      -1.553  10.376  18.074  0.00  0.00    +0.000 A 
ATOM     26  C   UNL     1      -0.897   9.568  17.146  0.00  0.00    +0.000 A 
ATOM     27  C   UNL     1       0.348   9.015  17.459  0.00  0.00    +0.000 A 
BRANCH  25  28
ATOM     28  O   UNL     1      -2.791  10.933  17.907  0.00  0.00    +0.000 OA
ATOM     29  C   UNL     1      -3.846  10.024  17.616  0.00  0.00    +0.000 C 
ENDBRANCH  25  28
ENDBRANCH  21  22
ENDBRANCH  19  21
ENDBRANCH  11  17
BRANCH  10  30
ATOM     30  C   UNL     1       2.203   3.176  19.361  0.00  0.00    +0.000 C 
ATOM     31  C   UNL     1       0.855   3.104  18.713  0.00  0.00    +0.000 C 
ATOM     32  C   UNL     1       1.820   1.975  18.519  0.00  0.00    +0.000 C 
ENDBRANCH  10  30
TORSDOF 6
ENDMDL
MODEL 9
REMARK VINA RESULT:      -7.0      5.120      9.080
REMARK  Name = 
REMARK  8 active torsions:
REMARK  status: ('A' for Active; 'I' for Inactive)
REMARK    1  A    between atoms: C_1  and  N_2
REMARK    2  A    between atoms: C_3  and  C_5
REMARK    3  A    between atoms: N_14  and  C_15
REMARK    4  A    between atoms: C_18  and  C_19
REMARK    5  A    between atoms: N_21  and  C_22
REMARK    6  A    between atoms: C_22  and  C_23
REMARK    7  A    between atoms: C_26  and  O_27
REMARK    8  A    between atoms: O_27  and  C_28
REMARK                            x       y       z     vdW  Elec       q    Type
REMARK                         _______ _______ _______ _____ _____    ______ ____
ROOT
ATOM      1  C   UNL     1      -0.241  13.113  21.993  0.00  0.00    +0.000 C 
ATOM      2  C   UNL     1      -0.978  14.225  21.198  0.00  0.00    +0.000 C 
ATOM      3  C   UNL     1      -0.021  15.106  20.425  0.00  0.00    +0.000 C 
ATOM      4  C   UNL     1       0.444  14.372  19.403  0.00  0.00    +0.000 C 
ATOM      5  C   UNL     1      -0.179  13.015  19.594  0.00  0.00    +0.000 C 
ATOM      6  O   UNL     1      -1.467  13.421  20.091  0.00  0.00    +0.000 OA
ATOM      7  C   UNL     1       0.493  12.408  20.841  0.00  0.00    +0.000 C 
ATOM      8  C   UNL     1       0.713  10.957  20.469  0.00  0.00    +0.000 C 
ATOM      9  O   UNL     1       1.125  10.111  21.242  0.00  0.00    +0.000 OA
ATOM     10  N   UNL     1       0.671  10.911  19.055  0.00  0.00    +0.000 N 
ATOM     11  C   UNL     1      -0.183  11.959  18.515  0.00  0.00    +0.000 C 
ENDROOT
BRANCH   1  14
ATOM     12  C   UNL     1      -3.572  12.369  23.686  0.00  0.00    +0.000 C 
ATOM     13  N   UNL     1      -2.503  13.060  23.002  0.00  0.00    +0.000 N 
ATOM     14  C   UNL     1      -1.275  12.467  22.899  0.00  0.00    +0.000 C 
ATOM     15  O   UNL     1      -1.072  11.351  23.381  0.00  0.00    +0.000 OA
ATOM     16  H   UNL     1      -2.692  13.969  22.575  0.00  0.00    +0.000 HD
ENDBRANCH   1  14
BRANCH  11  17
ATOM     17  C   UNL     1      -1.553  11.277  18.359  0.00  0.00    +0.000 C 
ATOM     18  O   UNL     1      -1.756  10.111  18.708  0.00  0.00    +0.000 OA
ATOM     19  N   UNL     1      -2.544  12.033  17.777  0.00  0.00    +0.000 N 
ATOM     20  H   UNL     1      -2.346  12.951  17.400  0.00  0.00    +0.000 HD
BRANCH  19  21
ATOM     21  C   UNL     1      -3.803  11.408  17.435  0.00  0.00    +0.000 C 
BRANCH  21  22
ATOM     22  C   UNL     1      -4.882  11.771  18.414  0.00  0.00    +0.000 A 
ATOM     23  C   UNL     1      -4.572  12.386  19.630  0.00  0.00    +0.000 A 
ATOM     24  C   UNL     1      -5.587  12.696  20.536  0.00  0.00    +0.000 A 
ATOM     25  C   UNL     1      -6.922  12.410  20.236  0.00  0.00    +0.000 A 
ATOM     26  C   UNL     1      -7.237  11.794  19.025  0.00  0.00    +0.000 A 
ATOM     27  C   UNL     1      -6.221  11.472  18.122  0.00  0.00    +0.000 A 
BRANCH  25  28
ATOM     28  O   UNL     1      -7.816  12.730  21.221  0.00  0.00    +0.000 OA
ATOM     29  C   UNL     1      -7.433  12.376  22.545  0.00  0.00    +0.000 C 
ENDBRANCH  25  28
ENDBRANCH  21  22
ENDBRANCH  19  21
ENDBRANCH  11  17
BRANCH  10  30
ATOM     30  C   UNL     1       1.574  10.229  18.177  0.00  0.00    +0.000 C 
ATOM     31  C   UNL     1       2.313   8.962  18.477  0.00  0.00    +0.000 C 
ATOM     32  C   UNL     1       1.146   8.922  17.540  0.00  0.00    +0.000 C 
ENDBRANCH  10  30
TORSDOF 6
ENDMDL
