MODEL 1
REMARK VINA RESULT:      -7.6      0.000      0.000
REMARK  Name = 
REMARK  12 active torsions:
REMARK  status: ('A' for Active; 'I' for Inactive)
REMARK    1  A    between atoms: C_1  and  O_2
REMARK    2  A    between atoms: O_2  and  C_3
REMARK    3  A    between atoms: C_6  and  S_7
REMARK    4  A    between atoms: S_7  and  C_8
REMARK    5  A    between atoms: C_8  and  C_9
REMARK    6  A    between atoms: C_9  and  O_10
REMARK    7  A    between atoms: C_9  and  C_11
REMARK    8  A    between atoms: C_11  and  N_12
REMARK    9  A    between atoms: C_15  and  C_16
REMARK   10  A    between atoms: C_16  and  O_17
REMARK   11  A    between atoms: C_16  and  C_18
REMARK   12  A    between atoms: C_16  and  C_24
REMARK                            x       y       z     vdW  Elec       q    Type
REMARK                         _______ _______ _______ _____ _____    ______ ____
ROOT
ATOM      1  N   UNL     1       2.606   4.950  19.212  0.00  0.00    +0.000 NA
ATOM      2  C   UNL     1       2.470   4.633  17.783  0.00  0.00    +0.000 C 
ATOM      3  C   UNL     1       3.561   3.678  17.306  0.00  0.00    +0.000 C 
ATOM      4  C   UNL     1       4.993   4.204  17.547  0.00  0.00    +0.000 C 
ATOM      5  C   UNL     1       5.082   4.504  19.055  0.00  0.00    +0.000 C 
ATOM      6  C   UNL     1       3.959   5.383  19.590  0.00  0.00    +0.000 C 
ENDROOT
BRANCH   1   7
ATOM      7  C   UNL     1       1.589   5.954  19.609  0.00  0.00    +0.000 C 
BRANCH   7   8
ATOM      8  C   UNL     1       2.212   7.325  19.963  0.00  0.00    +0.000 C 
BRANCH   8   9
ATOM      9  O   UNL     1       1.914   7.668  21.323  0.00  0.00    +0.000 OA
ATOM     10  H   UNL     1       2.423   7.071  21.898  0.00  0.00    +0.000 HD
ENDBRANCH   8   9
BRANCH   8  11
ATOM     11  C   UNL     1       1.727   8.434  19.029  0.00  0.00    +0.000 C 
BRANCH  11  12
ATOM     12  S   UNL     1       0.782   9.638  20.041  0.00  0.00    +0.000 S 
BRANCH  12  16
ATOM     13  C   UNL     1      -2.399  11.081  17.092  0.00  0.00    +0.000 A 
ATOM     14  C   UNL     1      -1.722   9.879  16.895  0.00  0.00    +0.000 A 
ATOM     15  C   UNL     1      -0.733   9.472  17.792  0.00  0.00    +0.000 A 
ATOM     16  C   UNL     1      -0.396  10.278  18.883  0.00  0.00    +0.000 A 
ATOM     17  C   UNL     1      -1.054  11.497  19.060  0.00  0.00    +0.000 A 
ATOM     18  C   UNL     1      -2.048  11.901  18.165  0.00  0.00    +0.000 A 
BRANCH  13  20
ATOM     19  C   UNL     1      -3.422  10.493  15.052  0.00  0.00    +0.000 C 
ATOM     20  O   UNL     1      -3.365  11.372  16.170  0.00  0.00    +0.000 OA
ENDBRANCH  13  20
ENDBRANCH  12  16
ENDBRANCH  11  12
ENDBRANCH   8  11
ENDBRANCH   7   8
ENDBRANCH   1   7
BRANCH   4  21
ATOM     21  C   UNL     1       5.459   5.392  16.598  0.00  0.00    +0.000 C 
BRANCH  21  22
ATOM     22  C   UNL     1       6.588   6.203  17.291  0.00  0.00    +0.000 A 
ATOM     23  C   UNL     1       7.410   5.593  18.256  0.00  0.00    +0.000 A 
ATOM     24  C   UNL     1       8.347   6.327  18.988  0.00  0.00    +0.000 A 
ATOM     25  C   UNL     1       8.491   7.696  18.778  0.00  0.00    +0.000 A 
ATOM     26  C   UNL     1       7.714   8.316  17.806  0.00  0.00    +0.000 A 
ATOM     27  C   UNL     1       6.794   7.582  17.054  0.00  0.00    +0.000 A 
ENDBRANCH  21  22
BRANCH  21  28
ATOM     28  C   UNL     1       5.893   4.926  15.190  0.00  0.00    +0.000 A 
ATOM     29  C   UNL     1       5.037   4.109  14.423  0.00  0.00    +0.000 A 
ATOM     30  C   UNL     1       5.421   3.620  13.171  0.00  0.00    +0.000 A 
ATOM     31  C   UNL     1       6.668   3.947  12.649  0.00  0.00    +0.000 A 
ATOM     32  C   UNL     1       7.524   4.769  13.375  0.00  0.00    +0.000 A 
ATOM     33  C   UNL     1       7.136   5.263  14.625  0.00  0.00    +0.000 A 
ENDBRANCH  21  28
BRANCH  21  34
ATOM     34  O   UNL     1       4.322   6.234  16.358  0.00  0.00    +0.000 OA
ATOM     35  H   UNL     1       3.536   5.677  16.344  0.00  0.00    +0.000 HD
ENDBRANCH  21  34
ENDBRANCH   4  21
TORSDOF 11
ENDMDL
MODEL 2
REMARK VINA RESULT:      -7.4      1.838      4.070
REMARK  Name = 
REMARK  12 active torsions:
REMARK  status: ('A' for Active; 'I' for Inactive)
REMARK    1  A    between atoms: C_1  and  O_2
REMARK    2  A    between atoms: O_2  and  C_3
REMARK    3  A    between atoms: C_6  and  S_7
REMARK    4  A    between atoms: S_7  and  C_8
REMARK    5  A    between atoms: C_8  and  C_9
REMARK    6  A    between atoms: C_9  and  O_10
REMARK    7  A    between atoms: C_9  and  C_11
REMARK    8  A    between atoms: C_11  and  N_12
REMARK    9  A    between atoms: C_15  and  C_16
REMARK   10  A    between atoms: C_16  and  O_17
REMARK   11  A    between atoms: C_16  and  C_18
REMARK   12  A    between atoms: C_16  and  C_24
REMARK                            x       y       z     vdW  Elec       q    Type
REMARK                         _______ _______ _______ _____ _____    ______ ____
ROOT
ATOM      1  N   UNL     1       2.958   4.353  18.758  0.00  0.00    +0.000 NA
ATOM      2  C   UNL     1       3.867   5.502  18.638  0.00  0.00    +0.000 C 
ATOM      3  C   UNL     1       3.885   6.066  17.220  0.00  0.00    +0.000 C 
ATOM      4  C   UNL     1       4.277   5.028  16.145  0.00  0.00    +0.000 C 
ATOM      5  C   UNL     1       3.287   3.860  16.308  0.00  0.00    +0.000 C 
ATOM      6  C   UNL     1       3.173   3.325  17.730  0.00  0.00    +0.000 C 
ENDROOT
BRANCH   1   7
ATOM      7  C   UNL     1       3.046   3.777  20.122  0.00  0.00    +0.000 C 
BRANCH   7   8
ATOM      8  C   UNL     1       1.858   4.193  21.022  0.00  0.00    +0.000 C 
BRANCH   8   9
ATOM      9  O   UNL     1       0.911   3.121  21.120  0.00  0.00    +0.000 OA
ATOM     10  H   UNL     1       0.674   2.852  20.216  0.00  0.00    +0.000 HD
ENDBRANCH   8   9
BRANCH   8  11
ATOM     11  C   UNL     1       1.164   5.454  20.507  0.00  0.00    +0.000 C 
BRANCH  11  12
ATOM     12  S   UNL     1       2.036   6.901  21.224  0.00  0.00    +0.000 S 
BRANCH  12  16
ATOM     13  C   UNL     1      -0.065  10.269  18.957  0.00  0.00    +0.000 A 
ATOM     14  C   UNL     1       0.985   9.554  18.382  0.00  0.00    +0.000 A 
ATOM     15  C   UNL     1       1.632   8.550  19.103  0.00  0.00    +0.000 A 
ATOM     16  C   UNL     1       1.249   8.268  20.417  0.00  0.00    +0.000 A 
ATOM     17  C   UNL     1       0.219   9.008  21.002  0.00  0.00    +0.000 A 
ATOM     18  C   UNL     1      -0.432  10.009  20.278  0.00  0.00    +0.000 A 
BRANCH  13  20
ATOM     19  C   UNL     1      -1.517  12.120  18.819  0.00  0.00    +0.000 C 
ATOM     20  O   UNL     1      -0.645  11.211  18.155  0.00  0.00    +0.000 OA
ENDBRANCH  13  20
ENDBRANCH  12  16
ENDBRANCH  11  12
ENDBRANCH   8  11
ENDBRANCH   7   8
ENDBRANCH   1   7
BRANCH   4  21
ATOM     21  C   UNL     1       5.811   4.610  16.121  0.00  0.00    +0.000 C 
BRANCH  21  22
ATOM     22  C   UNL     1       6.322   4.583  14.654  0.00  0.00    +0.000 A 
ATOM     23  C   UNL     1       5.749   3.703  13.719  0.00  0.00    +0.000 A 
ATOM     24  C   UNL     1       6.270   3.563  12.430  0.00  0.00    +0.000 A 
ATOM     25  C   UNL     1       7.383   4.302  12.036  0.00  0.00    +0.000 A 
ATOM     26  C   UNL     1       7.947   5.205  12.930  0.00  0.00    +0.000 A 
ATOM     27  C   UNL     1       7.414   5.366  14.211  0.00  0.00    +0.000 A 
ENDBRANCH  21  22
BRANCH  21  28
ATOM     28  C   UNL     1       6.710   5.501  17.007  0.00  0.00    +0.000 A 
ATOM     29  C   UNL     1       7.337   4.957  18.148  0.00  0.00    +0.000 A 
ATOM     30  C   UNL     1       8.108   5.747  19.005  0.00  0.00    +0.000 A 
ATOM     31  C   UNL     1       8.282   7.100  18.734  0.00  0.00    +0.000 A 
ATOM     32  C   UNL     1       7.693   7.659  17.605  0.00  0.00    +0.000 A 
ATOM     33  C   UNL     1       6.927   6.866  16.744  0.00  0.00    +0.000 A 
ENDBRANCH  21  28
BRANCH  21  34
ATOM     34  O   UNL     1       5.919   3.303  16.705  0.00  0.00    +0.000 OA
ATOM     35  H   UNL     1       6.768   3.249  17.158  0.00  0.00    +0.000 HD
ENDBRANCH  21  34
ENDBRANCH   4  21
TORSDOF 11
ENDMDL
MODEL 3
REMARK VINA RESULT:      -7.3      6.574     10.767
REMARK  Name = 
REMARK  12 active torsions:
REMARK  status: ('A' for Active; 'I' for Inactive)
REMARK    1  A    between atoms: C_1  and  O_2
REMARK    2  A    between atoms: O_2  and  C_3
REMARK    3  A    between atoms: C_6  and  S_7
REMARK    4  A    between atoms: S_7  and  C_8
REMARK    5  A    between atoms: C_8  and  C_9
REMARK    6  A    between atoms: C_9  and  O_10
REMARK    7  A    between atoms: C_9  and  C_11
REMARK    8  A    between atoms: C_11  and  N_12
REMARK    9  A    between atoms: C_15  and  C_16
REMARK   10  A    between atoms: C_16  and  O_17
REMARK   11  A    between atoms: C_16  and  C_18
REMARK   12  A    between atoms: C_16  and  C_24
REMARK                            x       y       z     vdW  Elec       q    Type
REMARK                         _______ _______ _______ _____ _____    ______ ____
ROOT
ATOM      1  N   UNL     1       2.510  14.438  19.369  0.00  0.00    +0.000 NA
ATOM      2  C   UNL     1       1.607  14.074  18.268  0.00  0.00    +0.000 C 
ATOM      3  C   UNL     1       0.141  14.187  18.674  0.00  0.00    +0.000 C 
ATOM      4  C   UNL     1      -0.229  13.327  19.903  0.00  0.00    +0.000 C 
ATOM      5  C   UNL     1       0.734  13.759  21.024  0.00  0.00    +0.000 C 
ATOM      6  C   UNL     1       2.206  13.747  20.629  0.00  0.00    +0.000 C 
ENDROOT
BRANCH   1   7
ATOM      7  C   UNL     1       3.920  14.221  18.963  0.00  0.00    +0.000 C 
BRANCH   7   8
ATOM      8  C   UNL     1       4.803  15.471  19.186  0.00  0.00    +0.000 C 
BRANCH   8   9
ATOM      9  O   UNL     1       3.981  16.624  19.414  0.00  0.00    +0.000 OA
ATOM     10  H   UNL     1       4.286  17.046  20.235  0.00  0.00    +0.000 HD
ENDBRANCH   8   9
BRANCH   8  11
ATOM     11  C   UNL     1       5.741  15.728  18.006  0.00  0.00    +0.000 C 
BRANCH  11  12
ATOM     12  S   UNL     1       7.318  16.381  18.682  0.00  0.00    +0.000 S 
BRANCH  12  16
ATOM     13  C   UNL     1      10.459  13.201  17.720  0.00  0.00    +0.000 A 
ATOM     14  C   UNL     1      10.805  14.545  17.848  0.00  0.00    +0.000 A 
ATOM     15  C   UNL     1       9.825  15.503  18.112  0.00  0.00    +0.000 A 
ATOM     16  C   UNL     1       8.484  15.126  18.227  0.00  0.00    +0.000 A 
ATOM     17  C   UNL     1       8.136  13.784  18.067  0.00  0.00    +0.000 A 
ATOM     18  C   UNL     1       9.117  12.824  17.808  0.00  0.00    +0.000 A 
BRANCH  13  20
ATOM     19  C   UNL     1      11.912  11.573  18.610  0.00  0.00    +0.000 C 
ATOM     20  O   UNL     1      11.497  12.344  17.487  0.00  0.00    +0.000 OA
ENDBRANCH  13  20
ENDBRANCH  12  16
ENDBRANCH  11  12
ENDBRANCH   8  11
ENDBRANCH   7   8
ENDBRANCH   1   7
BRANCH   4  21
ATOM     21  C   UNL     1      -0.301  11.759  19.648  0.00  0.00    +0.000 C 
BRANCH  21  22
ATOM     22  C   UNL     1      -0.159  11.003  20.998  0.00  0.00    +0.000 A 
ATOM     23  C   UNL     1       0.835  10.021  21.158  0.00  0.00    +0.000 A 
ATOM     24  C   UNL     1       0.907   9.235  22.312  0.00  0.00    +0.000 A 
ATOM     25  C   UNL     1      -0.015   9.408  23.341  0.00  0.00    +0.000 A 
ATOM     26  C   UNL     1      -0.985  10.395  23.222  0.00  0.00    +0.000 A 
ATOM     27  C   UNL     1      -1.045  11.200  22.082  0.00  0.00    +0.000 A 
ENDBRANCH  21  22
BRANCH  21  28
ATOM     28  C   UNL     1      -1.573  11.313  18.892  0.00  0.00    +0.000 A 
ATOM     29  C   UNL     1      -2.788  12.004  19.085  0.00  0.00    +0.000 A 
ATOM     30  C   UNL     1      -3.970  11.591  18.464  0.00  0.00    +0.000 A 
ATOM     31  C   UNL     1      -3.965  10.483  17.624  0.00  0.00    +0.000 A 
ATOM     32  C   UNL     1      -2.777   9.796  17.398  0.00  0.00    +0.000 A 
ATOM     33  C   UNL     1      -1.593  10.213  18.015  0.00  0.00    +0.000 A 
ENDBRANCH  21  28
BRANCH  21  34
ATOM     34  O   UNL     1       0.776  11.406  18.768  0.00  0.00    +0.000 OA
ATOM     35  H   UNL     1       1.439  10.932  19.284  0.00  0.00    +0.000 HD
ENDBRANCH  21  34
ENDBRANCH   4  21
TORSDOF 11
ENDMDL
MODEL 4
REMARK VINA RESULT:      -7.3      7.587     10.135
REMARK  Name = 
REMARK  12 active torsions:
REMARK  status: ('A' for Active; 'I' for Inactive)
REMARK    1  A    between atoms: C_1  and  O_2
REMARK    2  A    between atoms: O_2  and  C_3
REMARK    3  A    between atoms: C_6  and  S_7
REMARK    4  A    between atoms: S_7  and  C_8
REMARK    5  A    between atoms: C_8  and  C_9
REMARK    6  A    between atoms: C_9  and  O_10
REMARK    7  A    between atoms: C_9  and  C_11
REMARK    8  A    between atoms: C_11  and  N_12
REMARK    9  A    between atoms: C_15  and  C_16
REMARK   10  A    between atoms: C_16  and  O_17
REMARK   11  A    between atoms: C_16  and  C_18
REMARK   12  A    between atoms: C_16  and  C_24
REMARK                            x       y       z     vdW  Elec       q    Type
REMARK                         _______ _______ _______ _____ _____    ______ ____
ROOT
ATOM      1  N   UNL     1      -2.804  13.314  23.781  0.00  0.00    +0.000 NA
ATOM      2  C   UNL     1      -2.811  12.178  22.848  0.00  0.00    +0.000 C 
ATOM      3  C   UNL     1      -1.405  11.820  22.376  0.00  0.00    +0.000 C 
ATOM      4  C   UNL     1      -0.662  12.993  21.699  0.00  0.00    +0.000 C 
ATOM      5  C   UNL     1      -0.672  14.143  22.722  0.00  0.00    +0.000 C 
ATOM      6  C   UNL     1      -2.048  14.473  23.286  0.00  0.00    +0.000 C 
ENDROOT
BRANCH   1   7
ATOM      7  C   UNL     1      -4.194  13.689  24.136  0.00  0.00    +0.000 C 
BRANCH   7   8
ATOM      8  C   UNL     1      -4.501  15.178  23.847  0.00  0.00    +0.000 C 
BRANCH   8   9
ATOM      9  O   UNL     1      -4.410  15.946  25.054  0.00  0.00    +0.000 OA
ATOM     10  H   UNL     1      -5.308  16.234  25.290  0.00  0.00    +0.000 HD
ENDBRANCH   8   9
BRANCH   8  11
ATOM     11  C   UNL     1      -5.880  15.366  23.214  0.00  0.00    +0.000 C 
BRANCH  11  12
ATOM     12  S   UNL     1      -5.707  15.083  21.409  0.00  0.00    +0.000 S 
BRANCH  12  16
ATOM     13  C   UNL     1      -7.496  10.915  20.833  0.00  0.00    +0.000 A 
ATOM     14  C   UNL     1      -6.604  11.455  19.908  0.00  0.00    +0.000 A 
ATOM     15  C   UNL     1      -6.093  12.741  20.087  0.00  0.00    +0.000 A 
ATOM     16  C   UNL     1      -6.490  13.509  21.186  0.00  0.00    +0.000 A 
ATOM     17  C   UNL     1      -7.407  12.979  22.095  0.00  0.00    +0.000 A 
ATOM     18  C   UNL     1      -7.914  11.689  21.918  0.00  0.00    +0.000 A 
BRANCH  13  20
ATOM     19  C   UNL     1      -7.042   8.868  19.757  0.00  0.00    +0.000 C 
ATOM     20  O   UNL     1      -7.914   9.640  20.576  0.00  0.00    +0.000 OA
ENDBRANCH  13  20
ENDBRANCH  12  16
ENDBRANCH  11  12
ENDBRANCH   8  11
ENDBRANCH   7   8
ENDBRANCH   1   7
BRANCH   4  21
ATOM     21  C   UNL     1      -1.174  13.383  20.245  0.00  0.00    +0.000 C 
BRANCH  21  22
ATOM     22  C   UNL     1      -0.155  14.344  19.573  0.00  0.00    +0.000 A 
ATOM     23  C   UNL     1       1.211  14.014  19.535  0.00  0.00    +0.000 A 
ATOM     24  C   UNL     1       2.168  14.913  19.053  0.00  0.00    +0.000 A 
ATOM     25  C   UNL     1       1.785  16.171  18.594  0.00  0.00    +0.000 A 
ATOM     26  C   UNL     1       0.437  16.507  18.589  0.00  0.00    +0.000 A 
ATOM     27  C   UNL     1      -0.525  15.603  19.045  0.00  0.00    +0.000 A 
ENDBRANCH  21  22
BRANCH  21  28
ATOM     28  C   UNL     1      -1.467  12.163  19.344  0.00  0.00    +0.000 A 
ATOM     29  C   UNL     1      -0.424  11.286  18.982  0.00  0.00    +0.000 A 
ATOM     30  C   UNL     1      -0.641  10.206  18.121  0.00  0.00    +0.000 A 
ATOM     31  C   UNL     1      -1.912   9.971  17.609  0.00  0.00    +0.000 A 
ATOM     32  C   UNL     1      -2.964  10.807  17.965  0.00  0.00    +0.000 A 
ATOM     33  C   UNL     1      -2.748  11.882  18.832  0.00  0.00    +0.000 A 
ENDBRANCH  21  28
BRANCH  21  34
ATOM     34  O   UNL     1      -2.446  14.034  20.387  0.00  0.00    +0.000 OA
ATOM     35  H   UNL     1      -2.814  14.163  19.506  0.00  0.00    +0.000 HD
ENDBRANCH  21  34
ENDBRANCH   4  21
TORSDOF 11
ENDMDL
MODEL 5
REMARK VINA RESULT:      -7.2      1.633      3.977
REMARK  Name = 
REMARK  12 active torsions:
REMARK  status: ('A' for Active; 'I' for Inactive)
REMARK    1  A    between atoms: C_1  and  O_2
REMARK    2  A    between atoms: O_2  and  C_3
REMARK    3  A    between atoms: C_6  and  S_7
REMARK    4  A    between atoms: S_7  and  C_8
REMARK    5  A    between atoms: C_8  and  C_9
REMARK    6  A    between atoms: C_9  and  O_10
REMARK    7  A    between atoms: C_9  and  C_11
REMARK    8  A    between atoms: C_11  and  N_12
REMARK    9  A    between atoms: C_15  and  C_16
REMARK   10  A    between atoms: C_16  and  O_17
REMARK   11  A    between atoms: C_16  and  C_18
REMARK   12  A    between atoms: C_16  and  C_24
REMARK                            x       y       z     vdW  Elec       q    Type
REMARK                         _______ _______ _______ _____ _____    ______ ____
ROOT
ATOM      1  N   UNL     1       3.102   4.774  18.930  0.00  0.00    +0.000 NA
ATOM      2  C   UNL     1       3.919   5.924  18.517  0.00  0.00    +0.000 C 
ATOM      3  C   UNL     1       3.845   6.162  17.012  0.00  0.00    +0.000 C 
ATOM      4  C   UNL     1       4.276   4.941  16.170  0.00  0.00    +0.000 C 
ATOM      5  C   UNL     1       3.382   3.776  16.632  0.00  0.00    +0.000 C 
ATOM      6  C   UNL     1       3.357   3.561  18.140  0.00  0.00    +0.000 C 
ENDROOT
BRANCH   1   7
ATOM      7  C   UNL     1       3.280   4.519  20.381  0.00  0.00    +0.000 C 
BRANCH   7   8
ATOM      8  C   UNL     1       1.970   4.699  21.182  0.00  0.00    +0.000 C 
BRANCH   8   9
ATOM      9  O   UNL     1       1.195   3.493  21.142  0.00  0.00    +0.000 OA
ATOM     10  H   UNL     1       0.859   3.386  20.236  0.00  0.00    +0.000 HD
ENDBRANCH   8   9
BRANCH   8  11
ATOM     11  C   UNL     1       1.135   5.869  20.659  0.00  0.00    +0.000 C 
BRANCH  11  12
ATOM     12  S   UNL     1       1.983   7.420  21.153  0.00  0.00    +0.000 S 
BRANCH  12  16
ATOM     13  C   UNL     1      -0.248  10.775  18.995  0.00  0.00    +0.000 A 
ATOM     14  C   UNL     1      -0.589  10.398  20.292  0.00  0.00    +0.000 A 
ATOM     15  C   UNL     1       0.086   9.350  20.922  0.00  0.00    +0.000 A 
ATOM     16  C   UNL     1       1.093   8.655  20.247  0.00  0.00    +0.000 A 
ATOM     17  C   UNL     1       1.410   9.014  18.936  0.00  0.00    +0.000 A 
ATOM     18  C   UNL     1       0.739  10.066  18.308  0.00  0.00    +0.000 A 
BRANCH  13  20
ATOM     19  C   UNL     1      -1.929  11.488  17.505  0.00  0.00    +0.000 C 
ATOM     20  O   UNL     1      -0.953  11.828  18.483  0.00  0.00    +0.000 OA
ENDBRANCH  13  20
ENDBRANCH  12  16
ENDBRANCH  11  12
ENDBRANCH   8  11
ENDBRANCH   7   8
ENDBRANCH   1   7
BRANCH   4  21
ATOM     21  C   UNL     1       5.834   4.628  16.160  0.00  0.00    +0.000 C 
BRANCH  21  22
ATOM     22  C   UNL     1       6.360   4.637  14.698  0.00  0.00    +0.000 A 
ATOM     23  C   UNL     1       5.766   3.810  13.727  0.00  0.00    +0.000 A 
ATOM     24  C   UNL     1       6.296   3.699  12.438  0.00  0.00    +0.000 A 
ATOM     25  C   UNL     1       7.438   4.412  12.081  0.00  0.00    +0.000 A 
ATOM     26  C   UNL     1       8.023   5.262  13.012  0.00  0.00    +0.000 A 
ATOM     27  C   UNL     1       7.483   5.396  14.293  0.00  0.00    +0.000 A 
ENDBRANCH  21  22
BRANCH  21  28
ATOM     28  C   UNL     1       6.663   5.579  17.054  0.00  0.00    +0.000 A 
ATOM     29  C   UNL     1       6.844   6.925  16.674  0.00  0.00    +0.000 A 
ATOM     30  C   UNL     1       7.636   7.797  17.427  0.00  0.00    +0.000 A 
ATOM     31  C   UNL     1       8.256   7.346  18.587  0.00  0.00    +0.000 A 
ATOM     32  C   UNL     1       8.077   6.029  18.997  0.00  0.00    +0.000 A 
ATOM     33  C   UNL     1       7.280   5.160  18.247  0.00  0.00    +0.000 A 
ENDBRANCH  21  28
BRANCH  21  34
ATOM     34  O   UNL     1       6.027   3.333  16.746  0.00  0.00    +0.000 OA
ATOM     35  H   UNL     1       5.893   2.671  16.058  0.00  0.00    +0.000 HD
ENDBRANCH  21  34
ENDBRANCH   4  21
TORSDOF 11
ENDMDL
MODEL 6
REMARK VINA RESULT:      -7.2      1.678      3.392
REMARK  Name = 
REMARK  12 active torsions:
REMARK  status: ('A' for Active; 'I' for Inactive)
REMARK    1  A    between atoms: C_1  and  O_2
REMARK    2  A    between atoms: O_2  and  C_3
REMARK    3  A    between atoms: C_6  and  S_7
REMARK    4  A    between atoms: S_7  and  C_8
REMARK    5  A    between atoms: C_8  and  C_9
REMARK    6  A    between atoms: C_9  and  O_10
REMARK    7  A    between atoms: C_9  and  C_11
REMARK    8  A    between atoms: C_11  and  N_12
REMARK    9  A    between atoms: C_15  and  C_16
REMARK   10  A    between atoms: C_16  and  O_17
REMARK   11  A    between atoms: C_16  and  C_18
REMARK   12  A    between atoms: C_16  and  C_24
REMARK                            x       y       z     vdW  Elec       q    Type
REMARK                         _______ _______ _______ _____ _____    ______ ____
ROOT
ATOM      1  N   UNL     1       1.494   6.820  19.915  0.00  0.00    +0.000 NA
ATOM      2  C   UNL     1       2.543   7.444  19.096  0.00  0.00    +0.000 C 
ATOM      3  C   UNL     1       2.574   6.875  17.681  0.00  0.00    +0.000 C 
ATOM      4  C   UNL     1       2.776   5.344  17.634  0.00  0.00    +0.000 C 
ATOM      5  C   UNL     1       1.646   4.745  18.492  0.00  0.00    +0.000 C 
ATOM      6  C   UNL     1       1.524   5.351  19.885  0.00  0.00    +0.000 C 
ENDROOT
BRANCH   1   7
ATOM      7  C   UNL     1       1.564   7.330  21.306  0.00  0.00    +0.000 C 
BRANCH   7   8
ATOM      8  C   UNL     1       1.378   8.864  21.387  0.00  0.00    +0.000 C 
BRANCH   8   9
ATOM      9  O   UNL     1       1.862   9.356  22.644  0.00  0.00    +0.000 OA
ATOM     10  H   UNL     1       1.678   8.680  23.317  0.00  0.00    +0.000 HD
ENDBRANCH   8   9
BRANCH   8  11
ATOM     11  C   UNL     1      -0.083   9.275  21.196  0.00  0.00    +0.000 C 
BRANCH  11  12
ATOM     12  S   UNL     1      -0.100  11.032  20.667  0.00  0.00    +0.000 S 
BRANCH  12  16
ATOM     13  C   UNL     1      -2.944  10.715  17.101  0.00  0.00    +0.000 A 
ATOM     14  C   UNL     1      -1.763   9.977  17.153  0.00  0.00    +0.000 A 
ATOM     15  C   UNL     1      -0.894  10.112  18.237  0.00  0.00    +0.000 A 
ATOM     16  C   UNL     1      -1.190  11.006  19.270  0.00  0.00    +0.000 A 
ATOM     17  C   UNL     1      -2.358  11.767  19.200  0.00  0.00    +0.000 A 
ATOM     18  C   UNL     1      -3.230  11.628  18.118  0.00  0.00    +0.000 A 
BRANCH  13  20
ATOM     19  C   UNL     1      -3.036  10.201  14.803  0.00  0.00    +0.000 C 
ATOM     20  O   UNL     1      -3.734  10.488  16.010  0.00  0.00    +0.000 OA
ENDBRANCH  13  20
ENDBRANCH  12  16
ENDBRANCH  11  12
ENDBRANCH   8  11
ENDBRANCH   7   8
ENDBRANCH   1   7
BRANCH   4  21
ATOM     21  C   UNL     1       4.237   4.832  17.995  0.00  0.00    +0.000 C 
BRANCH  21  22
ATOM     22  C   UNL     1       4.152   3.419  18.635  0.00  0.00    +0.000 A 
ATOM     23  C   UNL     1       4.603   3.209  19.950  0.00  0.00    +0.000 A 
ATOM     24  C   UNL     1       4.660   1.928  20.508  0.00  0.00    +0.000 A 
ATOM     25  C   UNL     1       4.266   0.817  19.765  0.00  0.00    +0.000 A 
ATOM     26  C   UNL     1       3.784   1.003  18.475  0.00  0.00    +0.000 A 
ATOM     27  C   UNL     1       3.702   2.283  17.923  0.00  0.00    +0.000 A 
ENDBRANCH  21  22
BRANCH  21  28
ATOM     28  C   UNL     1       5.211   4.842  16.795  0.00  0.00    +0.000 A 
ATOM     29  C   UNL     1       6.536   5.292  16.966  0.00  0.00    +0.000 A 
ATOM     30  C   UNL     1       7.427   5.370  15.891  0.00  0.00    +0.000 A 
ATOM     31  C   UNL     1       7.015   4.987  14.619  0.00  0.00    +0.000 A 
ATOM     32  C   UNL     1       5.720   4.518  14.425  0.00  0.00    +0.000 A 
ATOM     33  C   UNL     1       4.833   4.434  15.502  0.00  0.00    +0.000 A 
ENDBRANCH  21  28
BRANCH  21  34
ATOM     34  O   UNL     1       4.811   5.762  18.926  0.00  0.00    +0.000 OA
ATOM     35  H   UNL     1       4.575   6.652  18.641  0.00  0.00    +0.000 HD
ENDBRANCH  21  34
ENDBRANCH   4  21
TORSDOF 11
ENDMDL
MODEL 7
REMARK VINA RESULT:      -7.1      6.433     10.393
REMARK  Name = 
REMARK  12 active torsions:
REMARK  status: ('A' for Active; 'I' for Inactive)
REMARK    1  A    between atoms: C_1  and  O_2
REMARK    2  A    between atoms: O_2  and  C_3
REMARK    3  A    between atoms: C_6  and  S_7
REMARK    4  A    between atoms: S_7  and  C_8
REMARK    5  A    between atoms: C_8  and  C_9
REMARK    6  A    between atoms: C_9  and  O_10
REMARK    7  A    between atoms: C_9  and  C_11
REMARK    8  A    between atoms: C_11  and  N_12
REMARK    9  A    between atoms: C_15  and  C_16
REMARK   10  A    between atoms: C_16  and  O_17
REMARK   11  A    between atoms: C_16  and  C_18
REMARK   12  A    between atoms: C_16  and  C_24
REMARK                            x       y       z     vdW  Elec       q    Type
REMARK                         _______ _______ _______ _____ _____    ______ ____
ROOT
ATOM      1  N   UNL     1       2.410  14.567  19.827  0.00  0.00    +0.000 NA
ATOM      2  C   UNL     1       1.613  14.265  18.630  0.00  0.00    +0.000 C 
ATOM      3  C   UNL     1       0.117  14.253  18.931  0.00  0.00    +0.000 C 
ATOM      4  C   UNL     1      -0.285  13.255  20.039  0.00  0.00    +0.000 C 
ATOM      5  C   UNL     1       0.566  13.626  21.267  0.00  0.00    +0.000 C 
ATOM      6  C   UNL     1       2.061  13.736  20.988  0.00  0.00    +0.000 C 
ENDROOT
BRANCH   1   7
ATOM      7  C   UNL     1       3.856  14.470  19.513  0.00  0.00    +0.000 C 
BRANCH   7   8
ATOM      8  C   UNL     1       4.636  15.749  19.900  0.00  0.00    +0.000 C 
BRANCH   8   9
ATOM      9  O   UNL     1       3.839  16.573  20.762  0.00  0.00    +0.000 OA
ATOM     10  H   UNL     1       3.348  17.198  20.203  0.00  0.00    +0.000 HD
ENDBRANCH   8   9
BRANCH   8  11
ATOM     11  C   UNL     1       5.069  16.550  18.672  0.00  0.00    +0.000 C 
BRANCH  11  12
ATOM     12  S   UNL     1       6.818  17.048  18.923  0.00  0.00    +0.000 S 
BRANCH  12  16
ATOM     13  C   UNL     1       8.926  12.991  18.933  0.00  0.00    +0.000 A 
ATOM     14  C   UNL     1       9.108  13.904  19.970  0.00  0.00    +0.000 A 
ATOM     15  C   UNL     1       8.478  15.149  19.932  0.00  0.00    +0.000 A 
ATOM     16  C   UNL     1       7.678  15.501  18.841  0.00  0.00    +0.000 A 
ATOM     17  C   UNL     1       7.523  14.598  17.789  0.00  0.00    +0.000 A 
ATOM     18  C   UNL     1       8.149  13.349  17.830  0.00  0.00    +0.000 A 
BRANCH  13  20
ATOM     19  C   UNL     1       9.429  11.187  20.362  0.00  0.00    +0.000 C 
ATOM     20  O   UNL     1       9.566  11.794  19.082  0.00  0.00    +0.000 OA
ENDBRANCH  13  20
ENDBRANCH  12  16
ENDBRANCH  11  12
ENDBRANCH   8  11
ENDBRANCH   7   8
ENDBRANCH   1   7
BRANCH   4  21
ATOM     21  C   UNL     1      -0.239  11.719  19.630  0.00  0.00    +0.000 C 
BRANCH  21  22
ATOM     22  C   UNL     1      -0.154  10.840  20.908  0.00  0.00    +0.000 A 
ATOM     23  C   UNL     1      -1.071  11.025  21.957  0.00  0.00    +0.000 A 
ATOM     24  C   UNL     1      -0.943  10.341  23.170  0.00  0.00    +0.000 A 
ATOM     25  C   UNL     1       0.109   9.451  23.370  0.00  0.00    +0.000 A 
ATOM     26  C   UNL     1       1.010   9.225  22.335  0.00  0.00    +0.000 A 
ATOM     27  C   UNL     1       0.871   9.886  21.113  0.00  0.00    +0.000 A 
ENDBRANCH  21  22
BRANCH  21  28
ATOM     28  C   UNL     1      -1.418  11.282  18.732  0.00  0.00    +0.000 A 
ATOM     29  C   UNL     1      -2.676  11.907  18.865  0.00  0.00    +0.000 A 
ATOM     30  C   UNL     1      -3.779  11.497  18.111  0.00  0.00    +0.000 A 
ATOM     31  C   UNL     1      -3.649  10.459  17.195  0.00  0.00    +0.000 A 
ATOM     32  C   UNL     1      -2.415   9.839  17.027  0.00  0.00    +0.000 A 
ATOM     33  C   UNL     1      -1.310  10.254  17.777  0.00  0.00    +0.000 A 
ENDBRANCH  21  28
BRANCH  21  34
ATOM     34  O   UNL     1       0.924  11.516  18.813  0.00  0.00    +0.000 OA
ATOM     35  H   UNL     1       0.743  10.781  18.216  0.00  0.00    +0.000 HD
ENDBRANCH  21  34
ENDBRANCH   4  21
TORSDOF 11
ENDMDL
MODEL 8
REMARK VINA RESULT:      -7.1      5.474     10.499
REMARK  Name = 
REMARK  12 active torsions:
REMARK  status: ('A' for Active; 'I' for Inactive)
REMARK    1  A    between atoms: C_1  and  O_2
REMARK    2  A    between atoms: O_2  and  C_3
REMARK    3  A    between atoms: C_6  and  S_7
REMARK    4  A    between atoms: S_7  and  C_8
REMARK    5  A    between atoms: C_8  and  C_9
REMARK    6  A    between atoms: C_9  and  O_10
REMARK    7  A    between atoms: C_9  and  C_11
REMARK    8  A    between atoms: C_11  and  N_12
REMARK    9  A    between atoms: C_15  and  C_16
REMARK   10  A    between atoms: C_16  and  O_17
REMARK   11  A    between atoms: C_16  and  C_18
REMARK   12  A    between atoms: C_16  and  C_24
REMARK                            x       y       z     vdW  Elec       q    Type
REMARK                         _______ _______ _______ _____ _____    ______ ____
ROOT
ATOM      1  N   UNL     1       1.886  14.855  19.796  0.00  0.00    +0.000 NA
ATOM      2  C   UNL     1       0.566  14.984  19.163  0.00  0.00    +0.000 C 
ATOM      3  C   UNL     1      -0.524  14.288  19.973  0.00  0.00    +0.000 C 
ATOM      4  C   UNL     1      -0.253  12.788  20.217  0.00  0.00    +0.000 C 
ATOM      5  C   UNL     1       1.128  12.715  20.893  0.00  0.00    +0.000 C 
ATOM      6  C   UNL     1       2.229  13.472  20.160  0.00  0.00    +0.000 C 
ENDROOT
BRANCH   1   7
ATOM      7  C   UNL     1       2.927  15.457  18.928  0.00  0.00    +0.000 C 
BRANCH   7   8
ATOM      8  C   UNL     1       4.095  16.068  19.737  0.00  0.00    +0.000 C 
BRANCH   8   9
ATOM      9  O   UNL     1       4.340  17.416  19.313  0.00  0.00    +0.000 OA
ATOM     10  H   UNL     1       4.346  17.979  20.106  0.00  0.00    +0.000 HD
ENDBRANCH   8   9
BRANCH   8  11
ATOM     11  C   UNL     1       5.376  15.243  19.607  0.00  0.00    +0.000 C 
BRANCH  11  12
ATOM     12  S   UNL     1       5.624  14.880  17.825  0.00  0.00    +0.000 S 
BRANCH  12  16
ATOM     13  C   UNL     1       9.995  13.542  17.930  0.00  0.00    +0.000 A 
ATOM     14  C   UNL     1       9.633  14.857  18.220  0.00  0.00    +0.000 A 
ATOM     15  C   UNL     1       8.296  15.251  18.152  0.00  0.00    +0.000 A 
ATOM     16  C   UNL     1       7.310  14.337  17.771  0.00  0.00    +0.000 A 
ATOM     17  C   UNL     1       7.679  13.029  17.450  0.00  0.00    +0.000 A 
ATOM     18  C   UNL     1       9.016  12.633  17.524  0.00  0.00    +0.000 A 
BRANCH  13  20
ATOM     19  C   UNL     1      11.881  13.485  19.342  0.00  0.00    +0.000 C 
ATOM     20  O   UNL     1      11.325  13.256  18.052  0.00  0.00    +0.000 OA
ENDBRANCH  13  20
ENDBRANCH  12  16
ENDBRANCH  11  12
ENDBRANCH   8  11
ENDBRANCH   7   8
ENDBRANCH   1   7
BRANCH   4  21
ATOM     21  C   UNL     1      -0.432  11.842  18.952  0.00  0.00    +0.000 C 
BRANCH  21  22
ATOM     22  C   UNL     1       0.271  10.482  19.212  0.00  0.00    +0.000 A 
ATOM     23  C   UNL     1       0.054   9.790  20.417  0.00  0.00    +0.000 A 
ATOM     24  C   UNL     1       0.769   8.632  20.734  0.00  0.00    +0.000 A 
ATOM     25  C   UNL     1       1.725   8.130  19.855  0.00  0.00    +0.000 A 
ATOM     26  C   UNL     1       1.934   8.776  18.642  0.00  0.00    +0.000 A 
ATOM     27  C   UNL     1       1.204   9.919  18.309  0.00  0.00    +0.000 A 
ENDBRANCH  21  22
BRANCH  21  28
ATOM     28  C   UNL     1      -1.907  11.636  18.537  0.00  0.00    +0.000 A 
ATOM     29  C   UNL     1      -2.214  11.057  17.288  0.00  0.00    +0.000 A 
ATOM     30  C   UNL     1      -3.535  10.909  16.856  0.00  0.00    +0.000 A 
ATOM     31  C   UNL     1      -4.584  11.326  17.669  0.00  0.00    +0.000 A 
ATOM     32  C   UNL     1      -4.311  11.880  18.915  0.00  0.00    +0.000 A 
ATOM     33  C   UNL     1      -2.989  12.021  19.349  0.00  0.00    +0.000 A 
ENDBRANCH  21  28
BRANCH  21  34
ATOM     34  O   UNL     1       0.164  12.499  17.824  0.00  0.00    +0.000 OA
ATOM     35  H   UNL     1       1.115  12.550  17.977  0.00  0.00    +0.000 HD
ENDBRANCH  21  34
ENDBRANCH   4  21
TORSDOF 11
ENDMDL
MODEL 9
REMARK VINA RESULT:      -7.1      3.373     10.017
REMARK  Name = 
REMARK  12 active torsions:
REMARK  status: ('A' for Active; 'I' for Inactive)
REMARK    1  A    between atoms: C_1  and  O_2
REMARK    2  A    between atoms: O_2  and  C_3
REMARK    3  A    between atoms: C_6  and  S_7
REMARK    4  A    between atoms: S_7  and  C_8
REMARK    5  A    between atoms: C_8  and  C_9
REMARK    6  A    between atoms: C_9  and  O_10
REMARK    7  A    between atoms: C_9  and  C_11
REMARK    8  A    between atoms: C_11  and  N_12
REMARK    9  A    between atoms: C_15  and  C_16
REMARK   10  A    between atoms: C_16  and  O_17
REMARK   11  A    between atoms: C_16  and  C_18
REMARK   12  A    between atoms: C_16  and  C_24
REMARK                            x       y       z     vdW  Elec       q    Type
REMARK                         _______ _______ _______ _____ _____    ______ ____
ROOT
ATOM      1  N   UNL     1       1.658   9.979  18.050  0.00  0.00    +0.000 NA
ATOM      2  C   UNL     1       0.472   9.879  18.913  0.00  0.00    +0.000 C 
ATOM      3  C   UNL     1      -0.467  11.067  18.730  0.00  0.00    +0.000 C 
ATOM      4  C   UNL     1       0.204  12.433  18.994  0.00  0.00    +0.000 C 
ATOM      5  C   UNL     1       1.425  12.489  18.057  0.00  0.00    +0.000 C 
ATOM      6  C   UNL     1       2.343  11.276  18.145  0.00  0.00    +0.000 C 
ENDROOT
BRANCH   1   7
ATOM      7  C   UNL     1       2.588   8.858  18.331  0.00  0.00    +0.000 C 
BRANCH   7   8
ATOM      8  C   UNL     1       1.897   7.680  19.058  0.00  0.00    +0.000 C 
BRANCH   8   9
ATOM      9  O   UNL     1       2.257   7.675  20.447  0.00  0.00    +0.000 OA
ATOM     10  H   UNL     1       2.942   6.997  20.572  0.00  0.00    +0.000 HD
ENDBRANCH   8   9
BRANCH   8  11
ATOM     11  C   UNL     1       2.247   6.333  18.426  0.00  0.00    +0.000 C 
BRANCH  11  12
ATOM     12  S   UNL     1       3.671   5.639  19.352  0.00  0.00    +0.000 S 
BRANCH  12  16
ATOM     13  C   UNL     1       6.803   5.295  16.038  0.00  0.00    +0.000 A 
ATOM     14  C   UNL     1       5.548   5.851  15.794  0.00  0.00    +0.000 A 
ATOM     15  C   UNL     1       4.596   5.919  16.813  0.00  0.00    +0.000 A 
ATOM     16  C   UNL     1       4.885   5.407  18.081  0.00  0.00    +0.000 A 
ATOM     17  C   UNL     1       6.131   4.822  18.314  0.00  0.00    +0.000 A 
ATOM     18  C   UNL     1       7.085   4.760  17.296  0.00  0.00    +0.000 A 
BRANCH  13  20
ATOM     19  C   UNL     1       7.148   4.766  13.768  0.00  0.00    +0.000 C 
ATOM     20  O   UNL     1       7.667   5.302  14.980  0.00  0.00    +0.000 OA
ENDBRANCH  13  20
ENDBRANCH  12  16
ENDBRANCH  11  12
ENDBRANCH   8  11
ENDBRANCH   7   8
ENDBRANCH   1   7
BRANCH   4  21
ATOM     21  C   UNL     1       0.512  12.765  20.518  0.00  0.00    +0.000 C 
BRANCH  21  22
ATOM     22  C   UNL     1       0.992  14.237  20.646  0.00  0.00    +0.000 A 
ATOM     23  C   UNL     1       0.538  15.212  19.739  0.00  0.00    +0.000 A 
ATOM     24  C   UNL     1       1.049  16.513  19.748  0.00  0.00    +0.000 A 
ATOM     25  C   UNL     1       2.030  16.879  20.665  0.00  0.00    +0.000 A 
ATOM     26  C   UNL     1       2.470  15.944  21.594  0.00  0.00    +0.000 A 
ATOM     27  C   UNL     1       1.945  14.650  21.606  0.00  0.00    +0.000 A 
ENDBRANCH  21  22
BRANCH  21  28
ATOM     28  C   UNL     1      -0.676  12.483  21.465  0.00  0.00    +0.000 A 
ATOM     29  C   UNL     1      -1.827  13.297  21.415  0.00  0.00    +0.000 A 
ATOM     30  C   UNL     1      -2.895  13.107  22.296  0.00  0.00    +0.000 A 
ATOM     31  C   UNL     1      -2.844  12.090  23.243  0.00  0.00    +0.000 A 
ATOM     32  C   UNL     1      -1.731  11.258  23.300  0.00  0.00    +0.000 A 
ATOM     33  C   UNL     1      -0.665  11.444  22.414  0.00  0.00    +0.000 A 
ENDBRANCH  21  28
BRANCH  21  34
ATOM     34  O   UNL     1       1.541  11.870  20.964  0.00  0.00    +0.000 OA
ATOM     35  H   UNL     1       1.254  10.969  20.778  0.00  0.00    +0.000 HD
ENDBRANCH  21  34
ENDBRANCH   4  21
TORSDOF 11
ENDMDL
