MODEL 1
REMARK VINA RESULT:      -7.7      0.000      0.000
REMARK  Name = 
REMARK  6 active torsions:
REMARK  status: ('A' for Active; 'I' for Inactive)
REMARK    1  A    between atoms: C_1  and  C_2
REMARK    2  A    between atoms: C_2  and  C_3
REMARK    3  A    between atoms: C_3  and  N_4
REMARK    4  A    between atoms: C_3  and  C_14
REMARK    5  A    between atoms: C_16  and  C_17
REMARK    6  A    between atoms: C_16  and  C_18
REMARK                            x       y       z     vdW  Elec       q    Type
REMARK                         _______ _______ _______ _____ _____    ______ ____
ROOT
ATOM      1  N   UNL     1       4.281   5.837  19.637  0.00  0.00    +0.000 N 
ATOM      2  C   UNL     1       5.159   5.568  18.608  0.00  0.00    +0.000 A 
ATOM      3  C   UNL     1       6.547   5.100  18.966  0.00  0.00    +0.000 A 
ATOM      4  C   UNL     1       7.431   4.859  17.988  0.00  0.00    +0.000 A 
ATOM      5  C   UNL     1       7.026   5.039  16.652  0.00  0.00    +0.000 A 
ATOM      6  N   UNL     1       7.639   4.892  15.498  0.00  0.00    +0.000 NA
ATOM      7  N   UNL     1       6.726   5.171  14.501  0.00  0.00    +0.000 NA
ATOM      8  C   UNL     1       5.589   5.485  15.082  0.00  0.00    +0.000 A 
ATOM      9  N   UNL     1       5.725   5.440  16.439  0.00  0.00    +0.000 N 
ATOM     10  N   UNL     1       4.773   5.723  17.368  0.00  0.00    +0.000 NA
ATOM     11  H   UNL     1       4.578   5.567  20.568  0.00  0.00    +0.000 HD
ENDROOT
BRANCH   1  12
ATOM     12  C   UNL     1       2.833   5.802  19.461  0.00  0.00    +0.000 C 
BRANCH  12  13
ATOM     13  C   UNL     1       2.248   4.912  20.532  0.00  0.00    +0.000 C 
ATOM     14  C   UNL     1       0.893   4.262  20.376  0.00  0.00    +0.000 C 
ATOM     15  C   UNL     1       2.133   3.395  20.392  0.00  0.00    +0.000 C 
ATOM     16  C   UNL     1       2.475   2.682  19.108  0.00  0.00    +0.000 C 
ATOM     17  C   UNL     1       2.438   2.586  21.627  0.00  0.00    +0.000 C 
ENDBRANCH  12  13
BRANCH  12  19
ATOM     18  C   UNL     1       2.239   7.999  18.187  0.00  0.00    +0.000 C 
ATOM     19  C   UNL     1       2.236   7.222  19.498  0.00  0.00    +0.000 C 
ENDBRANCH  12  19
ENDBRANCH   1  12
TORSDOF 3
ENDMDL
MODEL 2
REMARK VINA RESULT:      -7.2      0.938      1.180
REMARK  Name = 
REMARK  6 active torsions:
REMARK  status: ('A' for Active; 'I' for Inactive)
REMARK    1  A    between atoms: C_1  and  C_2
REMARK    2  A    between atoms: C_2  and  C_3
REMARK    3  A    between atoms: C_3  and  N_4
REMARK    4  A    between atoms: C_3  and  C_14
REMARK    5  A    between atoms: C_16  and  C_17
REMARK    6  A    between atoms: C_16  and  C_18
REMARK                            x       y       z     vdW  Elec       q    Type
REMARK                         _______ _______ _______ _____ _____    ______ ____
ROOT
ATOM      1  N   UNL     1       4.066   5.876  19.827  0.00  0.00    +0.000 N 
ATOM      2  C   UNL     1       4.973   5.588  18.829  0.00  0.00    +0.000 A 
ATOM      3  C   UNL     1       6.402   5.319  19.227  0.00  0.00    +0.000 A 
ATOM      4  C   UNL     1       7.311   5.065  18.276  0.00  0.00    +0.000 A 
ATOM      5  C   UNL     1       6.895   5.046  16.931  0.00  0.00    +0.000 A 
ATOM      6  N   UNL     1       7.527   4.836  15.797  0.00  0.00    +0.000 NA
ATOM      7  N   UNL     1       6.593   4.898  14.782  0.00  0.00    +0.000 NA
ATOM      8  C   UNL     1       5.426   5.150  15.332  0.00  0.00    +0.000 A 
ATOM      9  N   UNL     1       5.560   5.276  16.684  0.00  0.00    +0.000 N 
ATOM     10  N   UNL     1       4.578   5.558  17.582  0.00  0.00    +0.000 NA
ATOM     11  H   UNL     1       4.386   5.748  20.781  0.00  0.00    +0.000 HD
ENDROOT
BRANCH   1  12
ATOM     12  C   UNL     1       2.631   5.664  19.668  0.00  0.00    +0.000 C 
BRANCH  12  13
ATOM     13  C   UNL     1       2.339   4.202  19.909  0.00  0.00    +0.000 C 
ATOM     14  C   UNL     1       0.927   3.677  20.006  0.00  0.00    +0.000 C 
ATOM     15  C   UNL     1       1.790   3.267  18.833  0.00  0.00    +0.000 C 
ATOM     16  C   UNL     1       1.367   3.771  17.476  0.00  0.00    +0.000 C 
ATOM     17  C   UNL     1       2.363   1.873  18.804  0.00  0.00    +0.000 C 
ENDBRANCH  12  13
BRANCH  12  19
ATOM     18  C   UNL     1       1.733   8.049  20.222  0.00  0.00    +0.000 C 
ATOM     19  C   UNL     1       1.827   6.578  20.611  0.00  0.00    +0.000 C 
ENDBRANCH  12  19
ENDBRANCH   1  12
TORSDOF 3
ENDMDL
MODEL 3
REMARK VINA RESULT:      -7.0      2.213      5.972
REMARK  Name = 
REMARK  6 active torsions:
REMARK  status: ('A' for Active; 'I' for Inactive)
REMARK    1  A    between atoms: C_1  and  C_2
REMARK    2  A    between atoms: C_2  and  C_3
REMARK    3  A    between atoms: C_3  and  N_4
REMARK    4  A    between atoms: C_3  and  C_14
REMARK    5  A    between atoms: C_16  and  C_17
REMARK    6  A    between atoms: C_16  and  C_18
REMARK                            x       y       z     vdW  Elec       q    Type
REMARK                         _______ _______ _______ _____ _____    ______ ____
ROOT
ATOM      1  N   UNL     1       4.124   4.040  16.643  0.00  0.00    +0.000 N 
ATOM      2  C   UNL     1       3.506   3.576  17.785  0.00  0.00    +0.000 A 
ATOM      3  C   UNL     1       2.959   2.171  17.773  0.00  0.00    +0.000 A 
ATOM      4  C   UNL     1       2.326   1.704  18.858  0.00  0.00    +0.000 A 
ATOM      5  C   UNL     1       2.207   2.541  19.983  0.00  0.00    +0.000 A 
ATOM      6  N   UNL     1       1.658   2.383  21.168  0.00  0.00    +0.000 NA
ATOM      7  N   UNL     1       1.884   3.537  21.890  0.00  0.00    +0.000 NA
ATOM      8  C   UNL     1       2.558   4.362  21.118  0.00  0.00    +0.000 A 
ATOM      9  N   UNL     1       2.770   3.794  19.895  0.00  0.00    +0.000 N 
ATOM     10  N   UNL     1       3.409   4.354  18.833  0.00  0.00    +0.000 NA
ATOM     11  H   UNL     1       4.299   3.358  15.914  0.00  0.00    +0.000 HD
ENDROOT
BRANCH   1  12
ATOM     12  C   UNL     1       5.102   5.123  16.666  0.00  0.00    +0.000 C 
BRANCH  12  13
ATOM     13  C   UNL     1       6.205   4.744  17.626  0.00  0.00    +0.000 C 
ATOM     14  C   UNL     1       7.639   4.597  17.174  0.00  0.00    +0.000 C 
ATOM     15  C   UNL     1       7.270   5.726  18.111  0.00  0.00    +0.000 C 
ATOM     16  C   UNL     1       7.379   7.125  17.558  0.00  0.00    +0.000 C 
ATOM     17  C   UNL     1       7.662   5.622  19.563  0.00  0.00    +0.000 C 
ENDBRANCH  12  13
BRANCH  12  19
ATOM     18  C   UNL     1       5.613   4.261  14.259  0.00  0.00    +0.000 C 
ATOM     19  C   UNL     1       5.639   5.416  15.253  0.00  0.00    +0.000 C 
ENDBRANCH  12  19
ENDBRANCH   1  12
TORSDOF 3
ENDMDL
MODEL 4
REMARK VINA RESULT:      -6.8      1.899      5.926
REMARK  Name = 
REMARK  6 active torsions:
REMARK  status: ('A' for Active; 'I' for Inactive)
REMARK    1  A    between atoms: C_1  and  C_2
REMARK    2  A    between atoms: C_2  and  C_3
REMARK    3  A    between atoms: C_3  and  N_4
REMARK    4  A    between atoms: C_3  and  C_14
REMARK    5  A    between atoms: C_16  and  C_17
REMARK    6  A    between atoms: C_16  and  C_18
REMARK                            x       y       z     vdW  Elec       q    Type
REMARK                         _______ _______ _______ _____ _____    ______ ____
ROOT
ATOM      1  N   UNL     1       4.389   3.997  16.197  0.00  0.00    +0.000 N 
ATOM      2  C   UNL     1       3.503   3.971  17.254  0.00  0.00    +0.000 A 
ATOM      3  C   UNL     1       2.683   2.723  17.459  0.00  0.00    +0.000 A 
ATOM      4  C   UNL     1       1.793   2.681  18.461  0.00  0.00    +0.000 A 
ATOM      5  C   UNL     1       1.665   3.804  19.299  0.00  0.00    +0.000 A 
ATOM      6  N   UNL     1       0.904   4.069  20.339  0.00  0.00    +0.000 NA
ATOM      7  N   UNL     1       1.244   5.326  20.795  0.00  0.00    +0.000 NA
ATOM      8  C   UNL     1       2.196   5.788  20.014  0.00  0.00    +0.000 A 
ATOM      9  N   UNL     1       2.487   4.878  19.039  0.00  0.00    +0.000 N 
ATOM     10  N   UNL     1       3.399   5.013  18.038  0.00  0.00    +0.000 NA
ATOM     11  H   UNL     1       4.536   3.122  15.708  0.00  0.00    +0.000 HD
ENDROOT
BRANCH   1  12
ATOM     12  C   UNL     1       5.555   4.875  16.172  0.00  0.00    +0.000 C 
BRANCH  12  13
ATOM     13  C   UNL     1       6.377   4.603  17.409  0.00  0.00    +0.000 C 
ATOM     14  C   UNL     1       7.882   4.480  17.355  0.00  0.00    +0.000 C 
ATOM     15  C   UNL     1       7.261   5.655  18.077  0.00  0.00    +0.000 C 
ATOM     16  C   UNL     1       7.483   7.016  17.469  0.00  0.00    +0.000 C 
ATOM     17  C   UNL     1       7.263   5.664  19.585  0.00  0.00    +0.000 C 
ENDBRANCH  12  13
BRANCH  12  19
ATOM     18  C   UNL     1       5.686   3.917  13.750  0.00  0.00    +0.000 C 
ATOM     19  C   UNL     1       6.370   4.678  14.880  0.00  0.00    +0.000 C 
ENDBRANCH  12  19
ENDBRANCH   1  12
TORSDOF 3
ENDMDL
MODEL 5
REMARK VINA RESULT:      -6.8      1.107      1.567
REMARK  Name = 
REMARK  6 active torsions:
REMARK  status: ('A' for Active; 'I' for Inactive)
REMARK    1  A    between atoms: C_1  and  C_2
REMARK    2  A    between atoms: C_2  and  C_3
REMARK    3  A    between atoms: C_3  and  N_4
REMARK    4  A    between atoms: C_3  and  C_14
REMARK    5  A    between atoms: C_16  and  C_17
REMARK    6  A    between atoms: C_16  and  C_18
REMARK                            x       y       z     vdW  Elec       q    Type
REMARK                         _______ _______ _______ _____ _____    ______ ____
ROOT
ATOM      1  N   UNL     1       4.106   5.925  19.074  0.00  0.00    +0.000 N 
ATOM      2  C   UNL     1       4.999   5.740  18.040  0.00  0.00    +0.000 A 
ATOM      3  C   UNL     1       6.399   6.272  18.211  0.00  0.00    +0.000 A 
ATOM      4  C   UNL     1       7.281   6.133  17.210  0.00  0.00    +0.000 A 
ATOM      5  C   UNL     1       6.870   5.479  16.034  0.00  0.00    +0.000 A 
ATOM      6  N   UNL     1       7.479   5.193  14.904  0.00  0.00    +0.000 NA
ATOM      7  N   UNL     1       6.587   4.494  14.115  0.00  0.00    +0.000 NA
ATOM      8  C   UNL     1       5.463   4.384  14.789  0.00  0.00    +0.000 A 
ATOM      9  N   UNL     1       5.577   5.006  15.998  0.00  0.00    +0.000 N 
ATOM     10  N   UNL     1       4.615   5.120  16.954  0.00  0.00    +0.000 NA
ATOM     11  H   UNL     1       4.486   6.281  19.943  0.00  0.00    +0.000 HD
ENDROOT
BRANCH   1  12
ATOM     12  C   UNL     1       2.938   5.069  19.264  0.00  0.00    +0.000 C 
BRANCH  12  13
ATOM     13  C   UNL     1       3.421   3.676  19.592  0.00  0.00    +0.000 C 
ATOM     14  C   UNL     1       2.709   2.803  20.598  0.00  0.00    +0.000 C 
ATOM     15  C   UNL     1       2.700   2.409  19.137  0.00  0.00    +0.000 C 
ATOM     16  C   UNL     1       1.367   2.456  18.433  0.00  0.00    +0.000 C 
ATOM     17  C   UNL     1       3.576   1.268  18.686  0.00  0.00    +0.000 C 
ENDBRANCH  12  13
BRANCH  12  19
ATOM     18  C   UNL     1       1.863   7.149  20.413  0.00  0.00    +0.000 C 
ATOM     19  C   UNL     1       2.010   5.633  20.356  0.00  0.00    +0.000 C 
ENDBRANCH  12  19
ENDBRANCH   1  12
TORSDOF 3
ENDMDL
MODEL 6
REMARK VINA RESULT:      -6.6      2.159      5.661
REMARK  Name = 
REMARK  6 active torsions:
REMARK  status: ('A' for Active; 'I' for Inactive)
REMARK    1  A    between atoms: C_1  and  C_2
REMARK    2  A    between atoms: C_2  and  C_3
REMARK    3  A    between atoms: C_3  and  N_4
REMARK    4  A    between atoms: C_3  and  C_14
REMARK    5  A    between atoms: C_16  and  C_17
REMARK    6  A    between atoms: C_16  and  C_18
REMARK                            x       y       z     vdW  Elec       q    Type
REMARK                         _______ _______ _______ _____ _____    ______ ____
ROOT
ATOM      1  N   UNL     1       3.260   5.587  17.369  0.00  0.00    +0.000 N 
ATOM      2  C   UNL     1       2.809   4.642  18.266  0.00  0.00    +0.000 A 
ATOM      3  C   UNL     1       2.277   3.343  17.718  0.00  0.00    +0.000 A 
ATOM      4  C   UNL     1       1.803   2.418  18.566  0.00  0.00    +0.000 A 
ATOM      5  C   UNL     1       1.833   2.689  19.946  0.00  0.00    +0.000 A 
ATOM      6  N   UNL     1       1.454   2.008  21.005  0.00  0.00    +0.000 NA
ATOM      7  N   UNL     1       1.768   2.759  22.120  0.00  0.00    +0.000 NA
ATOM      8  C   UNL     1       2.322   3.876  21.701  0.00  0.00    +0.000 A 
ATOM      9  N   UNL     1       2.369   3.896  20.338  0.00  0.00    +0.000 N 
ATOM     10  N   UNL     1       2.851   4.894  19.550  0.00  0.00    +0.000 NA
ATOM     11  H   UNL     1       3.339   5.293  16.402  0.00  0.00    +0.000 HD
ENDROOT
BRANCH   1  12
ATOM     12  C   UNL     1       4.223   6.621  17.736  0.00  0.00    +0.000 C 
BRANCH  12  13
ATOM     13  C   UNL     1       5.539   6.299  17.069  0.00  0.00    +0.000 C 
ATOM     14  C   UNL     1       6.785   7.112  17.331  0.00  0.00    +0.000 C 
ATOM     15  C   UNL     1       6.724   5.678  17.807  0.00  0.00    +0.000 C 
ATOM     16  C   UNL     1       6.713   5.461  19.299  0.00  0.00    +0.000 C 
ATOM     17  C   UNL     1       7.503   4.629  17.054  0.00  0.00    +0.000 C 
ENDBRANCH  12  13
BRANCH  12  19
ATOM     18  C   UNL     1       2.302   8.382  17.820  0.00  0.00    +0.000 C 
ATOM     19  C   UNL     1       3.707   8.020  17.354  0.00  0.00    +0.000 C 
ENDBRANCH  12  19
ENDBRANCH   1  12
TORSDOF 3
ENDMDL
MODEL 7
REMARK VINA RESULT:      -6.6      2.402      5.797
REMARK  Name = 
REMARK  6 active torsions:
REMARK  status: ('A' for Active; 'I' for Inactive)
REMARK    1  A    between atoms: C_1  and  C_2
REMARK    2  A    between atoms: C_2  and  C_3
REMARK    3  A    between atoms: C_3  and  N_4
REMARK    4  A    between atoms: C_3  and  C_14
REMARK    5  A    between atoms: C_16  and  C_17
REMARK    6  A    between atoms: C_16  and  C_18
REMARK                            x       y       z     vdW  Elec       q    Type
REMARK                         _______ _______ _______ _____ _____    ______ ____
ROOT
ATOM      1  N   UNL     1       3.937   4.905  18.334  0.00  0.00    +0.000 N 
ATOM      2  C   UNL     1       3.206   6.004  18.734  0.00  0.00    +0.000 A 
ATOM      3  C   UNL     1       2.488   5.934  20.057  0.00  0.00    +0.000 A 
ATOM      4  C   UNL     1       1.746   6.976  20.457  0.00  0.00    +0.000 A 
ATOM      5  C   UNL     1       1.674   8.112  19.630  0.00  0.00    +0.000 A 
ATOM      6  N   UNL     1       1.048   9.264  19.735  0.00  0.00    +0.000 NA
ATOM      7  N   UNL     1       1.380  10.021  18.629  0.00  0.00    +0.000 NA
ATOM      8  C   UNL     1       2.191   9.302  17.885  0.00  0.00    +0.000 A 
ATOM      9  N   UNL     1       2.394   8.079  18.456  0.00  0.00    +0.000 N 
ATOM     10  N   UNL     1       3.154   7.063  17.966  0.00  0.00    +0.000 NA
ATOM     11  H   UNL     1       4.063   4.171  19.021  0.00  0.00    +0.000 HD
ENDROOT
BRANCH   1  12
ATOM     12  C   UNL     1       5.041   5.001  17.384  0.00  0.00    +0.000 C 
BRANCH  12  13
ATOM     13  C   UNL     1       6.329   4.740  18.128  0.00  0.00    +0.000 C 
ATOM     14  C   UNL     1       7.641   4.545  17.405  0.00  0.00    +0.000 C 
ATOM     15  C   UNL     1       7.444   5.776  18.263  0.00  0.00    +0.000 C 
ATOM     16  C   UNL     1       7.398   7.100  17.542  0.00  0.00    +0.000 C 
ATOM     17  C   UNL     1       8.131   5.845  19.603  0.00  0.00    +0.000 C 
ENDBRANCH  12  13
BRANCH  12  19
ATOM     18  C   UNL     1       5.357   4.486  14.847  0.00  0.00    +0.000 C 
ATOM     19  C   UNL     1       4.845   4.027  16.207  0.00  0.00    +0.000 C 
ENDBRANCH  12  19
ENDBRANCH   1  12
TORSDOF 3
ENDMDL
MODEL 8
REMARK VINA RESULT:      -6.6      2.573      5.634
REMARK  Name = 
REMARK  6 active torsions:
REMARK  status: ('A' for Active; 'I' for Inactive)
REMARK    1  A    between atoms: C_1  and  C_2
REMARK    2  A    between atoms: C_2  and  C_3
REMARK    3  A    between atoms: C_3  and  N_4
REMARK    4  A    between atoms: C_3  and  C_14
REMARK    5  A    between atoms: C_16  and  C_17
REMARK    6  A    between atoms: C_16  and  C_18
REMARK                            x       y       z     vdW  Elec       q    Type
REMARK                         _______ _______ _______ _____ _____    ______ ____
ROOT
ATOM      1  N   UNL     1       3.572   6.196  18.388  0.00  0.00    +0.000 N 
ATOM      2  C   UNL     1       2.720   7.215  18.759  0.00  0.00    +0.000 A 
ATOM      3  C   UNL     1       2.271   8.184  17.695  0.00  0.00    +0.000 A 
ATOM      4  C   UNL     1       1.467   9.202  18.032  0.00  0.00    +0.000 A 
ATOM      5  C   UNL     1       1.054   9.322  19.372  0.00  0.00    +0.000 A 
ATOM      6  N   UNL     1       0.290  10.185  20.005  0.00  0.00    +0.000 NA
ATOM      7  N   UNL     1       0.201   9.777  21.321  0.00  0.00    +0.000 NA
ATOM      8  C   UNL     1       0.920   8.684  21.447  0.00  0.00    +0.000 A 
ATOM      9  N   UNL     1       1.500   8.362  20.254  0.00  0.00    +0.000 N 
ATOM     10  N   UNL     1       2.329   7.313  20.003  0.00  0.00    +0.000 NA
ATOM     11  H   UNL     1       3.732   6.077  17.394  0.00  0.00    +0.000 HD
ENDROOT
BRANCH   1  12
ATOM     12  C   UNL     1       3.679   4.950  19.141  0.00  0.00    +0.000 C 
BRANCH  12  13
ATOM     13  C   UNL     1       2.784   3.924  18.488  0.00  0.00    +0.000 C 
ATOM     14  C   UNL     1       3.172   2.467  18.401  0.00  0.00    +0.000 C 
ATOM     15  C   UNL     1       2.003   2.871  19.272  0.00  0.00    +0.000 C 
ATOM     16  C   UNL     1       2.176   2.690  20.759  0.00  0.00    +0.000 C 
ATOM     17  C   UNL     1       0.604   2.582  18.791  0.00  0.00    +0.000 C 
ENDBRANCH  12  13
BRANCH  12  19
ATOM     18  C   UNL     1       6.209   5.469  18.780  0.00  0.00    +0.000 C 
ATOM     19  C   UNL     1       5.142   4.475  19.221  0.00  0.00    +0.000 C 
ENDBRANCH  12  19
ENDBRANCH   1  12
TORSDOF 3
ENDMDL
MODEL 9
REMARK VINA RESULT:      -6.5      2.065      5.866
REMARK  Name = 
REMARK  6 active torsions:
REMARK  status: ('A' for Active; 'I' for Inactive)
REMARK    1  A    between atoms: C_1  and  C_2
REMARK    2  A    between atoms: C_2  and  C_3
REMARK    3  A    between atoms: C_3  and  N_4
REMARK    4  A    between atoms: C_3  and  C_14
REMARK    5  A    between atoms: C_16  and  C_17
REMARK    6  A    between atoms: C_16  and  C_18
REMARK                            x       y       z     vdW  Elec       q    Type
REMARK                         _______ _______ _______ _____ _____    ______ ____
ROOT
ATOM      1  N   UNL     1       4.064   4.034  18.020  0.00  0.00    +0.000 N 
ATOM      2  C   UNL     1       3.299   4.844  18.833  0.00  0.00    +0.000 A 
ATOM      3  C   UNL     1       2.614   4.211  20.017  0.00  0.00    +0.000 A 
ATOM      4  C   UNL     1       1.840   4.968  20.809  0.00  0.00    +0.000 A 
ATOM      5  C   UNL     1       1.706   6.337  20.513  0.00  0.00    +0.000 A 
ATOM      6  N   UNL     1       1.038   7.319  21.078  0.00  0.00    +0.000 NA
ATOM      7  N   UNL     1       1.315   8.473  20.373  0.00  0.00    +0.000 NA
ATOM      8  C   UNL     1       2.137   8.153  19.398  0.00  0.00    +0.000 A 
ATOM      9  N   UNL     1       2.401   6.815  19.424  0.00  0.00    +0.000 N 
ATOM     10  N   UNL     1       3.188   6.119  18.560  0.00  0.00    +0.000 NA
ATOM     11  H   UNL     1       4.233   3.091  18.349  0.00  0.00    +0.000 HD
ENDROOT
BRANCH   1  12
ATOM     12  C   UNL     1       5.142   4.556  17.185  0.00  0.00    +0.000 C 
BRANCH  12  13
ATOM     13  C   UNL     1       6.424   4.504  17.982  0.00  0.00    +0.000 C 
ATOM     14  C   UNL     1       7.778   4.514  17.314  0.00  0.00    +0.000 C 
ATOM     15  C   UNL     1       7.356   5.702  18.150  0.00  0.00    +0.000 C 
ATOM     16  C   UNL     1       7.132   7.000  17.415  0.00  0.00    +0.000 C 
ATOM     17  C   UNL     1       7.969   5.884  19.515  0.00  0.00    +0.000 C 
ENDBRANCH  12  13
BRANCH  12  19
ATOM     18  C   UNL     1       5.502   4.588  14.602  0.00  0.00    +0.000 C 
ATOM     19  C   UNL     1       5.249   3.771  15.864  0.00  0.00    +0.000 C 
ENDBRANCH  12  19
ENDBRANCH   1  12
TORSDOF 3
ENDMDL
