MODEL 1
REMARK VINA RESULT:      -7.6      0.000      0.000
REMARK  Name = 
REMARK  5 active torsions:
REMARK  status: ('A' for Active; 'I' for Inactive)
REMARK    1  A    between atoms: N_1  and  C_2
REMARK    2  A    between atoms: C_2  and  C_3
REMARK    3  A    between atoms: C_6  and  C_7
REMARK    4  A    between atoms: C_13  and  C_14
REMARK    5  A    between atoms: C_24  and  C_25
REMARK                            x       y       z     vdW  Elec       q    Type
REMARK                         _______ _______ _______ _____ _____    ______ ____
ROOT
ATOM      1  C   UNL     1       3.485  14.134  20.832  0.00  0.00    +0.000 A 
ATOM      2  N   UNL     1       2.412  13.300  21.100  0.00  0.00    +0.000 N 
ATOM      3  C   UNL     1       1.527  12.951  20.146  0.00  0.00    +0.000 A 
ATOM      4  C   UNL     1       0.514  12.036  20.081  0.00  0.00    +0.000 A 
ATOM      5  C   UNL     1      -0.102  12.238  18.802  0.00  0.00    +0.000 A 
ATOM      6  N   UNL     1       0.590  13.155  18.089  0.00  0.00    +0.000 NA
ATOM      7  N   UNL     1       1.572  13.586  18.930  0.00  0.00    +0.000 N 
ATOM      8  C   UNL     1       2.538  14.547  18.574  0.00  0.00    +0.000 A 
ATOM      9  O   UNL     1       2.533  15.105  17.483  0.00  0.00    +0.000 OA
ATOM     10  C   UNL     1       3.602  14.754  19.630  0.00  0.00    +0.000 A 
ATOM     11  H   UNL     1       2.409  12.902  22.040  0.00  0.00    +0.000 HD
ENDROOT
BRANCH  10  12
ATOM     12  C   UNL     1       4.929  15.231  19.235  0.00  0.00    +0.000 A 
ATOM     13  C   UNL     1       5.783  14.623  18.311  0.00  0.00    +0.000 A 
ATOM     14  C   UNL     1       6.984  15.260  17.967  0.00  0.00    +0.000 A 
ATOM     15  C   UNL     1       7.309  16.501  18.525  0.00  0.00    +0.000 A 
ATOM     16  C   UNL     1       6.413  17.129  19.382  0.00  0.00    +0.000 A 
ATOM     17  C   UNL     1       5.253  16.486  19.760  0.00  0.00    +0.000 A 
ATOM     18  O   UNL     1       6.592  18.385  19.866  0.00  0.00    +0.000 OA
ATOM     19  C   UNL     1       7.964  18.544  20.159  0.00  0.00    +0.000 C 
ATOM     20  C   UNL     1       8.854  18.224  18.961  0.00  0.00    +0.000 C 
ATOM     21  O   UNL     1       8.521  17.043  18.213  0.00  0.00    +0.000 OA
ENDBRANCH  10  12
BRANCH   4  22
ATOM     22  C   UNL     1       0.196  11.144  21.146  0.00  0.00    +0.000 C 
ATOM     23  C   UNL     1      -0.670  11.468  22.121  0.00  0.00    +0.000 C 
ATOM     24  C   UNL     1      -1.033  10.542  23.238  0.00  0.00    +0.000 C 
ATOM     25  C   UNL     1      -0.038   9.394  23.400  0.00  0.00    +0.000 C 
ATOM     26  C   UNL     1       0.320   8.779  22.050  0.00  0.00    +0.000 C 
ATOM     27  C   UNL     1       0.925   9.822  21.103  0.00  0.00    +0.000 C 
ENDBRANCH   4  22
BRANCH   5  28
ATOM     28  C   UNL     1      -1.325  11.632  18.259  0.00  0.00    +0.000 A 
ATOM     29  C   UNL     1      -1.264  10.487  17.449  0.00  0.00    +0.000 A 
ATOM     30  C   UNL     1      -2.423   9.868  16.978  0.00  0.00    +0.000 A 
ATOM     31  C   UNL     1      -3.670  10.384  17.312  0.00  0.00    +0.000 A 
ATOM     32  C   UNL     1      -3.752  11.519  18.116  0.00  0.00    +0.000 A 
ATOM     33  C   UNL     1      -2.589  12.143  18.584  0.00  0.00    +0.000 A 
ENDBRANCH   5  28
BRANCH   1  34
ATOM     34  C   UNL     1       4.575  14.174  21.901  0.00  0.00    +0.000 C 
BRANCH  34  35
ATOM     35  N   UNL     1       4.124  14.827  23.136  0.00  0.00    +0.000 NA
ATOM     36  H   UNL     1       3.181  14.491  23.336  0.00  0.00    +0.000 HD
ATOM     37  H   UNL     1       4.007  15.822  22.947  0.00  0.00    +0.000 HD
ENDBRANCH  34  35
ENDBRANCH   1  34
TORSDOF 5
ENDMDL
MODEL 2
REMARK VINA RESULT:      -7.6      4.900      7.132
REMARK  Name = 
REMARK  5 active torsions:
REMARK  status: ('A' for Active; 'I' for Inactive)
REMARK    1  A    between atoms: N_1  and  C_2
REMARK    2  A    between atoms: C_2  and  C_3
REMARK    3  A    between atoms: C_6  and  C_7
REMARK    4  A    between atoms: C_13  and  C_14
REMARK    5  A    between atoms: C_24  and  C_25
REMARK                            x       y       z     vdW  Elec       q    Type
REMARK                         _______ _______ _______ _____ _____    ______ ____
ROOT
ATOM      1  C   UNL     1       0.606   9.669  19.953  0.00  0.00    +0.000 A 
ATOM      2  N   UNL     1       0.911   8.331  19.772  0.00  0.00    +0.000 N 
ATOM      3  C   UNL     1       1.915   7.933  18.968  0.00  0.00    +0.000 A 
ATOM      4  C   UNL     1       2.536   6.735  18.746  0.00  0.00    +0.000 A 
ATOM      5  C   UNL     1       3.472   6.979  17.688  0.00  0.00    +0.000 A 
ATOM      6  N   UNL     1       3.490   8.294  17.374  0.00  0.00    +0.000 NA
ATOM      7  N   UNL     1       2.527   8.856  18.156  0.00  0.00    +0.000 N 
ATOM      8  C   UNL     1       2.221  10.230  18.152  0.00  0.00    +0.000 A 
ATOM      9  O   UNL     1       2.777  11.021  17.399  0.00  0.00    +0.000 OA
ATOM     10  C   UNL     1       1.213  10.629  19.207  0.00  0.00    +0.000 A 
ATOM     11  H   UNL     1       0.384   7.691  20.369  0.00  0.00    +0.000 HD
ENDROOT
BRANCH  10  12
ATOM     12  C   UNL     1       1.211  11.998  19.726  0.00  0.00    +0.000 A 
ATOM     13  C   UNL     1       2.035  12.498  20.738  0.00  0.00    +0.000 A 
ATOM     14  C   UNL     1       1.979  13.863  21.055  0.00  0.00    +0.000 A 
ATOM     15  C   UNL     1       1.126  14.716  20.348  0.00  0.00    +0.000 A 
ATOM     16  C   UNL     1       0.372  14.219  19.292  0.00  0.00    +0.000 A 
ATOM     17  C   UNL     1       0.387  12.870  19.007  0.00  0.00    +0.000 A 
ATOM     18  O   UNL     1      -0.383  15.000  18.475  0.00  0.00    +0.000 OA
ATOM     19  C   UNL     1      -0.988  15.998  19.269  0.00  0.00    +0.000 C 
ATOM     20  C   UNL     1       0.033  16.786  20.087  0.00  0.00    +0.000 C 
ATOM     21  O   UNL     1       1.056  16.020  20.742  0.00  0.00    +0.000 OA
ENDBRANCH  10  12
BRANCH   4  22
ATOM     22  C   UNL     1       2.207   5.541  19.452  0.00  0.00    +0.000 C 
ATOM     23  C   UNL     1       2.595   5.325  20.720  0.00  0.00    +0.000 C 
ATOM     24  C   UNL     1       2.247   4.090  21.487  0.00  0.00    +0.000 C 
ATOM     25  C   UNL     1       1.787   2.946  20.584  0.00  0.00    +0.000 C 
ATOM     26  C   UNL     1       0.797   3.436  19.532  0.00  0.00    +0.000 C 
ATOM     27  C   UNL     1       1.410   4.535  18.656  0.00  0.00    +0.000 C 
ENDBRANCH   4  22
BRANCH   5  28
ATOM     28  C   UNL     1       4.305   6.020  16.951  0.00  0.00    +0.000 A 
ATOM     29  C   UNL     1       4.322   4.661  17.300  0.00  0.00    +0.000 A 
ATOM     30  C   UNL     1       5.062   3.731  16.568  0.00  0.00    +0.000 A 
ATOM     31  C   UNL     1       5.801   4.146  15.466  0.00  0.00    +0.000 A 
ATOM     32  C   UNL     1       5.797   5.490  15.101  0.00  0.00    +0.000 A 
ATOM     33  C   UNL     1       5.058   6.425  15.839  0.00  0.00    +0.000 A 
ENDBRANCH   5  28
BRANCH   1  34
ATOM     34  C   UNL     1      -0.317   9.985  21.128  0.00  0.00    +0.000 C 
BRANCH  34  35
ATOM     35  N   UNL     1       0.038   9.230  22.336  0.00  0.00    +0.000 NA
ATOM     36  H   UNL     1       0.877   8.687  22.126  0.00  0.00    +0.000 HD
ATOM     37  H   UNL     1      -0.686   8.531  22.500  0.00  0.00    +0.000 HD
ENDBRANCH  34  35
ENDBRANCH   1  34
TORSDOF 5
ENDMDL
MODEL 3
REMARK VINA RESULT:      -7.4      4.807      7.060
REMARK  Name = 
REMARK  5 active torsions:
REMARK  status: ('A' for Active; 'I' for Inactive)
REMARK    1  A    between atoms: N_1  and  C_2
REMARK    2  A    between atoms: C_2  and  C_3
REMARK    3  A    between atoms: C_6  and  C_7
REMARK    4  A    between atoms: C_13  and  C_14
REMARK    5  A    between atoms: C_24  and  C_25
REMARK                            x       y       z     vdW  Elec       q    Type
REMARK                         _______ _______ _______ _____ _____    ______ ____
ROOT
ATOM      1  C   UNL     1       0.336   9.834  19.312  0.00  0.00    +0.000 A 
ATOM      2  N   UNL     1       0.738   8.515  19.186  0.00  0.00    +0.000 N 
ATOM      3  C   UNL     1       1.905   8.179  18.606  0.00  0.00    +0.000 A 
ATOM      4  C   UNL     1       2.616   7.015  18.508  0.00  0.00    +0.000 A 
ATOM      5  C   UNL     1       3.740   7.323  17.673  0.00  0.00    +0.000 A 
ATOM      6  N   UNL     1       3.759   8.643  17.381  0.00  0.00    +0.000 NA
ATOM      7  N   UNL     1       2.627   9.145  17.950  0.00  0.00    +0.000 N 
ATOM      8  C   UNL     1       2.263  10.504  17.895  0.00  0.00    +0.000 A 
ATOM      9  O   UNL     1       2.925  11.333  17.283  0.00  0.00    +0.000 OA
ATOM     10  C   UNL     1       1.038  10.835  18.719  0.00  0.00    +0.000 A 
ATOM     11  H   UNL     1       0.129   7.840  19.652  0.00  0.00    +0.000 HD
ENDROOT
BRANCH  10  12
ATOM     12  C   UNL     1       0.861  12.192  19.238  0.00  0.00    +0.000 A 
ATOM     13  C   UNL     1      -0.179  13.069  18.918  0.00  0.00    +0.000 A 
ATOM     14  C   UNL     1      -0.262  14.304  19.578  0.00  0.00    +0.000 A 
ATOM     15  C   UNL     1       0.674  14.641  20.561  0.00  0.00    +0.000 A 
ATOM     16  C   UNL     1       1.656  13.727  20.924  0.00  0.00    +0.000 A 
ATOM     17  C   UNL     1       1.770  12.531  20.246  0.00  0.00    +0.000 A 
ATOM     18  O   UNL     1       2.521  13.922  21.952  0.00  0.00    +0.000 OA
ATOM     19  C   UNL     1       2.896  15.283  21.949  0.00  0.00    +0.000 C 
ATOM     20  C   UNL     1       1.689  16.217  21.987  0.00  0.00    +0.000 C 
ATOM     21  O   UNL     1       0.593  15.882  21.121  0.00  0.00    +0.000 OA
ENDBRANCH  10  12
BRANCH   4  22
ATOM     22  C   UNL     1       2.206   5.794  19.118  0.00  0.00    +0.000 C 
ATOM     23  C   UNL     1       1.770   4.744  18.402  0.00  0.00    +0.000 C 
ATOM     24  C   UNL     1       1.351   3.447  19.016  0.00  0.00    +0.000 C 
ATOM     25  C   UNL     1       1.068   3.569  20.513  0.00  0.00    +0.000 C 
ATOM     26  C   UNL     1       2.155   4.375  21.218  0.00  0.00    +0.000 C 
ATOM     27  C   UNL     1       2.278   5.785  20.627  0.00  0.00    +0.000 C 
ENDBRANCH   4  22
BRANCH   5  28
ATOM     28  C   UNL     1       4.755   6.417  17.117  0.00  0.00    +0.000 A 
ATOM     29  C   UNL     1       5.510   5.580  17.953  0.00  0.00    +0.000 A 
ATOM     30  C   UNL     1       6.432   4.672  17.431  0.00  0.00    +0.000 A 
ATOM     31  C   UNL     1       6.616   4.583  16.056  0.00  0.00    +0.000 A 
ATOM     32  C   UNL     1       5.876   5.405  15.208  0.00  0.00    +0.000 A 
ATOM     33  C   UNL     1       4.953   6.319  15.733  0.00  0.00    +0.000 A 
ENDBRANCH   5  28
BRANCH   1  34
ATOM     34  C   UNL     1      -0.826  10.085  20.270  0.00  0.00    +0.000 C 
BRANCH  34  35
ATOM     35  N   UNL     1      -0.439   9.911  21.675  0.00  0.00    +0.000 NA
ATOM     36  H   UNL     1      -0.933  10.618  22.222  0.00  0.00    +0.000 HD
ATOM     37  H   UNL     1       0.546  10.156  21.769  0.00  0.00    +0.000 HD
ENDBRANCH  34  35
ENDBRANCH   1  34
TORSDOF 5
ENDMDL
MODEL 4
REMARK VINA RESULT:      -7.4      4.861      6.985
REMARK  Name = 
REMARK  5 active torsions:
REMARK  status: ('A' for Active; 'I' for Inactive)
REMARK    1  A    between atoms: N_1  and  C_2
REMARK    2  A    between atoms: C_2  and  C_3
REMARK    3  A    between atoms: C_6  and  C_7
REMARK    4  A    between atoms: C_13  and  C_14
REMARK    5  A    between atoms: C_24  and  C_25
REMARK                            x       y       z     vdW  Elec       q    Type
REMARK                         _______ _______ _______ _____ _____    ______ ____
ROOT
ATOM      1  C   UNL     1       0.437   9.545  20.007  0.00  0.00    +0.000 A 
ATOM      2  N   UNL     1       0.802   8.218  19.856  0.00  0.00    +0.000 N 
ATOM      3  C   UNL     1       1.808   7.845  19.043  0.00  0.00    +0.000 A 
ATOM      4  C   UNL     1       2.481   6.672  18.842  0.00  0.00    +0.000 A 
ATOM      5  C   UNL     1       3.385   6.930  17.759  0.00  0.00    +0.000 A 
ATOM      6  N   UNL     1       3.334   8.235  17.409  0.00  0.00    +0.000 NA
ATOM      7  N   UNL     1       2.360   8.773  18.195  0.00  0.00    +0.000 N 
ATOM      8  C   UNL     1       1.990  10.131  18.160  0.00  0.00    +0.000 A 
ATOM      9  O   UNL     1       2.494  10.925  17.375  0.00  0.00    +0.000 OA
ATOM     10  C   UNL     1       0.984  10.511  19.224  0.00  0.00    +0.000 A 
ATOM     11  H   UNL     1       0.316   7.571  20.480  0.00  0.00    +0.000 HD
ENDROOT
BRANCH  10  12
ATOM     12  C   UNL     1       0.927  11.892  19.705  0.00  0.00    +0.000 A 
ATOM     13  C   UNL     1      -0.170  12.754  19.611  0.00  0.00    +0.000 A 
ATOM     14  C   UNL     1      -0.099  14.020  20.210  0.00  0.00    +0.000 A 
ATOM     15  C   UNL     1       1.047  14.404  20.914  0.00  0.00    +0.000 A 
ATOM     16  C   UNL     1       2.098  13.506  21.064  0.00  0.00    +0.000 A 
ATOM     17  C   UNL     1       2.053  12.279  20.438  0.00  0.00    +0.000 A 
ATOM     18  O   UNL     1       3.190  13.751  21.835  0.00  0.00    +0.000 OA
ATOM     19  C   UNL     1       3.537  15.110  21.673  0.00  0.00    +0.000 C 
ATOM     20  C   UNL     1       2.367  16.046  21.966  0.00  0.00    +0.000 C 
ATOM     21  O   UNL     1       1.094  15.671  21.416  0.00  0.00    +0.000 OA
ENDBRANCH  10  12
BRANCH   4  22
ATOM     22  C   UNL     1       2.221   5.484  19.586  0.00  0.00    +0.000 C 
ATOM     23  C   UNL     1       2.690   5.299  20.832  0.00  0.00    +0.000 C 
ATOM     24  C   UNL     1       2.416   4.071  21.638  0.00  0.00    +0.000 C 
ATOM     25  C   UNL     1       1.929   2.901  20.784  0.00  0.00    +0.000 C 
ATOM     26  C   UNL     1       0.867   3.351  19.785  0.00  0.00    +0.000 C 
ATOM     27  C   UNL     1       1.402   4.446  18.856  0.00  0.00    +0.000 C 
ENDBRANCH   4  22
BRANCH   5  28
ATOM     28  C   UNL     1       4.249   5.991  17.032  0.00  0.00    +0.000 A 
ATOM     29  C   UNL     1       4.251   4.622  17.344  0.00  0.00    +0.000 A 
ATOM     30  C   UNL     1       5.021   3.712  16.619  0.00  0.00    +0.000 A 
ATOM     31  C   UNL     1       5.805   4.156  15.561  0.00  0.00    +0.000 A 
ATOM     32  C   UNL     1       5.816   5.510  15.232  0.00  0.00    +0.000 A 
ATOM     33  C   UNL     1       5.046   6.424  15.964  0.00  0.00    +0.000 A 
ENDBRANCH   5  28
BRANCH   1  34
ATOM     34  C   UNL     1      -0.477   9.850  21.191  0.00  0.00    +0.000 C 
BRANCH  34  35
ATOM     35  N   UNL     1       0.153   9.537  22.480  0.00  0.00    +0.000 NA
ATOM     36  H   UNL     1      -0.230   8.647  22.803  0.00  0.00    +0.000 HD
ATOM     37  H   UNL     1      -0.168  10.219  23.167  0.00  0.00    +0.000 HD
ENDBRANCH  34  35
ENDBRANCH   1  34
TORSDOF 5
ENDMDL
MODEL 5
REMARK VINA RESULT:      -7.4      5.293      8.098
REMARK  Name = 
REMARK  5 active torsions:
REMARK  status: ('A' for Active; 'I' for Inactive)
REMARK    1  A    between atoms: N_1  and  C_2
REMARK    2  A    between atoms: C_2  and  C_3
REMARK    3  A    between atoms: C_6  and  C_7
REMARK    4  A    between atoms: C_13  and  C_14
REMARK    5  A    between atoms: C_24  and  C_25
REMARK                            x       y       z     vdW  Elec       q    Type
REMARK                         _______ _______ _______ _____ _____    ______ ____
ROOT
ATOM      1  C   UNL     1       0.642   8.659  20.393  0.00  0.00    +0.000 A 
ATOM      2  N   UNL     1       1.250   7.431  20.192  0.00  0.00    +0.000 N 
ATOM      3  C   UNL     1       2.224   7.259  19.279  0.00  0.00    +0.000 A 
ATOM      4  C   UNL     1       3.095   6.244  18.999  0.00  0.00    +0.000 A 
ATOM      5  C   UNL     1       3.815   6.667  17.834  0.00  0.00    +0.000 A 
ATOM      6  N   UNL     1       3.469   7.932  17.504  0.00  0.00    +0.000 NA
ATOM      7  N   UNL     1       2.490   8.271  18.389  0.00  0.00    +0.000 N 
ATOM      8  C   UNL     1       1.853   9.526  18.406  0.00  0.00    +0.000 A 
ATOM      9  O   UNL     1       2.106  10.398  17.582  0.00  0.00    +0.000 OA
ATOM     10  C   UNL     1       0.903   9.707  19.569  0.00  0.00    +0.000 A 
ATOM     11  H   UNL     1       0.969   6.706  20.855  0.00  0.00    +0.000 HD
ENDROOT
BRANCH  10  12
ATOM     12  C   UNL     1       0.618  11.054  20.067  0.00  0.00    +0.000 A 
ATOM     13  C   UNL     1       1.553  11.961  20.574  0.00  0.00    +0.000 A 
ATOM     14  C   UNL     1       1.135  13.253  20.922  0.00  0.00    +0.000 A 
ATOM     15  C   UNL     1      -0.198  13.636  20.739  0.00  0.00    +0.000 A 
ATOM     16  C   UNL     1      -1.098  12.748  20.161  0.00  0.00    +0.000 A 
ATOM     17  C   UNL     1      -0.704  11.461  19.861  0.00  0.00    +0.000 A 
ATOM     18  O   UNL     1      -2.374  13.080  19.833  0.00  0.00    +0.000 OA
ATOM     19  C   UNL     1      -2.878  13.918  20.852  0.00  0.00    +0.000 C 
ATOM     20  C   UNL     1      -1.983  15.129  21.102  0.00  0.00    +0.000 C 
ATOM     21  O   UNL     1      -0.570  14.879  21.160  0.00  0.00    +0.000 OA
ENDBRANCH  10  12
BRANCH   4  22
ATOM     22  C   UNL     1       3.155   5.035  19.754  0.00  0.00    +0.000 C 
ATOM     23  C   UNL     1       4.170   4.164  19.634  0.00  0.00    +0.000 C 
ATOM     24  C   UNL     1       4.265   2.900  20.427  0.00  0.00    +0.000 C 
ATOM     25  C   UNL     1       2.931   2.495  21.053  0.00  0.00    +0.000 C 
ATOM     26  C   UNL     1       2.237   3.691  21.697  0.00  0.00    +0.000 C 
ATOM     27  C   UNL     1       1.981   4.806  20.675  0.00  0.00    +0.000 C 
ENDBRANCH   4  22
BRANCH   5  28
ATOM     28  C   UNL     1       4.773   5.913  17.014  0.00  0.00    +0.000 A 
ATOM     29  C   UNL     1       6.126   6.280  16.965  0.00  0.00    +0.000 A 
ATOM     30  C   UNL     1       7.056   5.535  16.238  0.00  0.00    +0.000 A 
ATOM     31  C   UNL     1       6.647   4.401  15.546  0.00  0.00    +0.000 A 
ATOM     32  C   UNL     1       5.308   4.018  15.583  0.00  0.00    +0.000 A 
ATOM     33  C   UNL     1       4.374   4.769  16.309  0.00  0.00    +0.000 A 
ENDBRANCH   5  28
BRANCH   1  34
ATOM     34  C   UNL     1      -0.191   8.787  21.666  0.00  0.00    +0.000 C 
BRANCH  34  35
ATOM     35  N   UNL     1       0.612   9.205  22.821  0.00  0.00    +0.000 NA
ATOM     36  H   UNL     1      -0.032   9.420  23.584  0.00  0.00    +0.000 HD
ATOM     37  H   UNL     1       1.054  10.096  22.599  0.00  0.00    +0.000 HD
ENDBRANCH  34  35
ENDBRANCH   1  34
TORSDOF 5
ENDMDL
MODEL 6
REMARK VINA RESULT:      -7.3      5.072      7.563
REMARK  Name = 
REMARK  5 active torsions:
REMARK  status: ('A' for Active; 'I' for Inactive)
REMARK    1  A    between atoms: N_1  and  C_2
REMARK    2  A    between atoms: C_2  and  C_3
REMARK    3  A    between atoms: C_6  and  C_7
REMARK    4  A    between atoms: C_13  and  C_14
REMARK    5  A    between atoms: C_24  and  C_25
REMARK                            x       y       z     vdW  Elec       q    Type
REMARK                         _______ _______ _______ _____ _____    ______ ____
ROOT
ATOM      1  C   UNL     1       0.575   9.129  20.496  0.00  0.00    +0.000 A 
ATOM      2  N   UNL     1       0.996   7.828  20.278  0.00  0.00    +0.000 N 
ATOM      3  C   UNL     1       1.920   7.526  19.346  0.00  0.00    +0.000 A 
ATOM      4  C   UNL     1       2.632   6.399  19.045  0.00  0.00    +0.000 A 
ATOM      5  C   UNL     1       3.386   6.724  17.869  0.00  0.00    +0.000 A 
ATOM      6  N   UNL     1       3.218   8.028  17.553  0.00  0.00    +0.000 NA
ATOM      7  N   UNL     1       2.314   8.496  18.458  0.00  0.00    +0.000 N 
ATOM      8  C   UNL     1       1.864   9.830  18.493  0.00  0.00    +0.000 A 
ATOM      9  O   UNL     1       2.225  10.663  17.670  0.00  0.00    +0.000 OA
ATOM     10  C   UNL     1       0.969  10.136  19.674  0.00  0.00    +0.000 A 
ATOM     11  H   UNL     1       0.626   7.145  20.941  0.00  0.00    +0.000 HD
ENDROOT
BRANCH  10  12
ATOM     12  C   UNL     1       0.888  11.505  20.185  0.00  0.00    +0.000 A 
ATOM     13  C   UNL     1       1.961  12.284  20.629  0.00  0.00    +0.000 A 
ATOM     14  C   UNL     1       1.732  13.617  20.999  0.00  0.00    +0.000 A 
ATOM     15  C   UNL     1       0.449  14.165  20.900  0.00  0.00    +0.000 A 
ATOM     16  C   UNL     1      -0.591  13.402  20.383  0.00  0.00    +0.000 A 
ATOM     17  C   UNL     1      -0.382  12.077  20.062  0.00  0.00    +0.000 A 
ATOM     18  O   UNL     1      -1.833  13.894  20.136  0.00  0.00    +0.000 OA
ATOM     19  C   UNL     1      -2.161  14.783  21.182  0.00  0.00    +0.000 C 
ATOM     20  C   UNL     1      -1.106  15.870  21.371  0.00  0.00    +0.000 C 
ATOM     21  O   UNL     1       0.265  15.443  21.340  0.00  0.00    +0.000 OA
ENDBRANCH  10  12
BRANCH   4  22
ATOM     22  C   UNL     1       2.531   5.188  19.790  0.00  0.00    +0.000 C 
ATOM     23  C   UNL     1       1.349   4.672  20.167  0.00  0.00    +0.000 C 
ATOM     24  C   UNL     1       1.218   3.395  20.934  0.00  0.00    +0.000 C 
ATOM     25  C   UNL     1       2.526   2.967  21.596  0.00  0.00    +0.000 C 
ATOM     26  C   UNL     1       3.704   3.106  20.636  0.00  0.00    +0.000 C 
ATOM     27  C   UNL     1       3.854   4.549  20.140  0.00  0.00    +0.000 C 
ENDBRANCH   4  22
BRANCH   5  28
ATOM     28  C   UNL     1       4.211   5.848  17.028  0.00  0.00    +0.000 A 
ATOM     29  C   UNL     1       4.016   4.458  17.024  0.00  0.00    +0.000 A 
ATOM     30  C   UNL     1       4.752   3.623  16.184  0.00  0.00    +0.000 A 
ATOM     31  C   UNL     1       5.701   4.165  15.324  0.00  0.00    +0.000 A 
ATOM     32  C   UNL     1       5.909   5.543  15.310  0.00  0.00    +0.000 A 
ATOM     33  C   UNL     1       5.173   6.381  16.158  0.00  0.00    +0.000 A 
ENDBRANCH   5  28
BRANCH   1  34
ATOM     34  C   UNL     1      -0.210   9.363  21.785  0.00  0.00    +0.000 C 
BRANCH  34  35
ATOM     35  N   UNL     1       0.663   9.470  22.960  0.00  0.00    +0.000 NA
ATOM     36  H   UNL     1       0.152   9.092  23.760  0.00  0.00    +0.000 HD
ATOM     37  H   UNL     1       0.786  10.458  23.179  0.00  0.00    +0.000 HD
ENDBRANCH  34  35
ENDBRANCH   1  34
TORSDOF 5
ENDMDL
MODEL 7
REMARK VINA RESULT:      -7.3      0.254      1.206
REMARK  Name = 
REMARK  5 active torsions:
REMARK  status: ('A' for Active; 'I' for Inactive)
REMARK    1  A    between atoms: N_1  and  C_2
REMARK    2  A    between atoms: C_2  and  C_3
REMARK    3  A    between atoms: C_6  and  C_7
REMARK    4  A    between atoms: C_13  and  C_14
REMARK    5  A    between atoms: C_24  and  C_25
REMARK                            x       y       z     vdW  Elec       q    Type
REMARK                         _______ _______ _______ _____ _____    ______ ____
ROOT
ATOM      1  C   UNL     1       3.583  14.130  20.785  0.00  0.00    +0.000 A 
ATOM      2  N   UNL     1       2.516  13.297  21.078  0.00  0.00    +0.000 N 
ATOM      3  C   UNL     1       1.634  12.913  20.136  0.00  0.00    +0.000 A 
ATOM      4  C   UNL     1       0.627  11.989  20.098  0.00  0.00    +0.000 A 
ATOM      5  C   UNL     1       0.009  12.149  18.815  0.00  0.00    +0.000 A 
ATOM      6  N   UNL     1       0.693  13.051  18.075  0.00  0.00    +0.000 NA
ATOM      7  N   UNL     1       1.672  13.513  18.901  0.00  0.00    +0.000 N 
ATOM      8  C   UNL     1       2.631  14.470  18.517  0.00  0.00    +0.000 A 
ATOM      9  O   UNL     1       2.621  14.996  17.410  0.00  0.00    +0.000 OA
ATOM     10  C   UNL     1       3.694  14.716  19.564  0.00  0.00    +0.000 A 
ATOM     11  H   UNL     1       2.517  12.925  22.029  0.00  0.00    +0.000 HD
ENDROOT
BRANCH  10  12
ATOM     12  C   UNL     1       5.017  15.192  19.154  0.00  0.00    +0.000 A 
ATOM     13  C   UNL     1       5.855  14.589  18.212  0.00  0.00    +0.000 A 
ATOM     14  C   UNL     1       7.053  15.224  17.856  0.00  0.00    +0.000 A 
ATOM     15  C   UNL     1       7.392  16.458  18.421  0.00  0.00    +0.000 A 
ATOM     16  C   UNL     1       6.511  17.082  19.297  0.00  0.00    +0.000 A 
ATOM     17  C   UNL     1       5.354  16.440  19.686  0.00  0.00    +0.000 A 
ATOM     18  O   UNL     1       6.703  18.333  19.790  0.00  0.00    +0.000 OA
ATOM     19  C   UNL     1       8.080  18.483  20.065  0.00  0.00    +0.000 C 
ATOM     20  C   UNL     1       8.950  18.171  18.850  0.00  0.00    +0.000 C 
ATOM     21  O   UNL     1       8.601  16.999  18.096  0.00  0.00    +0.000 OA
ENDBRANCH  10  12
BRANCH   4  22
ATOM     22  C   UNL     1       0.317  11.126  21.189  0.00  0.00    +0.000 C 
ATOM     23  C   UNL     1       1.082  10.068  21.509  0.00  0.00    +0.000 C 
ATOM     24  C   UNL     1       0.788   9.159  22.659  0.00  0.00    +0.000 C 
ATOM     25  C   UNL     1      -0.651   9.288  23.159  0.00  0.00    +0.000 C 
ATOM     26  C   UNL     1      -1.064  10.752  23.282  0.00  0.00    +0.000 C 
ATOM     27  C   UNL     1      -0.946  11.481  21.938  0.00  0.00    +0.000 C 
ENDBRANCH   4  22
BRANCH   5  28
ATOM     28  C   UNL     1      -1.210  11.518  18.290  0.00  0.00    +0.000 A 
ATOM     29  C   UNL     1      -2.476  12.061  18.560  0.00  0.00    +0.000 A 
ATOM     30  C   UNL     1      -3.636  11.506  18.017  0.00  0.00    +0.000 A 
ATOM     31  C   UNL     1      -3.549  10.394  17.187  0.00  0.00    +0.000 A 
ATOM     32  C   UNL     1      -2.302   9.841  16.905  0.00  0.00    +0.000 A 
ATOM     33  C   UNL     1      -1.138  10.395  17.455  0.00  0.00    +0.000 A 
ENDBRANCH   5  28
BRANCH   1  34
ATOM     34  C   UNL     1       4.674  14.209  21.850  0.00  0.00    +0.000 C 
BRANCH  34  35
ATOM     35  N   UNL     1       4.143  14.583  23.167  0.00  0.00    +0.000 NA
ATOM     36  H   UNL     1       3.261  15.075  23.016  0.00  0.00    +0.000 HD
ATOM     37  H   UNL     1       4.762  15.285  23.574  0.00  0.00    +0.000 HD
ENDBRANCH  34  35
ENDBRANCH   1  34
TORSDOF 5
ENDMDL
MODEL 8
REMARK VINA RESULT:      -7.2      0.871      1.484
REMARK  Name = 
REMARK  5 active torsions:
REMARK  status: ('A' for Active; 'I' for Inactive)
REMARK    1  A    between atoms: N_1  and  C_2
REMARK    2  A    between atoms: C_2  and  C_3
REMARK    3  A    between atoms: C_6  and  C_7
REMARK    4  A    between atoms: C_13  and  C_14
REMARK    5  A    between atoms: C_24  and  C_25
REMARK                            x       y       z     vdW  Elec       q    Type
REMARK                         _______ _______ _______ _____ _____    ______ ____
ROOT
ATOM      1  C   UNL     1       3.112  14.583  21.170  0.00  0.00    +0.000 A 
ATOM      2  N   UNL     1       2.119  13.637  21.359  0.00  0.00    +0.000 N 
ATOM      3  C   UNL     1       1.330  13.223  20.349  0.00  0.00    +0.000 A 
ATOM      4  C   UNL     1       0.424  12.210  20.207  0.00  0.00    +0.000 A 
ATOM      5  C   UNL     1      -0.139  12.379  18.899  0.00  0.00    +0.000 A 
ATOM      6  N   UNL     1       0.492  13.382  18.246  0.00  0.00    +0.000 NA
ATOM      7  N   UNL     1       1.375  13.890  19.150  0.00  0.00    +0.000 N 
ATOM      8  C   UNL     1       2.253  14.955  18.870  0.00  0.00    +0.000 A 
ATOM      9  O   UNL     1       2.250  15.537  17.792  0.00  0.00    +0.000 OA
ATOM     10  C   UNL     1       3.230  15.243  19.989  0.00  0.00    +0.000 A 
ATOM     11  H   UNL     1       2.106  13.215  22.289  0.00  0.00    +0.000 HD
ENDROOT
BRANCH  10  12
ATOM     12  C   UNL     1       4.518  15.866  19.681  0.00  0.00    +0.000 A 
ATOM     13  C   UNL     1       4.851  17.210  19.872  0.00  0.00    +0.000 A 
ATOM     14  C   UNL     1       6.164  17.633  19.618  0.00  0.00    +0.000 A 
ATOM     15  C   UNL     1       7.133  16.713  19.202  0.00  0.00    +0.000 A 
ATOM     16  C   UNL     1       6.805  15.367  19.092  0.00  0.00    +0.000 A 
ATOM     17  C   UNL     1       5.505  14.954  19.295  0.00  0.00    +0.000 A 
ATOM     18  O   UNL     1       7.712  14.393  18.819  0.00  0.00    +0.000 OA
ATOM     19  C   UNL     1       8.618  14.903  17.864  0.00  0.00    +0.000 C 
ATOM     20  C   UNL     1       9.256  16.216  18.312  0.00  0.00    +0.000 C 
ATOM     21  O   UNL     1       8.375  17.187  18.899  0.00  0.00    +0.000 OA
ENDBRANCH  10  12
BRANCH   4  22
ATOM     22  C   UNL     1       0.143  11.261  21.234  0.00  0.00    +0.000 C 
ATOM     23  C   UNL     1      -0.740  11.506  22.217  0.00  0.00    +0.000 C 
ATOM     24  C   UNL     1      -1.064  10.522  23.294  0.00  0.00    +0.000 C 
ATOM     25  C   UNL     1      -0.019   9.414  23.414  0.00  0.00    +0.000 C 
ATOM     26  C   UNL     1       0.371   8.870  22.043  0.00  0.00    +0.000 C 
ATOM     27  C   UNL     1       0.931   9.976  21.141  0.00  0.00    +0.000 C 
ENDBRANCH   4  22
BRANCH   5  28
ATOM     28  C   UNL     1      -1.259  11.664  18.274  0.00  0.00    +0.000 A 
ATOM     29  C   UNL     1      -1.039  10.516  17.498  0.00  0.00    +0.000 A 
ATOM     30  C   UNL     1      -2.100   9.795  16.950  0.00  0.00    +0.000 A 
ATOM     31  C   UNL     1      -3.409  10.209  17.172  0.00  0.00    +0.000 A 
ATOM     32  C   UNL     1      -3.650  11.345  17.942  0.00  0.00    +0.000 A 
ATOM     33  C   UNL     1      -2.583  12.072  18.488  0.00  0.00    +0.000 A 
ENDBRANCH   5  28
BRANCH   1  34
ATOM     34  C   UNL     1       4.131  14.709  22.300  0.00  0.00    +0.000 C 
BRANCH  34  35
ATOM     35  N   UNL     1       4.833  13.446  22.563  0.00  0.00    +0.000 NA
ATOM     36  H   UNL     1       5.211  13.112  21.675  0.00  0.00    +0.000 HD
ATOM     37  H   UNL     1       4.142  12.745  22.828  0.00  0.00    +0.000 HD
ENDBRANCH  34  35
ENDBRANCH   1  34
TORSDOF 5
ENDMDL
MODEL 9
REMARK VINA RESULT:      -7.2      5.224      7.659
REMARK  Name = 
REMARK  5 active torsions:
REMARK  status: ('A' for Active; 'I' for Inactive)
REMARK    1  A    between atoms: N_1  and  C_2
REMARK    2  A    between atoms: C_2  and  C_3
REMARK    3  A    between atoms: C_6  and  C_7
REMARK    4  A    between atoms: C_13  and  C_14
REMARK    5  A    between atoms: C_24  and  C_25
REMARK                            x       y       z     vdW  Elec       q    Type
REMARK                         _______ _______ _______ _____ _____    ______ ____
ROOT
ATOM      1  C   UNL     1       0.603   8.661  20.266  0.00  0.00    +0.000 A 
ATOM      2  N   UNL     1       1.223   7.435  20.092  0.00  0.00    +0.000 N 
ATOM      3  C   UNL     1       2.210   7.258  19.194  0.00  0.00    +0.000 A 
ATOM      4  C   UNL     1       3.093   6.245  18.941  0.00  0.00    +0.000 A 
ATOM      5  C   UNL     1       3.825   6.657  17.779  0.00  0.00    +0.000 A 
ATOM      6  N   UNL     1       3.473   7.914  17.426  0.00  0.00    +0.000 NA
ATOM      7  N   UNL     1       2.481   8.258  18.293  0.00  0.00    +0.000 N 
ATOM      8  C   UNL     1       1.834   9.508  18.282  0.00  0.00    +0.000 A 
ATOM      9  O   UNL     1       2.091  10.370  17.450  0.00  0.00    +0.000 OA
ATOM     10  C   UNL     1       0.866   9.699  19.430  0.00  0.00    +0.000 A 
ATOM     11  H   UNL     1       0.939   6.717  20.762  0.00  0.00    +0.000 HD
ENDROOT
BRANCH  10  12
ATOM     12  C   UNL     1       0.565  11.050  19.905  0.00  0.00    +0.000 A 
ATOM     13  C   UNL     1      -0.706  11.624  20.007  0.00  0.00    +0.000 A 
ATOM     14  C   UNL     1      -0.837  12.899  20.575  0.00  0.00    +0.000 A 
ATOM     15  C   UNL     1       0.288  13.577  21.055  0.00  0.00    +0.000 A 
ATOM     16  C   UNL     1       1.533  12.960  21.018  0.00  0.00    +0.000 A 
ATOM     17  C   UNL     1       1.676  11.727  20.418  0.00  0.00    +0.000 A 
ATOM     18  O   UNL     1       2.652  13.493  21.575  0.00  0.00    +0.000 OA
ATOM     19  C   UNL     1       2.629  14.886  21.344  0.00  0.00    +0.000 C 
ATOM     20  C   UNL     1       1.338  15.534  21.838  0.00  0.00    +0.000 C 
ATOM     21  O   UNL     1       0.117  14.843  21.532  0.00  0.00    +0.000 OA
ENDBRANCH  10  12
BRANCH   4  22
ATOM     22  C   UNL     1       3.153   5.048  19.714  0.00  0.00    +0.000 C 
ATOM     23  C   UNL     1       4.187   4.194  19.637  0.00  0.00    +0.000 C 
ATOM     24  C   UNL     1       4.281   2.943  20.450  0.00  0.00    +0.000 C 
ATOM     25  C   UNL     1       2.936   2.522  21.042  0.00  0.00    +0.000 C 
ATOM     26  C   UNL     1       2.201   3.714  21.647  0.00  0.00    +0.000 C 
ATOM     27  C   UNL     1       1.955   4.809  20.603  0.00  0.00    +0.000 C 
ENDBRANCH   4  22
BRANCH   5  28
ATOM     28  C   UNL     1       4.799   5.899  16.983  0.00  0.00    +0.000 A 
ATOM     29  C   UNL     1       6.152   6.273  16.949  0.00  0.00    +0.000 A 
ATOM     30  C   UNL     1       7.096   5.525  16.246  0.00  0.00    +0.000 A 
ATOM     31  C   UNL     1       6.704   4.380  15.562  0.00  0.00    +0.000 A 
ATOM     32  C   UNL     1       5.367   3.989  15.584  0.00  0.00    +0.000 A 
ATOM     33  C   UNL     1       4.418   4.744  16.286  0.00  0.00    +0.000 A 
ENDBRANCH   5  28
BRANCH   1  34
ATOM     34  C   UNL     1      -0.248   8.800  21.526  0.00  0.00    +0.000 C 
BRANCH  34  35
ATOM     35  N   UNL     1       0.550   9.166  22.702  0.00  0.00    +0.000 NA
ATOM     36  H   UNL     1       1.253   9.843  22.401  0.00  0.00    +0.000 HD
ATOM     37  H   UNL     1       1.087   8.349  22.992  0.00  0.00    +0.000 HD
ENDBRANCH  34  35
ENDBRANCH   1  34
TORSDOF 5
ENDMDL
