MODEL 1
REMARK VINA RESULT:      -8.7      0.000      0.000
REMARK  Name = 
REMARK  7 active torsions:
REMARK  status: ('A' for Active; 'I' for Inactive)
REMARK    1  A    between atoms: C_2  and  C_3
REMARK    2  A    between atoms: C_6  and  C_7
REMARK    3  A    between atoms: C_7  and  N_8
REMARK    4  A    between atoms: C_12  and  C_13
REMARK    5  A    between atoms: C_13  and  O_14
REMARK    6  A    between atoms: O_14  and  C_15
REMARK    7  A    between atoms: C_21  and  C_22
REMARK                            x       y       z     vdW  Elec       q    Type
REMARK                         _______ _______ _______ _____ _____    ______ ____
ROOT
ATOM      1  C   UNL     1       2.484   7.658  18.040  0.00  0.00    +0.000 C 
ENDROOT
BRANCH   1   6
ATOM      2  N   UNL     1       1.110   9.271  19.488  0.00  0.00    +0.000 N 
ATOM      3  C   UNL     1       0.658   9.262  20.783  0.00  0.00    +0.000 A 
ATOM      4  N   UNL     1       1.077   8.208  21.440  0.00  0.00    +0.000 NA
ATOM      5  C   UNL     1       1.831   7.506  20.541  0.00  0.00    +0.000 A 
ATOM      6  C   UNL     1       1.852   8.122  19.304  0.00  0.00    +0.000 A 
BRANCH   2   7
ATOM      7  C   UNL     1       0.910  10.390  18.578  0.00  0.00    +0.000 C 
BRANCH   7  11
ATOM      8  C   UNL     1      -3.284  11.192  17.865  0.00  0.00    +0.000 A 
ATOM      9  C   UNL     1      -2.655  10.130  17.212  0.00  0.00    +0.000 A 
ATOM     10  C   UNL     1      -1.296   9.877  17.432  0.00  0.00    +0.000 A 
ATOM     11  C   UNL     1      -0.550  10.678  18.313  0.00  0.00    +0.000 A 
ATOM     12  C   UNL     1      -1.194  11.741  18.962  0.00  0.00    +0.000 A 
ATOM     13  C   UNL     1      -2.550  12.001  18.736  0.00  0.00    +0.000 A 
BRANCH   8  15
ATOM     14  N   UNL     1      -5.805  11.662  17.467  0.00  0.00    +0.000 NA
ATOM     15  C   UNL     1      -4.679  11.452  17.649  0.00  0.00    +0.000 C 
ENDBRANCH   8  15
ENDBRANCH   7  11
ENDBRANCH   2   7
ENDBRANCH   1   6
BRANCH   1  16
ATOM     16  O   UNL     1       3.667   6.948  18.393  0.00  0.00    +0.000 OA
BRANCH  16  17
ATOM     17  C   UNL     1       4.308   6.210  17.422  0.00  0.00    +0.000 A 
ATOM     18  C   UNL     1       5.277   6.761  16.567  0.00  0.00    +0.000 A 
ATOM     19  C   UNL     1       5.886   5.987  15.575  0.00  0.00    +0.000 A 
ATOM     20  C   UNL     1       5.534   4.655  15.436  0.00  0.00    +0.000 A 
ATOM     21 CL   UNL     1       6.276   3.697  14.215  0.00  0.00    +0.000 Cl
ATOM     22  C   UNL     1       4.582   4.089  16.281  0.00  0.00    +0.000 A 
ATOM     23  C   UNL     1       3.933   4.843  17.290  0.00  0.00    +0.000 A 
BRANCH  23  24
ATOM     24  C   UNL     1       2.912   4.170  18.150  0.00  0.00    +0.000 A 
ATOM     25  C   UNL     1       1.599   3.934  17.686  0.00  0.00    +0.000 A 
ATOM     26  C   UNL     1       0.646   3.268  18.467  0.00  0.00    +0.000 A 
ATOM     27  C   UNL     1       0.971   2.849  19.753  0.00  0.00    +0.000 A 
ATOM     28  C   UNL     1       2.248   3.086  20.242  0.00  0.00    +0.000 A 
ATOM     29 CL   UNL     1       2.660   2.599  21.842  0.00  0.00    +0.000 Cl
ATOM     30  C   UNL     1       3.209   3.714  19.447  0.00  0.00    +0.000 A 
ENDBRANCH  23  24
ENDBRANCH  16  17
ENDBRANCH   1  16
TORSDOF 7
ENDMDL
MODEL 2
REMARK VINA RESULT:      -8.6      0.636      1.088
REMARK  Name = 
REMARK  7 active torsions:
REMARK  status: ('A' for Active; 'I' for Inactive)
REMARK    1  A    between atoms: C_2  and  C_3
REMARK    2  A    between atoms: C_6  and  C_7
REMARK    3  A    between atoms: C_7  and  N_8
REMARK    4  A    between atoms: C_12  and  C_13
REMARK    5  A    between atoms: C_13  and  O_14
REMARK    6  A    between atoms: O_14  and  C_15
REMARK    7  A    between atoms: C_21  and  C_22
REMARK                            x       y       z     vdW  Elec       q    Type
REMARK                         _______ _______ _______ _____ _____    ______ ____
ROOT
ATOM      1  C   UNL     1       2.241   8.135  18.271  0.00  0.00    +0.000 C 
ENDROOT
BRANCH   1   6
ATOM      2  N   UNL     1       0.587   9.629  19.544  0.00  0.00    +0.000 N 
ATOM      3  C   UNL     1       0.123   9.677  20.834  0.00  0.00    +0.000 A 
ATOM      4  N   UNL     1       0.706   8.786  21.597  0.00  0.00    +0.000 NA
ATOM      5  C   UNL     1       1.585   8.134  20.776  0.00  0.00    +0.000 A 
ATOM      6  C   UNL     1       1.519   8.613  19.480  0.00  0.00    +0.000 A 
BRANCH   2   7
ATOM      7  C   UNL     1       0.212  10.596  18.521  0.00  0.00    +0.000 C 
BRANCH   7  11
ATOM      8  C   UNL     1      -4.068  11.114  18.126  0.00  0.00    +0.000 A 
ATOM      9  C   UNL     1      -3.326  12.001  18.908  0.00  0.00    +0.000 A 
ATOM     10  C   UNL     1      -1.944  11.827  19.047  0.00  0.00    +0.000 A 
ATOM     11  C   UNL     1      -1.285  10.770  18.399  0.00  0.00    +0.000 A 
ATOM     12  C   UNL     1      -2.041   9.887  17.616  0.00  0.00    +0.000 A 
ATOM     13  C   UNL     1      -3.424  10.054  17.484  0.00  0.00    +0.000 A 
BRANCH   8  15
ATOM     14  N   UNL     1      -6.628  11.435  17.843  0.00  0.00    +0.000 NA
ATOM     15  C   UNL     1      -5.484  11.292  17.973  0.00  0.00    +0.000 C 
ENDBRANCH   8  15
ENDBRANCH   7  11
ENDBRANCH   2   7
ENDBRANCH   1   6
BRANCH   1  16
ATOM     16  O   UNL     1       3.009   7.000  18.656  0.00  0.00    +0.000 OA
BRANCH  16  17
ATOM     17  C   UNL     1       3.797   6.384  17.709  0.00  0.00    +0.000 A 
ATOM     18  C   UNL     1       4.707   7.089  16.904  0.00  0.00    +0.000 A 
ATOM     19  C   UNL     1       5.469   6.433  15.934  0.00  0.00    +0.000 A 
ATOM     20  C   UNL     1       5.330   5.065  15.766  0.00  0.00    +0.000 A 
ATOM     21 CL   UNL     1       6.262   4.250  14.571  0.00  0.00    +0.000 Cl
ATOM     22  C   UNL     1       4.439   4.347  16.561  0.00  0.00    +0.000 A 
ATOM     23  C   UNL     1       3.640   4.978  17.546  0.00  0.00    +0.000 A 
BRANCH  23  24
ATOM     24  C   UNL     1       2.696   4.144  18.353  0.00  0.00    +0.000 A 
ATOM     25  C   UNL     1       1.475   3.684  17.813  0.00  0.00    +0.000 A 
ATOM     26  C   UNL     1       0.602   2.869  18.543  0.00  0.00    +0.000 A 
ATOM     27  C   UNL     1       0.911   2.518  19.854  0.00  0.00    +0.000 A 
ATOM     28  C   UNL     1       2.096   2.973  20.416  0.00  0.00    +0.000 A 
ATOM     29 CL   UNL     1       2.483   2.571  22.046  0.00  0.00    +0.000 Cl
ATOM     30  C   UNL     1       2.984   3.752  19.672  0.00  0.00    +0.000 A 
ENDBRANCH  23  24
ENDBRANCH  16  17
ENDBRANCH   1  16
TORSDOF 7
ENDMDL
MODEL 3
REMARK VINA RESULT:      -8.5      1.096      1.096
REMARK  Name = 
REMARK  7 active torsions:
REMARK  status: ('A' for Active; 'I' for Inactive)
REMARK    1  A    between atoms: C_2  and  C_3
REMARK    2  A    between atoms: C_6  and  C_7
REMARK    3  A    between atoms: C_7  and  N_8
REMARK    4  A    between atoms: C_12  and  C_13
REMARK    5  A    between atoms: C_13  and  O_14
REMARK    6  A    between atoms: O_14  and  C_15
REMARK    7  A    between atoms: C_21  and  C_22
REMARK                            x       y       z     vdW  Elec       q    Type
REMARK                         _______ _______ _______ _____ _____    ______ ____
ROOT
ATOM      1  C   UNL     1       2.352   8.279  17.893  0.00  0.00    +0.000 C 
ENDROOT
BRANCH   1   6
ATOM      2  N   UNL     1       0.950   9.581  19.604  0.00  0.00    +0.000 N 
ATOM      3  C   UNL     1       0.579   9.373  20.908  0.00  0.00    +0.000 A 
ATOM      4  N   UNL     1       1.115   8.284  21.401  0.00  0.00    +0.000 NA
ATOM      5  C   UNL     1       1.865   7.764  20.384  0.00  0.00    +0.000 A 
ATOM      6  C   UNL     1       1.765   8.529  19.237  0.00  0.00    +0.000 A 
BRANCH   2   7
ATOM      7  C   UNL     1       0.611  10.783  18.856  0.00  0.00    +0.000 C 
BRANCH   7  11
ATOM      8  C   UNL     1      -3.644  11.126  18.138  0.00  0.00    +0.000 A 
ATOM      9  C   UNL     1      -2.905  10.131  17.495  0.00  0.00    +0.000 A 
ATOM     10  C   UNL     1      -1.527  10.027  17.716  0.00  0.00    +0.000 A 
ATOM     11  C   UNL     1      -0.871  10.911  18.590  0.00  0.00    +0.000 A 
ATOM     12  C   UNL     1      -1.626  11.904  19.230  0.00  0.00    +0.000 A 
ATOM     13  C   UNL     1      -3.001  12.016  19.001  0.00  0.00    +0.000 A 
BRANCH   8  15
ATOM     14  N   UNL     1      -6.204  11.312  17.748  0.00  0.00    +0.000 NA
ATOM     15  C   UNL     1      -5.059  11.233  17.921  0.00  0.00    +0.000 C 
ENDBRANCH   8  15
ENDBRANCH   7  11
ENDBRANCH   2   7
ENDBRANCH   1   6
BRANCH   1  16
ATOM     16  O   UNL     1       2.504   6.870  17.752  0.00  0.00    +0.000 OA
BRANCH  16  17
ATOM     17  C   UNL     1       3.776   6.345  17.703  0.00  0.00    +0.000 A 
ATOM     18  C   UNL     1       4.877   7.069  17.216  0.00  0.00    +0.000 A 
ATOM     19  C   UNL     1       6.149   6.493  17.155  0.00  0.00    +0.000 A 
ATOM     20  C   UNL     1       6.329   5.190  17.586  0.00  0.00    +0.000 A 
ATOM     21 CL   UNL     1       7.891   4.471  17.512  0.00  0.00    +0.000 Cl
ATOM     22  C   UNL     1       5.251   4.458  18.081  0.00  0.00    +0.000 A 
ATOM     23  C   UNL     1       3.944   5.003  18.147  0.00  0.00    +0.000 A 
BRANCH  23  24
ATOM     24  C   UNL     1       2.834   4.153  18.678  0.00  0.00    +0.000 A 
ATOM     25  C   UNL     1       1.832   3.638  17.828  0.00  0.00    +0.000 A 
ATOM     26  C   UNL     1       0.810   2.808  18.305  0.00  0.00    +0.000 A 
ATOM     27  C   UNL     1       0.743   2.497  19.660  0.00  0.00    +0.000 A 
ATOM     28  C   UNL     1       1.705   3.007  20.521  0.00  0.00    +0.000 A 
ATOM     29 CL   UNL     1       1.622   2.655  22.205  0.00  0.00    +0.000 Cl
ATOM     30  C   UNL     1       2.746   3.801  20.036  0.00  0.00    +0.000 A 
ENDBRANCH  23  24
ENDBRANCH  16  17
ENDBRANCH   1  16
TORSDOF 7
ENDMDL
MODEL 4
REMARK VINA RESULT:      -8.3      3.054      5.368
REMARK  Name = 
REMARK  7 active torsions:
REMARK  status: ('A' for Active; 'I' for Inactive)
REMARK    1  A    between atoms: C_2  and  C_3
REMARK    2  A    between atoms: C_6  and  C_7
REMARK    3  A    between atoms: C_7  and  N_8
REMARK    4  A    between atoms: C_12  and  C_13
REMARK    5  A    between atoms: C_13  and  O_14
REMARK    6  A    between atoms: O_14  and  C_15
REMARK    7  A    between atoms: C_21  and  C_22
REMARK                            x       y       z     vdW  Elec       q    Type
REMARK                         _______ _______ _______ _____ _____    ______ ____
ROOT
ATOM      1  C   UNL     1       4.358   3.466  17.626  0.00  0.00    +0.000 C 
ENDROOT
BRANCH   1   6
ATOM      2  N   UNL     1       2.515   4.316  19.197  0.00  0.00    +0.000 N 
ATOM      3  C   UNL     1       1.237   3.917  19.492  0.00  0.00    +0.000 A 
ATOM      4  N   UNL     1       0.911   2.815  18.863  0.00  0.00    +0.000 NA
ATOM      5  C   UNL     1       2.018   2.481  18.133  0.00  0.00    +0.000 A 
ATOM      6  C   UNL     1       3.030   3.409  18.293  0.00  0.00    +0.000 A 
BRANCH   2   7
ATOM      7  C   UNL     1       3.181   5.429  19.860  0.00  0.00    +0.000 C 
BRANCH   7  11
ATOM      8  C   UNL     1       1.274   9.221  19.011  0.00  0.00    +0.000 A 
ATOM      9  C   UNL     1       1.999   8.566  18.015  0.00  0.00    +0.000 A 
ATOM     10  C   UNL     1       2.627   7.346  18.292  0.00  0.00    +0.000 A 
ATOM     11  C   UNL     1       2.530   6.761  19.565  0.00  0.00    +0.000 A 
ATOM     12  C   UNL     1       1.798   7.429  20.556  0.00  0.00    +0.000 A 
ATOM     13  C   UNL     1       1.179   8.654  20.284  0.00  0.00    +0.000 A 
BRANCH   8  15
ATOM     14  N   UNL     1       0.089  11.476  18.510  0.00  0.00    +0.000 NA
ATOM     15  C   UNL     1       0.622  10.469  18.731  0.00  0.00    +0.000 C 
ENDBRANCH   8  15
ENDBRANCH   7  11
ENDBRANCH   2   7
ENDBRANCH   1   6
BRANCH   1  16
ATOM     16  O   UNL     1       4.334   4.570  16.727  0.00  0.00    +0.000 OA
BRANCH  16  17
ATOM     17  C   UNL     1       5.058   4.484  15.558  0.00  0.00    +0.000 A 
ATOM     18  C   UNL     1       4.545   3.896  14.390  0.00  0.00    +0.000 A 
ATOM     19  C   UNL     1       5.318   3.802  13.230  0.00  0.00    +0.000 A 
ATOM     20  C   UNL     1       6.610   4.302  13.229  0.00  0.00    +0.000 A 
ATOM     21 CL   UNL     1       7.572   4.187  11.806  0.00  0.00    +0.000 Cl
ATOM     22  C   UNL     1       7.133   4.897  14.375  0.00  0.00    +0.000 A 
ATOM     23  C   UNL     1       6.384   4.999  15.574  0.00  0.00    +0.000 A 
BRANCH  23  24
ATOM     24  C   UNL     1       7.018   5.640  16.767  0.00  0.00    +0.000 A 
ATOM     25  C   UNL     1       7.427   4.876  17.882  0.00  0.00    +0.000 A 
ATOM     26  C   UNL     1       8.058   5.458  18.988  0.00  0.00    +0.000 A 
ATOM     27  C   UNL     1       8.266   6.833  19.026  0.00  0.00    +0.000 A 
ATOM     28  C   UNL     1       7.855   7.611  17.952  0.00  0.00    +0.000 A 
ATOM     29 CL   UNL     1       8.080   9.318  17.993  0.00  0.00    +0.000 Cl
ATOM     30  C   UNL     1       7.263   7.023  16.832  0.00  0.00    +0.000 A 
ENDBRANCH  23  24
ENDBRANCH  16  17
ENDBRANCH   1  16
TORSDOF 7
ENDMDL
MODEL 5
REMARK VINA RESULT:      -8.2      0.897      1.561
REMARK  Name = 
REMARK  7 active torsions:
REMARK  status: ('A' for Active; 'I' for Inactive)
REMARK    1  A    between atoms: C_2  and  C_3
REMARK    2  A    between atoms: C_6  and  C_7
REMARK    3  A    between atoms: C_7  and  N_8
REMARK    4  A    between atoms: C_12  and  C_13
REMARK    5  A    between atoms: C_13  and  O_14
REMARK    6  A    between atoms: O_14  and  C_15
REMARK    7  A    between atoms: C_21  and  C_22
REMARK                            x       y       z     vdW  Elec       q    Type
REMARK                         _______ _______ _______ _____ _____    ______ ____
ROOT
ATOM      1  C   UNL     1       2.525   7.485  17.864  0.00  0.00    +0.000 C 
ENDROOT
BRANCH   1   6
ATOM      2  N   UNL     1       1.228   9.083  19.398  0.00  0.00    +0.000 N 
ATOM      3  C   UNL     1       0.843   9.060  20.713  0.00  0.00    +0.000 A 
ATOM      4  N   UNL     1       1.293   7.998  21.336  0.00  0.00    +0.000 NA
ATOM      5  C   UNL     1       2.000   7.305  20.393  0.00  0.00    +0.000 A 
ATOM      6  C   UNL     1       1.959   7.936  19.163  0.00  0.00    +0.000 A 
BRANCH   2   7
ATOM      7  C   UNL     1       0.984  10.212  18.511  0.00  0.00    +0.000 C 
BRANCH   7  11
ATOM      8  C   UNL     1      -3.219  11.074  17.936  0.00  0.00    +0.000 A 
ATOM      9  C   UNL     1      -2.463  11.845  18.821  0.00  0.00    +0.000 A 
ATOM     10  C   UNL     1      -1.107  11.560  19.017  0.00  0.00    +0.000 A 
ATOM     11  C   UNL     1      -0.487  10.505  18.326  0.00  0.00    +0.000 A 
ATOM     12  C   UNL     1      -1.258   9.739  17.440  0.00  0.00    +0.000 A 
ATOM     13  C   UNL     1      -2.616  10.017  17.251  0.00  0.00    +0.000 A 
BRANCH   8  15
ATOM     14  N   UNL     1      -5.732  11.597  17.550  0.00  0.00    +0.000 NA
ATOM     15  C   UNL     1      -4.609  11.366  17.726  0.00  0.00    +0.000 C 
ENDBRANCH   8  15
ENDBRANCH   7  11
ENDBRANCH   2   7
ENDBRANCH   1   6
BRANCH   1  16
ATOM     16  O   UNL     1       3.736   6.791  18.147  0.00  0.00    +0.000 OA
BRANCH  16  17
ATOM     17  C   UNL     1       4.380   6.141  17.117  0.00  0.00    +0.000 A 
ATOM     18  C   UNL     1       5.013   6.826  16.066  0.00  0.00    +0.000 A 
ATOM     19  C   UNL     1       5.633   6.132  15.023  0.00  0.00    +0.000 A 
ATOM     20  C   UNL     1       5.629   4.747  15.028  0.00  0.00    +0.000 A 
ATOM     21 CL   UNL     1       6.386   3.884  13.747  0.00  0.00    +0.000 Cl
ATOM     22  C   UNL     1       5.015   4.050  16.067  0.00  0.00    +0.000 A 
ATOM     23  C   UNL     1       4.365   4.718  17.135  0.00  0.00    +0.000 A 
BRANCH  23  24
ATOM     24  C   UNL     1       3.717   3.903  18.208  0.00  0.00    +0.000 A 
ATOM     25  C   UNL     1       4.422   3.523  19.370  0.00  0.00    +0.000 A 
ATOM     26  C   UNL     1       3.815   2.794  20.401  0.00  0.00    +0.000 A 
ATOM     27  C   UNL     1       2.489   2.394  20.280  0.00  0.00    +0.000 A 
ATOM     28  C   UNL     1       1.777   2.737  19.139  0.00  0.00    +0.000 A 
ATOM     29 CL   UNL     1       0.142   2.227  18.960  0.00  0.00    +0.000 Cl
ATOM     30  C   UNL     1       2.372   3.498  18.131  0.00  0.00    +0.000 A 
ENDBRANCH  23  24
ENDBRANCH  16  17
ENDBRANCH   1  16
TORSDOF 7
ENDMDL
MODEL 6
REMARK VINA RESULT:      -8.1      1.767      3.753
REMARK  Name = 
REMARK  7 active torsions:
REMARK  status: ('A' for Active; 'I' for Inactive)
REMARK    1  A    between atoms: C_2  and  C_3
REMARK    2  A    between atoms: C_6  and  C_7
REMARK    3  A    between atoms: C_7  and  N_8
REMARK    4  A    between atoms: C_12  and  C_13
REMARK    5  A    between atoms: C_13  and  O_14
REMARK    6  A    between atoms: O_14  and  C_15
REMARK    7  A    between atoms: C_21  and  C_22
REMARK                            x       y       z     vdW  Elec       q    Type
REMARK                         _______ _______ _______ _____ _____    ______ ____
ROOT
ATOM      1  C   UNL     1       1.833   8.056  19.485  0.00  0.00    +0.000 C 
ENDROOT
BRANCH   1   6
ATOM      2  N   UNL     1       0.588  10.111  20.389  0.00  0.00    +0.000 N 
ATOM      3  C   UNL     1       0.224  10.549  21.636  0.00  0.00    +0.000 A 
ATOM      4  N   UNL     1       0.666   9.757  22.581  0.00  0.00    +0.000 NA
ATOM      5  C   UNL     1       1.346   8.768  21.927  0.00  0.00    +0.000 A 
ATOM      6  C   UNL     1       1.295   8.938  20.556  0.00  0.00    +0.000 A 
BRANCH   2   7
ATOM      7  C   UNL     1       0.348  10.872  19.170  0.00  0.00    +0.000 C 
BRANCH   7  11
ATOM      8  C   UNL     1      -3.872  11.216  18.264  0.00  0.00    +0.000 A 
ATOM      9  C   UNL     1      -3.115  10.193  17.690  0.00  0.00    +0.000 A 
ATOM     10  C   UNL     1      -1.749  10.088  17.972  0.00  0.00    +0.000 A 
ATOM     11  C   UNL     1      -1.122  10.999  18.838  0.00  0.00    +0.000 A 
ATOM     12  C   UNL     1      -1.893  12.022  19.408  0.00  0.00    +0.000 A 
ATOM     13  C   UNL     1      -3.257  12.134  19.119  0.00  0.00    +0.000 A 
BRANCH   8  15
ATOM     14  N   UNL     1      -6.408  11.410  17.751  0.00  0.00    +0.000 NA
ATOM     15  C   UNL     1      -5.275  11.325  17.984  0.00  0.00    +0.000 C 
ENDBRANCH   8  15
ENDBRANCH   7  11
ENDBRANCH   2   7
ENDBRANCH   1   6
BRANCH   1  16
ATOM     16  O   UNL     1       2.582   7.025  20.121  0.00  0.00    +0.000 OA
BRANCH  16  17
ATOM     17  C   UNL     1       2.245   5.714  19.870  0.00  0.00    +0.000 A 
ATOM     18  C   UNL     1       1.101   5.107  20.415  0.00  0.00    +0.000 A 
ATOM     19  C   UNL     1       0.806   3.765  20.160  0.00  0.00    +0.000 A 
ATOM     20  C   UNL     1       1.650   3.022  19.353  0.00  0.00    +0.000 A 
ATOM     21 CL   UNL     1       1.297   1.368  19.036  0.00  0.00    +0.000 Cl
ATOM     22  C   UNL     1       2.785   3.609  18.795  0.00  0.00    +0.000 A 
ATOM     23  C   UNL     1       3.125   4.962  19.041  0.00  0.00    +0.000 A 
BRANCH  23  24
ATOM     24  C   UNL     1       4.366   5.519  18.419  0.00  0.00    +0.000 A 
ATOM     25  C   UNL     1       4.327   6.198  17.181  0.00  0.00    +0.000 A 
ATOM     26  C   UNL     1       5.474   6.759  16.608  0.00  0.00    +0.000 A 
ATOM     27  C   UNL     1       6.705   6.626  17.243  0.00  0.00    +0.000 A 
ATOM     28  C   UNL     1       6.775   5.947  18.451  0.00  0.00    +0.000 A 
ATOM     29 CL   UNL     1       8.294   5.749  19.238  0.00  0.00    +0.000 Cl
ATOM     30  C   UNL     1       5.623   5.423  19.041  0.00  0.00    +0.000 A 
ENDBRANCH  23  24
ENDBRANCH  16  17
ENDBRANCH   1  16
TORSDOF 7
ENDMDL
MODEL 7
REMARK VINA RESULT:      -7.9      2.892      5.412
REMARK  Name = 
REMARK  7 active torsions:
REMARK  status: ('A' for Active; 'I' for Inactive)
REMARK    1  A    between atoms: C_2  and  C_3
REMARK    2  A    between atoms: C_6  and  C_7
REMARK    3  A    between atoms: C_7  and  N_8
REMARK    4  A    between atoms: C_12  and  C_13
REMARK    5  A    between atoms: C_13  and  O_14
REMARK    6  A    between atoms: O_14  and  C_15
REMARK    7  A    between atoms: C_21  and  C_22
REMARK                            x       y       z     vdW  Elec       q    Type
REMARK                         _______ _______ _______ _____ _____    ______ ____
ROOT
ATOM      1  C   UNL     1       4.490   3.328  17.778  0.00  0.00    +0.000 C 
ENDROOT
BRANCH   1   6
ATOM      2  N   UNL     1       2.456   4.098  19.141  0.00  0.00    +0.000 N 
ATOM      3  C   UNL     1       1.146   3.704  19.229  0.00  0.00    +0.000 A 
ATOM      4  N   UNL     1       0.899   2.657  18.480  0.00  0.00    +0.000 NA
ATOM      5  C   UNL     1       2.093   2.355  17.886  0.00  0.00    +0.000 A 
ATOM      6  C   UNL     1       3.082   3.249  18.251  0.00  0.00    +0.000 A 
BRANCH   2   7
ATOM      7  C   UNL     1       3.035   5.146  19.970  0.00  0.00    +0.000 C 
BRANCH   7  11
ATOM      8  C   UNL     1       1.419   9.076  19.142  0.00  0.00    +0.000 A 
ATOM      9  C   UNL     1       1.256   8.506  20.406  0.00  0.00    +0.000 A 
ATOM     10  C   UNL     1       1.767   7.230  20.671  0.00  0.00    +0.000 A 
ATOM     11  C   UNL     1       2.454   6.511  19.680  0.00  0.00    +0.000 A 
ATOM     12  C   UNL     1       2.612   7.096  18.415  0.00  0.00    +0.000 A 
ATOM     13  C   UNL     1       2.092   8.367  18.145  0.00  0.00    +0.000 A 
BRANCH   8  15
ATOM     14  N   UNL     1       0.492  11.450  18.648  0.00  0.00    +0.000 NA
ATOM     15  C   UNL     1       0.903  10.387  18.866  0.00  0.00    +0.000 C 
ENDBRANCH   8  15
ENDBRANCH   7  11
ENDBRANCH   2   7
ENDBRANCH   1   6
BRANCH   1  16
ATOM     16  O   UNL     1       4.620   4.533  17.031  0.00  0.00    +0.000 OA
BRANCH  16  17
ATOM     17  C   UNL     1       5.255   4.488  15.810  0.00  0.00    +0.000 A 
ATOM     18  C   UNL     1       4.734   3.788  14.709  0.00  0.00    +0.000 A 
ATOM     19  C   UNL     1       5.421   3.741  13.493  0.00  0.00    +0.000 A 
ATOM     20  C   UNL     1       6.633   4.399  13.368  0.00  0.00    +0.000 A 
ATOM     21 CL   UNL     1       7.489   4.344  11.877  0.00  0.00    +0.000 Cl
ATOM     22  C   UNL     1       7.162   5.106  14.447  0.00  0.00    +0.000 A 
ATOM     23  C   UNL     1       6.502   5.166  15.699  0.00  0.00    +0.000 A 
BRANCH  23  24
ATOM     24  C   UNL     1       7.137   5.934  16.814  0.00  0.00    +0.000 A 
ATOM     25  C   UNL     1       7.367   7.324  16.713  0.00  0.00    +0.000 A 
ATOM     26  C   UNL     1       7.923   8.061  17.765  0.00  0.00    +0.000 A 
ATOM     27  C   UNL     1       8.300   7.420  18.940  0.00  0.00    +0.000 A 
ATOM     28  C   UNL     1       8.103   6.050  19.059  0.00  0.00    +0.000 A 
ATOM     29 CL   UNL     1       8.589   5.235  20.496  0.00  0.00    +0.000 Cl
ATOM     30  C   UNL     1       7.511   5.324  18.024  0.00  0.00    +0.000 A 
ENDBRANCH  23  24
ENDBRANCH  16  17
ENDBRANCH   1  16
TORSDOF 7
ENDMDL
MODEL 8
REMARK VINA RESULT:      -7.9      2.140      3.163
REMARK  Name = 
REMARK  7 active torsions:
REMARK  status: ('A' for Active; 'I' for Inactive)
REMARK    1  A    between atoms: C_2  and  C_3
REMARK    2  A    between atoms: C_6  and  C_7
REMARK    3  A    between atoms: C_7  and  N_8
REMARK    4  A    between atoms: C_12  and  C_13
REMARK    5  A    between atoms: C_13  and  O_14
REMARK    6  A    between atoms: O_14  and  C_15
REMARK    7  A    between atoms: C_21  and  C_22
REMARK                            x       y       z     vdW  Elec       q    Type
REMARK                         _______ _______ _______ _____ _____    ______ ____
ROOT
ATOM      1  C   UNL     1       2.405   7.837  18.037  0.00  0.00    +0.000 C 
ENDROOT
BRANCH   1   6
ATOM      2  N   UNL     1       0.818   9.393  19.323  0.00  0.00    +0.000 N 
ATOM      3  C   UNL     1       0.366   9.459  20.615  0.00  0.00    +0.000 A 
ATOM      4  N   UNL     1       0.920   8.545  21.374  0.00  0.00    +0.000 NA
ATOM      5  C   UNL     1       1.767   7.861  20.547  0.00  0.00    +0.000 A 
ATOM      6  C   UNL     1       1.710   8.342  19.252  0.00  0.00    +0.000 A 
BRANCH   2   7
ATOM      7  C   UNL     1       0.474  10.374  18.303  0.00  0.00    +0.000 C 
BRANCH   7  11
ATOM      8  C   UNL     1       1.966  14.347  19.154  0.00  0.00    +0.000 A 
ATOM      9  C   UNL     1       2.794  13.408  18.537  0.00  0.00    +0.000 A 
ATOM     10  C   UNL     1       2.317  12.119  18.273  0.00  0.00    +0.000 A 
ATOM     11  C   UNL     1       1.004  11.755  18.614  0.00  0.00    +0.000 A 
ATOM     12  C   UNL     1       0.183  12.708  19.232  0.00  0.00    +0.000 A 
ATOM     13  C   UNL     1       0.662  13.994  19.506  0.00  0.00    +0.000 A 
BRANCH   8  15
ATOM     14  N   UNL     1       2.839  16.742  19.644  0.00  0.00    +0.000 NA
ATOM     15  C   UNL     1       2.447  15.673  19.421  0.00  0.00    +0.000 C 
ENDBRANCH   8  15
ENDBRANCH   7  11
ENDBRANCH   2   7
ENDBRANCH   1   6
BRANCH   1  16
ATOM     16  O   UNL     1       3.423   6.942  18.472  0.00  0.00    +0.000 OA
BRANCH  16  17
ATOM     17  C   UNL     1       4.117   6.222  17.525  0.00  0.00    +0.000 A 
ATOM     18  C   UNL     1       5.075   6.807  16.680  0.00  0.00    +0.000 A 
ATOM     19  C   UNL     1       5.741   6.051  15.712  0.00  0.00    +0.000 A 
ATOM     20  C   UNL     1       5.455   4.701  15.585  0.00  0.00    +0.000 A 
ATOM     21 CL   UNL     1       6.266   3.763  14.392  0.00  0.00    +0.000 Cl
ATOM     22  C   UNL     1       4.515   4.101  16.420  0.00  0.00    +0.000 A 
ATOM     23  C   UNL     1       3.811   4.837  17.405  0.00  0.00    +0.000 A 
BRANCH  23  24
ATOM     24  C   UNL     1       2.806   4.128  18.256  0.00  0.00    +0.000 A 
ATOM     25  C   UNL     1       1.525   3.799  17.762  0.00  0.00    +0.000 A 
ATOM     26  C   UNL     1       0.590   3.099  18.534  0.00  0.00    +0.000 A 
ATOM     27  C   UNL     1       0.900   2.737  19.841  0.00  0.00    +0.000 A 
ATOM     28  C   UNL     1       2.146   3.064  20.358  0.00  0.00    +0.000 A 
ATOM     29 CL   UNL     1       2.537   2.647  21.983  0.00  0.00    +0.000 Cl
ATOM     30  C   UNL     1       3.091   3.727  19.573  0.00  0.00    +0.000 A 
ENDBRANCH  23  24
ENDBRANCH  16  17
ENDBRANCH   1  16
TORSDOF 7
ENDMDL
MODEL 9
REMARK VINA RESULT:      -7.8      1.609      1.842
REMARK  Name = 
REMARK  7 active torsions:
REMARK  status: ('A' for Active; 'I' for Inactive)
REMARK    1  A    between atoms: C_2  and  C_3
REMARK    2  A    between atoms: C_6  and  C_7
REMARK    3  A    between atoms: C_7  and  N_8
REMARK    4  A    between atoms: C_12  and  C_13
REMARK    5  A    between atoms: C_13  and  O_14
REMARK    6  A    between atoms: O_14  and  C_15
REMARK    7  A    between atoms: C_21  and  C_22
REMARK                            x       y       z     vdW  Elec       q    Type
REMARK                         _______ _______ _______ _____ _____    ______ ____
ROOT
ATOM      1  C   UNL     1       2.080   8.179  17.838  0.00  0.00    +0.000 C 
ENDROOT
BRANCH   1   6
ATOM      2  N   UNL     1       0.916   9.674  19.571  0.00  0.00    +0.000 N 
ATOM      3  C   UNL     1       0.680   9.587  20.919  0.00  0.00    +0.000 A 
ATOM      4  N   UNL     1       1.226   8.518  21.443  0.00  0.00    +0.000 NA
ATOM      5  C   UNL     1       1.844   7.885  20.400  0.00  0.00    +0.000 A 
ATOM      6  C   UNL     1       1.649   8.561  19.210  0.00  0.00    +0.000 A 
BRANCH   2   7
ATOM      7  C   UNL     1       0.543  10.827  18.764  0.00  0.00    +0.000 C 
BRANCH   7  11
ATOM      8  C   UNL     1      -3.740  11.113  18.198  0.00  0.00    +0.000 A 
ATOM      9  C   UNL     1      -3.003  10.164  17.487  0.00  0.00    +0.000 A 
ATOM     10  C   UNL     1      -1.617  10.079  17.659  0.00  0.00    +0.000 A 
ATOM     11  C   UNL     1      -0.950  10.936  18.551  0.00  0.00    +0.000 A 
ATOM     12  C   UNL     1      -1.702  11.883  19.260  0.00  0.00    +0.000 A 
ATOM     13  C   UNL     1      -3.087  11.976  19.080  0.00  0.00    +0.000 A 
BRANCH   8  15
ATOM     14  N   UNL     1      -6.313  11.264  17.890  0.00  0.00    +0.000 NA
ATOM     15  C   UNL     1      -5.163  11.200  18.030  0.00  0.00    +0.000 C 
ENDBRANCH   8  15
ENDBRANCH   7  11
ENDBRANCH   2   7
ENDBRANCH   1   6
BRANCH   1  16
ATOM     16  O   UNL     1       2.436   6.801  17.874  0.00  0.00    +0.000 OA
BRANCH  16  17
ATOM     17  C   UNL     1       3.769   6.467  17.973  0.00  0.00    +0.000 A 
ATOM     18  C   UNL     1       4.783   7.196  17.330  0.00  0.00    +0.000 A 
ATOM     19  C   UNL     1       6.123   6.810  17.431  0.00  0.00    +0.000 A 
ATOM     20  C   UNL     1       6.457   5.694  18.180  0.00  0.00    +0.000 A 
ATOM     21 CL   UNL     1       8.103   5.209  18.306  0.00  0.00    +0.000 Cl
ATOM     22  C   UNL     1       5.465   4.963  18.832  0.00  0.00    +0.000 A 
ATOM     23  C   UNL     1       4.096   5.315  18.743  0.00  0.00    +0.000 A 
BRANCH  23  24
ATOM     24  C   UNL     1       3.087   4.475  19.460  0.00  0.00    +0.000 A 
ATOM     25  C   UNL     1       2.969   4.508  20.866  0.00  0.00    +0.000 A 
ATOM     26  C   UNL     1       2.002   3.757  21.546  0.00  0.00    +0.000 A 
ATOM     27  C   UNL     1       1.145   2.922  20.837  0.00  0.00    +0.000 A 
ATOM     28  C   UNL     1       1.252   2.857  19.454  0.00  0.00    +0.000 A 
ATOM     29 CL   UNL     1       0.217   1.808  18.561  0.00  0.00    +0.000 Cl
ATOM     30  C   UNL     1       2.190   3.636  18.775  0.00  0.00    +0.000 A 
ENDBRANCH  23  24
ENDBRANCH  16  17
ENDBRANCH   1  16
TORSDOF 7
ENDMDL
