MODEL 1
REMARK VINA RESULT:      -8.7      0.000      0.000
REMARK  Name = 
REMARK  9 active torsions:
REMARK  status: ('A' for Active; 'I' for Inactive)
REMARK    1  A    between atoms: C_1  and  C_2
REMARK    2  A    between atoms: C_7  and  C_8
REMARK    3  A    between atoms: C_7  and  C_24
REMARK    4  A    between atoms: C_10  and  C_11
REMARK    5  A    between atoms: C_18  and  C_19
REMARK    6  A    between atoms: C_24  and  C_25
REMARK    7  A    between atoms: C_24  and  C_26
REMARK    8  A    between atoms: C_27  and  C_28
REMARK    9  A    between atoms: C_30  and  N_31
REMARK                            x       y       z     vdW  Elec       q    Type
REMARK                         _______ _______ _______ _____ _____    ______ ____
ROOT
ATOM      1  C   UNL     1       2.407   8.250  17.772  0.00  0.00    +0.000 C 
ATOM      2  C   UNL     1       2.196   7.345  18.936  0.00  0.00    +0.000 A 
ATOM      3  N   UNL     1       1.699   7.881  20.105  0.00  0.00    +0.000 N 
ATOM      4  N   UNL     1       1.642   7.016  21.123  0.00  0.00    +0.000 NA
ATOM      5  C   UNL     1       2.121   5.905  20.584  0.00  0.00    +0.000 A 
ATOM      6  C   UNL     1       2.461   6.000  19.220  0.00  0.00    +0.000 A 
ATOM      7  C   UNL     1       3.011   4.772  18.480  0.00  0.00    +0.000 C 
ATOM      8  C   UNL     1       3.150   3.584  19.520  0.00  0.00    +0.000 C 
ATOM      9  C   UNL     1       2.816   3.684  20.832  0.00  0.00    +0.000 C 
ATOM     10  O   UNL     1       2.263   4.833  21.374  0.00  0.00    +0.000 OA
ATOM     11  H   UNL     1       1.423   8.842  20.282  0.00  0.00    +0.000 HD
ENDROOT
BRANCH   7  12
ATOM     12  C   UNL     1       4.457   5.131  17.982  0.00  0.00    +0.000 A 
ATOM     13  C   UNL     1       4.750   5.174  16.598  0.00  0.00    +0.000 A 
ATOM     14  C   UNL     1       6.073   5.194  16.088  0.00  0.00    +0.000 A 
ATOM     15  C   UNL     1       7.121   5.407  16.995  0.00  0.00    +0.000 A 
ATOM     16  C   UNL     1       6.879   5.459  18.369  0.00  0.00    +0.000 A 
ATOM     17  C   UNL     1       5.570   5.253  18.834  0.00  0.00    +0.000 A 
BRANCH  14  18
ATOM     18  C   UNL     1       6.370   4.861  14.675  0.00  0.00    +0.000 A 
ATOM     19  C   UNL     1       5.641   3.905  13.984  0.00  0.00    +0.000 A 
ATOM     20  C   UNL     1       6.074   3.578  12.720  0.00  0.00    +0.000 A 
ATOM     21  N   UNL     1       7.152   4.133  12.146  0.00  0.00    +0.000 NA
ATOM     22  C   UNL     1       7.800   5.038  12.893  0.00  0.00    +0.000 A 
ATOM     23  N   UNL     1       7.467   5.434  14.134  0.00  0.00    +0.000 NA
ENDBRANCH  14  18
BRANCH  16  24
ATOM     24  C   UNL     1       7.985   5.678  19.372  0.00  0.00    +0.000 C 
ATOM     25  F   UNL     1       7.575   5.642  20.668  0.00  0.00    +0.000 F 
ATOM     26  F   UNL     1       8.968   4.739  19.262  0.00  0.00    +0.000 F 
ATOM     27  F   UNL     1       8.605   6.879  19.206  0.00  0.00    +0.000 F 
ENDBRANCH  16  24
ENDBRANCH   7  12
BRANCH   7  28
ATOM     28  C   UNL     1       2.003   4.301  17.344  0.00  0.00    +0.000 C 
ATOM     29  C   UNL     1       2.637   3.288  16.361  0.00  0.00    +0.000 C 
ATOM     30  C   UNL     1       0.680   3.708  17.833  0.00  0.00    +0.000 C 
ENDBRANCH   7  28
BRANCH   9  31
ATOM     31  N   UNL     1       2.963   2.682  21.769  0.00  0.00    +0.000 N 
ATOM     32  H   UNL     1       2.122   2.209  22.085  0.00  0.00    +0.000 HD
ATOM     33  H   UNL     1       3.602   2.940  22.519  0.00  0.00    +0.000 HD
ENDBRANCH   9  31
BRANCH   8  34
ATOM     34  C   UNL     1       3.625   2.313  19.059  0.00  0.00    +0.000 C 
ATOM     35  N   UNL     1       3.997   1.268  18.714  0.00  0.00    +0.000 NA
ENDBRANCH   8  34
TORSDOF 6
ENDMDL
MODEL 2
REMARK VINA RESULT:      -7.2      9.110     11.580
REMARK  Name = 
REMARK  9 active torsions:
REMARK  status: ('A' for Active; 'I' for Inactive)
REMARK    1  A    between atoms: C_1  and  C_2
REMARK    2  A    between atoms: C_7  and  C_8
REMARK    3  A    between atoms: C_7  and  C_24
REMARK    4  A    between atoms: C_10  and  C_11
REMARK    5  A    between atoms: C_18  and  C_19
REMARK    6  A    between atoms: C_24  and  C_25
REMARK    7  A    between atoms: C_24  and  C_26
REMARK    8  A    between atoms: C_27  and  C_28
REMARK    9  A    between atoms: C_30  and  N_31
REMARK                            x       y       z     vdW  Elec       q    Type
REMARK                         _______ _______ _______ _____ _____    ______ ____
ROOT
ATOM      1  C   UNL     1      -0.161  15.709  22.253  0.00  0.00    +0.000 C 
ATOM      2  C   UNL     1      -1.194  15.255  23.226  0.00  0.00    +0.000 A 
ATOM      3  N   UNL     1      -0.965  15.458  24.571  0.00  0.00    +0.000 N 
ATOM      4  N   UNL     1      -1.896  14.926  25.370  0.00  0.00    +0.000 NA
ATOM      5  C   UNL     1      -2.732  14.368  24.508  0.00  0.00    +0.000 A 
ATOM      6  C   UNL     1      -2.399  14.548  23.150  0.00  0.00    +0.000 A 
ATOM      7  C   UNL     1      -3.302  13.961  22.056  0.00  0.00    +0.000 C 
ATOM      8  C   UNL     1      -4.474  13.156  22.755  0.00  0.00    +0.000 C 
ATOM      9  C   UNL     1      -4.617  13.042  24.100  0.00  0.00    +0.000 C 
ATOM     10  O   UNL     1      -3.770  13.676  24.994  0.00  0.00    +0.000 OA
ATOM     11  H   UNL     1      -0.169  15.914  25.006  0.00  0.00    +0.000 HD
ENDROOT
BRANCH   7  12
ATOM     12  C   UNL     1      -2.443  12.927  21.241  0.00  0.00    +0.000 A 
ATOM     13  C   UNL     1      -2.707  12.697  19.869  0.00  0.00    +0.000 A 
ATOM     14  C   UNL     1      -2.186  11.587  19.158  0.00  0.00    +0.000 A 
ATOM     15  C   UNL     1      -1.193  10.817  19.782  0.00  0.00    +0.000 A 
ATOM     16  C   UNL     1      -0.831  11.055  21.108  0.00  0.00    +0.000 A 
ATOM     17  C   UNL     1      -1.508  12.054  21.826  0.00  0.00    +0.000 A 
BRANCH  14  18
ATOM     18  C   UNL     1      -2.758  11.153  17.862  0.00  0.00    +0.000 A 
ATOM     19  C   UNL     1      -2.047  10.344  16.988  0.00  0.00    +0.000 A 
ATOM     20  C   UNL     1      -2.613  10.100  15.758  0.00  0.00    +0.000 A 
ATOM     21  N   UNL     1      -3.796  10.606  15.379  0.00  0.00    +0.000 NA
ATOM     22  C   UNL     1      -4.404  11.385  16.285  0.00  0.00    +0.000 A 
ATOM     23  N   UNL     1      -3.947  11.690  17.512  0.00  0.00    +0.000 NA
ENDBRANCH  14  18
BRANCH  16  24
ATOM     24  C   UNL     1       0.227  10.240  21.811  0.00  0.00    +0.000 C 
ATOM     25  F   UNL     1       1.499  10.659  21.576  0.00  0.00    +0.000 F 
ATOM     26  F   UNL     1       0.068  10.257  23.165  0.00  0.00    +0.000 F 
ATOM     27  F   UNL     1       0.190   8.926  21.454  0.00  0.00    +0.000 F 
ENDBRANCH  16  24
ENDBRANCH   7  12
BRANCH   7  28
ATOM     28  C   UNL     1      -3.964  15.120  21.190  0.00  0.00    +0.000 C 
ATOM     29  C   UNL     1      -4.918  16.016  22.015  0.00  0.00    +0.000 C 
ATOM     30  C   UNL     1      -2.987  16.038  20.451  0.00  0.00    +0.000 C 
ENDBRANCH   7  28
BRANCH   9  31
ATOM     31  N   UNL     1      -5.602  12.316  24.737  0.00  0.00    +0.000 N 
ATOM     32  H   UNL     1      -6.167  12.799  25.429  0.00  0.00    +0.000 HD
ATOM     33  H   UNL     1      -5.280  11.396  25.031  0.00  0.00    +0.000 HD
ENDBRANCH   9  31
BRANCH   8  34
ATOM     34  C   UNL     1      -5.469  12.531  21.934  0.00  0.00    +0.000 C 
ATOM     35  N   UNL     1      -6.287  12.005  21.298  0.00  0.00    +0.000 NA
ENDBRANCH   8  34
TORSDOF 6
ENDMDL
MODEL 3
REMARK VINA RESULT:      -7.2      8.049     12.176
REMARK  Name = 
REMARK  9 active torsions:
REMARK  status: ('A' for Active; 'I' for Inactive)
REMARK    1  A    between atoms: C_1  and  C_2
REMARK    2  A    between atoms: C_7  and  C_8
REMARK    3  A    between atoms: C_7  and  C_24
REMARK    4  A    between atoms: C_10  and  C_11
REMARK    5  A    between atoms: C_18  and  C_19
REMARK    6  A    between atoms: C_24  and  C_25
REMARK    7  A    between atoms: C_24  and  C_26
REMARK    8  A    between atoms: C_27  and  C_28
REMARK    9  A    between atoms: C_30  and  N_31
REMARK                            x       y       z     vdW  Elec       q    Type
REMARK                         _______ _______ _______ _____ _____    ______ ____
ROOT
ATOM      1  C   UNL     1       0.392   9.688  18.623  0.00  0.00    +0.000 C 
ATOM      2  C   UNL     1       0.358  10.264  19.997  0.00  0.00    +0.000 A 
ATOM      3  N   UNL     1       0.794   9.485  21.048  0.00  0.00    +0.000 N 
ATOM      4  N   UNL     1       0.629  10.047  22.250  0.00  0.00    +0.000 NA
ATOM      5  C   UNL     1       0.068  11.209  21.951  0.00  0.00    +0.000 A 
ATOM      6  C   UNL     1      -0.110  11.450  20.574  0.00  0.00    +0.000 A 
ATOM      7  C   UNL     1      -0.735  12.771  20.102  0.00  0.00    +0.000 C 
ATOM      8  C   UNL     1      -1.138  13.616  21.381  0.00  0.00    +0.000 C 
ATOM      9  C   UNL     1      -0.935  13.202  22.658  0.00  0.00    +0.000 C 
ATOM     10  O   UNL     1      -0.296  12.010  22.960  0.00  0.00    +0.000 OA
ATOM     11  H   UNL     1       1.174   8.544  21.011  0.00  0.00    +0.000 HD
ENDROOT
BRANCH   7  12
ATOM     12  C   UNL     1      -2.061  12.417  19.336  0.00  0.00    +0.000 A 
ATOM     13  C   UNL     1      -3.320  12.613  19.952  0.00  0.00    +0.000 A 
ATOM     14  C   UNL     1      -4.521  12.049  19.452  0.00  0.00    +0.000 A 
ATOM     15  C   UNL     1      -4.488  11.465  18.177  0.00  0.00    +0.000 A 
ATOM     16  C   UNL     1      -3.285  11.323  17.485  0.00  0.00    +0.000 A 
ATOM     17  C   UNL     1      -2.094  11.738  18.105  0.00  0.00    +0.000 A 
BRANCH  14  18
ATOM     18  C   UNL     1      -5.740  11.940  20.287  0.00  0.00    +0.000 A 
ATOM     19  C   UNL     1      -5.893  12.680  21.450  0.00  0.00    +0.000 A 
ATOM     20  C   UNL     1      -7.002  12.416  22.221  0.00  0.00    +0.000 A 
ATOM     21  N   UNL     1      -7.916  11.488  21.900  0.00  0.00    +0.000 NA
ATOM     22  C   UNL     1      -7.678  10.816  20.765  0.00  0.00    +0.000 A 
ATOM     23  N   UNL     1      -6.634  10.990  19.936  0.00  0.00    +0.000 NA
ENDBRANCH  14  18
BRANCH  16  24
ATOM     24  C   UNL     1      -3.214  10.692  16.116  0.00  0.00    +0.000 C 
ATOM     25  F   UNL     1      -2.434  11.368  15.232  0.00  0.00    +0.000 F 
ATOM     26  F   UNL     1      -2.716   9.423  16.164  0.00  0.00    +0.000 F 
ATOM     27  F   UNL     1      -4.440  10.583  15.532  0.00  0.00    +0.000 F 
ENDBRANCH  16  24
ENDBRANCH   7  12
BRANCH   7  28
ATOM     28  C   UNL     1       0.317  13.627  19.271  0.00  0.00    +0.000 C 
ATOM     29  C   UNL     1      -0.331  14.821  18.530  0.00  0.00    +0.000 C 
ATOM     30  C   UNL     1       1.510  14.165  20.065  0.00  0.00    +0.000 C 
ENDBRANCH   7  28
BRANCH   9  31
ATOM     31  N   UNL     1      -1.310  13.896  23.788  0.00  0.00    +0.000 N 
ATOM     32  H   UNL     1      -0.812  13.694  24.650  0.00  0.00    +0.000 HD
ATOM     33  H   UNL     1      -2.322  13.948  23.896  0.00  0.00    +0.000 HD
ENDBRANCH   9  31
BRANCH   8  34
ATOM     34  C   UNL     1      -1.725  14.911  21.197  0.00  0.00    +0.000 C 
ATOM     35  N   UNL     1      -2.228  15.950  21.067  0.00  0.00    +0.000 NA
ENDBRANCH   8  34
TORSDOF 6
ENDMDL
MODEL 4
REMARK VINA RESULT:      -7.2      8.430     12.111
REMARK  Name = 
REMARK  9 active torsions:
REMARK  status: ('A' for Active; 'I' for Inactive)
REMARK    1  A    between atoms: C_1  and  C_2
REMARK    2  A    between atoms: C_7  and  C_8
REMARK    3  A    between atoms: C_7  and  C_24
REMARK    4  A    between atoms: C_10  and  C_11
REMARK    5  A    between atoms: C_18  and  C_19
REMARK    6  A    between atoms: C_24  and  C_25
REMARK    7  A    between atoms: C_24  and  C_26
REMARK    8  A    between atoms: C_27  and  C_28
REMARK    9  A    between atoms: C_30  and  N_31
REMARK                            x       y       z     vdW  Elec       q    Type
REMARK                         _______ _______ _______ _____ _____    ______ ____
ROOT
ATOM      1  C   UNL     1      -0.450   8.942  20.181  0.00  0.00    +0.000 C 
ATOM      2  C   UNL     1      -0.380   9.997  21.231  0.00  0.00    +0.000 A 
ATOM      3  N   UNL     1      -0.280   9.608  22.550  0.00  0.00    +0.000 N 
ATOM      4  N   UNL     1      -0.328  10.620  23.423  0.00  0.00    +0.000 NA
ATOM      5  C   UNL     1      -0.468  11.675  22.635  0.00  0.00    +0.000 A 
ATOM      6  C   UNL     1      -0.476  11.393  21.254  0.00  0.00    +0.000 A 
ATOM      7  C   UNL     1      -0.616  12.538  20.240  0.00  0.00    +0.000 C 
ATOM      8  C   UNL     1      -0.802  13.893  21.040  0.00  0.00    +0.000 C 
ATOM      9  C   UNL     1      -0.820  13.977  22.395  0.00  0.00    +0.000 C 
ATOM     10  O   UNL     1      -0.616  12.875  23.210  0.00  0.00    +0.000 OA
ATOM     11  H   UNL     1      -0.220   8.664  22.918  0.00  0.00    +0.000 HD
ENDROOT
BRANCH   7  12
ATOM     12  C   UNL     1      -1.937  12.288  19.426  0.00  0.00    +0.000 A 
ATOM     13  C   UNL     1      -3.199  12.567  20.003  0.00  0.00    +0.000 A 
ATOM     14  C   UNL     1      -4.419  12.095  19.456  0.00  0.00    +0.000 A 
ATOM     15  C   UNL     1      -4.385  11.523  18.176  0.00  0.00    +0.000 A 
ATOM     16  C   UNL     1      -3.172  11.302  17.522  0.00  0.00    +0.000 A 
ATOM     17  C   UNL     1      -1.977  11.624  18.186  0.00  0.00    +0.000 A 
BRANCH  14  18
ATOM     18  C   UNL     1      -5.670  12.066  20.249  0.00  0.00    +0.000 A 
ATOM     19  C   UNL     1      -5.843  12.871  21.365  0.00  0.00    +0.000 A 
ATOM     20  C   UNL     1      -6.986  12.679  22.106  0.00  0.00    +0.000 A 
ATOM     21  N   UNL     1      -7.916  11.762  21.800  0.00  0.00    +0.000 NA
ATOM     22  C   UNL     1      -7.658  11.023  20.712  0.00  0.00    +0.000 A 
ATOM     23  N   UNL     1      -6.579  11.123  19.915  0.00  0.00    +0.000 NA
ENDBRANCH  14  18
BRANCH  16  24
ATOM     24  C   UNL     1      -3.100  10.681  16.149  0.00  0.00    +0.000 C 
ATOM     25  F   UNL     1      -2.543   9.440  16.128  0.00  0.00    +0.000 F 
ATOM     26  F   UNL     1      -4.333  10.550  15.582  0.00  0.00    +0.000 F 
ATOM     27  F   UNL     1      -2.374  11.435  15.277  0.00  0.00    +0.000 F 
ENDBRANCH  16  24
ENDBRANCH   7  12
BRANCH   7  28
ATOM     28  C   UNL     1       0.703  12.675  19.361  0.00  0.00    +0.000 C 
ATOM     29  C   UNL     1       1.941  13.081  20.195  0.00  0.00    +0.000 C 
ATOM     30  C   UNL     1       1.082  11.444  18.535  0.00  0.00    +0.000 C 
ENDBRANCH   7  28
BRANCH   9  31
ATOM     31  N   UNL     1      -1.019  15.134  23.118  0.00  0.00    +0.000 N 
ATOM     32  H   UNL     1      -1.423  15.043  24.045  0.00  0.00    +0.000 HD
ATOM     33  H   UNL     1      -1.430  15.878  22.557  0.00  0.00    +0.000 HD
ENDBRANCH   9  31
BRANCH   8  34
ATOM     34  C   UNL     1      -0.931  15.118  20.306  0.00  0.00    +0.000 C 
ATOM     35  N   UNL     1      -1.000  16.109  19.704  0.00  0.00    +0.000 NA
ENDBRANCH   8  34
TORSDOF 6
ENDMDL
MODEL 5
REMARK VINA RESULT:      -7.1      8.352     11.271
REMARK  Name = 
REMARK  9 active torsions:
REMARK  status: ('A' for Active; 'I' for Inactive)
REMARK    1  A    between atoms: C_1  and  C_2
REMARK    2  A    between atoms: C_7  and  C_8
REMARK    3  A    between atoms: C_7  and  C_24
REMARK    4  A    between atoms: C_10  and  C_11
REMARK    5  A    between atoms: C_18  and  C_19
REMARK    6  A    between atoms: C_24  and  C_25
REMARK    7  A    between atoms: C_24  and  C_26
REMARK    8  A    between atoms: C_27  and  C_28
REMARK    9  A    between atoms: C_30  and  N_31
REMARK                            x       y       z     vdW  Elec       q    Type
REMARK                         _______ _______ _______ _____ _____    ______ ____
ROOT
ATOM      1  C   UNL     1      -4.899  12.728  21.478  0.00  0.00    +0.000 C 
ATOM      2  C   UNL     1      -4.196  14.019  21.237  0.00  0.00    +0.000 A 
ATOM      3  N   UNL     1      -4.911  15.068  20.700  0.00  0.00    +0.000 N 
ATOM      4  N   UNL     1      -4.173  16.148  20.423  0.00  0.00    +0.000 NA
ATOM      5  C   UNL     1      -2.958  15.769  20.789  0.00  0.00    +0.000 A 
ATOM      6  C   UNL     1      -2.876  14.474  21.338  0.00  0.00    +0.000 A 
ATOM      7  C   UNL     1      -1.522  13.929  21.815  0.00  0.00    +0.000 C 
ATOM      8  C   UNL     1      -0.409  15.009  21.496  0.00  0.00    +0.000 C 
ATOM      9  C   UNL     1      -0.661  16.206  20.906  0.00  0.00    +0.000 C 
ATOM     10  O   UNL     1      -1.944  16.617  20.578  0.00  0.00    +0.000 OA
ATOM     11  H   UNL     1      -5.898  15.092  20.460  0.00  0.00    +0.000 HD
ENDROOT
BRANCH   7  12
ATOM     12  C   UNL     1      -1.199  12.653  20.956  0.00  0.00    +0.000 A 
ATOM     13  C   UNL     1      -1.662  12.550  19.622  0.00  0.00    +0.000 A 
ATOM     14  C   UNL     1      -1.669  11.330  18.899  0.00  0.00    +0.000 A 
ATOM     15  C   UNL     1      -0.983  10.238  19.451  0.00  0.00    +0.000 A 
ATOM     16  C   UNL     1      -0.431  10.312  20.730  0.00  0.00    +0.000 A 
ATOM     17  C   UNL     1      -0.609  11.488  21.478  0.00  0.00    +0.000 A 
BRANCH  14  18
ATOM     18  C   UNL     1      -2.486  11.153  17.675  0.00  0.00    +0.000 A 
ATOM     19  C   UNL     1      -3.782  11.639  17.589  0.00  0.00    +0.000 A 
ATOM     20  C   UNL     1      -4.499  11.314  16.461  0.00  0.00    +0.000 A 
ATOM     21  N   UNL     1      -4.006  10.560  15.467  0.00  0.00    +0.000 NA
ATOM     22  C   UNL     1      -2.750  10.127  15.644  0.00  0.00    +0.000 A 
ATOM     23  N   UNL     1      -1.958  10.381  16.700  0.00  0.00    +0.000 NA
ENDBRANCH  14  18
BRANCH  16  24
ATOM     24  C   UNL     1       0.305   9.153  21.356  0.00  0.00    +0.000 C 
ATOM     25  F   UNL     1       1.369   8.713  20.632  0.00  0.00    +0.000 F 
ATOM     26  F   UNL     1       0.792   9.464  22.591  0.00  0.00    +0.000 F 
ATOM     27  F   UNL     1      -0.499   8.068  21.542  0.00  0.00    +0.000 F 
ENDBRANCH  16  24
ENDBRANCH   7  12
BRANCH   7  28
ATOM     28  C   UNL     1      -1.531  13.698  23.389  0.00  0.00    +0.000 C 
ATOM     29  C   UNL     1      -1.859  14.984  24.183  0.00  0.00    +0.000 C 
ATOM     30  C   UNL     1      -2.460  12.590  23.893  0.00  0.00    +0.000 C 
ENDBRANCH   7  28
BRANCH   9  31
ATOM     31  N   UNL     1       0.290  17.149  20.579  0.00  0.00    +0.000 N 
ATOM     32  H   UNL     1       1.034  17.316  21.250  0.00  0.00    +0.000 HD
ATOM     33  H   UNL     1      -0.118  17.997  20.191  0.00  0.00    +0.000 HD
ENDBRANCH   9  31
BRANCH   8  34
ATOM     34  C   UNL     1       0.948  14.738  21.872  0.00  0.00    +0.000 C 
ATOM     35  N   UNL     1       2.052  14.503  22.145  0.00  0.00    +0.000 NA
ENDBRANCH   8  34
TORSDOF 6
ENDMDL
MODEL 6
REMARK VINA RESULT:      -7.1      7.655     10.724
REMARK  Name = 
REMARK  9 active torsions:
REMARK  status: ('A' for Active; 'I' for Inactive)
REMARK    1  A    between atoms: C_1  and  C_2
REMARK    2  A    between atoms: C_7  and  C_8
REMARK    3  A    between atoms: C_7  and  C_24
REMARK    4  A    between atoms: C_10  and  C_11
REMARK    5  A    between atoms: C_18  and  C_19
REMARK    6  A    between atoms: C_24  and  C_25
REMARK    7  A    between atoms: C_24  and  C_26
REMARK    8  A    between atoms: C_27  and  C_28
REMARK    9  A    between atoms: C_30  and  N_31
REMARK                            x       y       z     vdW  Elec       q    Type
REMARK                         _______ _______ _______ _____ _____    ______ ____
ROOT
ATOM      1  C   UNL     1      -4.784  12.631  21.507  0.00  0.00    +0.000 C 
ATOM      2  C   UNL     1      -3.956  13.836  21.219  0.00  0.00    +0.000 A 
ATOM      3  N   UNL     1      -4.598  15.034  20.981  0.00  0.00    +0.000 N 
ATOM      4  N   UNL     1      -3.779  16.031  20.630  0.00  0.00    +0.000 NA
ATOM      5  C   UNL     1      -2.591  15.448  20.641  0.00  0.00    +0.000 A 
ATOM      6  C   UNL     1      -2.594  14.092  21.027  0.00  0.00    +0.000 A 
ATOM      7  C   UNL     1      -1.273  13.312  21.094  0.00  0.00    +0.000 C 
ATOM      8  C   UNL     1      -0.105  14.266  20.608  0.00  0.00    +0.000 C 
ATOM      9  C   UNL     1      -0.291  15.553  20.216  0.00  0.00    +0.000 C 
ATOM     10  O   UNL     1      -1.530  16.172  20.263  0.00  0.00    +0.000 OA
ATOM     11  H   UNL     1      -5.595  15.221  21.000  0.00  0.00    +0.000 HD
ENDROOT
BRANCH   7  12
ATOM     12  C   UNL     1      -1.372  12.129  20.064  0.00  0.00    +0.000 A 
ATOM     13  C   UNL     1      -0.464  11.045  20.126  0.00  0.00    +0.000 A 
ATOM     14  C   UNL     1      -0.303  10.111  19.071  0.00  0.00    +0.000 A 
ATOM     15  C   UNL     1      -1.240  10.135  18.027  0.00  0.00    +0.000 A 
ATOM     16  C   UNL     1      -2.213  11.132  17.961  0.00  0.00    +0.000 A 
ATOM     17  C   UNL     1      -2.216  12.142  18.939  0.00  0.00    +0.000 A 
BRANCH  14  18
ATOM     18  C   UNL     1       0.885   9.231  18.983  0.00  0.00    +0.000 A 
ATOM     19  C   UNL     1       1.615   9.109  17.810  0.00  0.00    +0.000 A 
ATOM     20  C   UNL     1       2.623   8.173  17.792  0.00  0.00    +0.000 A 
ATOM     21  N   UNL     1       2.916   7.388  18.840  0.00  0.00    +0.000 NA
ATOM     22  C   UNL     1       2.150   7.568  19.925  0.00  0.00    +0.000 A 
ATOM     23  N   UNL     1       1.144   8.450  20.055  0.00  0.00    +0.000 NA
ENDBRANCH  14  18
BRANCH  16  24
ATOM     24  C   UNL     1      -3.230  11.192  16.847  0.00  0.00    +0.000 C 
ATOM     25  F   UNL     1      -3.885  10.020  16.629  0.00  0.00    +0.000 F 
ATOM     26  F   UNL     1      -4.194  12.125  17.086  0.00  0.00    +0.000 F 
ATOM     27  F   UNL     1      -2.671  11.539  15.654  0.00  0.00    +0.000 F 
ENDBRANCH  16  24
ENDBRANCH   7  12
BRANCH   7  28
ATOM     28  C   UNL     1      -0.949  12.879  22.590  0.00  0.00    +0.000 C 
ATOM     29  C   UNL     1      -1.193  14.017  23.611  0.00  0.00    +0.000 C 
ATOM     30  C   UNL     1      -1.684  11.636  23.096  0.00  0.00    +0.000 C 
ENDBRANCH   7  28
BRANCH   9  31
ATOM     31  N   UNL     1       0.697  16.394  19.751  0.00  0.00    +0.000 N 
ATOM     32  H   UNL     1       1.208  16.103  18.923  0.00  0.00    +0.000 HD
ATOM     33  H   UNL     1       1.288  16.753  20.499  0.00  0.00    +0.000 HD
ENDBRANCH   9  31
BRANCH   8  34
ATOM     34  C   UNL     1       1.239  13.767  20.603  0.00  0.00    +0.000 C 
ATOM     35  N   UNL     1       2.315  13.330  20.599  0.00  0.00    +0.000 NA
ENDBRANCH   8  34
TORSDOF 6
ENDMDL
MODEL 7
REMARK VINA RESULT:      -6.9      9.240     12.300
REMARK  Name = 
REMARK  9 active torsions:
REMARK  status: ('A' for Active; 'I' for Inactive)
REMARK    1  A    between atoms: C_1  and  C_2
REMARK    2  A    between atoms: C_7  and  C_8
REMARK    3  A    between atoms: C_7  and  C_24
REMARK    4  A    between atoms: C_10  and  C_11
REMARK    5  A    between atoms: C_18  and  C_19
REMARK    6  A    between atoms: C_24  and  C_25
REMARK    7  A    between atoms: C_24  and  C_26
REMARK    8  A    between atoms: C_27  and  C_28
REMARK    9  A    between atoms: C_30  and  N_31
REMARK                            x       y       z     vdW  Elec       q    Type
REMARK                         _______ _______ _______ _____ _____    ______ ____
ROOT
ATOM      1  C   UNL     1      -1.128  15.604  20.518  0.00  0.00    +0.000 C 
ATOM      2  C   UNL     1      -1.575  15.077  21.838  0.00  0.00    +0.000 A 
ATOM      3  N   UNL     1      -0.698  15.134  22.900  0.00  0.00    +0.000 N 
ATOM      4  N   UNL     1      -1.148  14.544  24.013  0.00  0.00    +0.000 NA
ATOM      5  C   UNL     1      -2.338  14.098  23.642  0.00  0.00    +0.000 A 
ATOM      6  C   UNL     1      -2.707  14.409  22.317  0.00  0.00    +0.000 A 
ATOM      7  C   UNL     1      -4.073  13.959  21.777  0.00  0.00    +0.000 C 
ATOM      8  C   UNL     1      -4.801  13.114  22.902  0.00  0.00    +0.000 C 
ATOM      9  C   UNL     1      -4.268  12.865  24.126  0.00  0.00    +0.000 C 
ATOM     10  O   UNL     1      -3.047  13.384  24.525  0.00  0.00    +0.000 OA
ATOM     11  H   UNL     1       0.239  15.524  22.915  0.00  0.00    +0.000 HD
ENDROOT
BRANCH   7  12
ATOM     12  C   UNL     1      -3.805  12.995  20.565  0.00  0.00    +0.000 A 
ATOM     13  C   UNL     1      -2.527  12.416  20.378  0.00  0.00    +0.000 A 
ATOM     14  C   UNL     1      -2.132  11.791  19.168  0.00  0.00    +0.000 A 
ATOM     15  C   UNL     1      -3.123  11.541  18.207  0.00  0.00    +0.000 A 
ATOM     16  C   UNL     1      -4.424  12.015  18.379  0.00  0.00    +0.000 A 
ATOM     17  C   UNL     1      -4.718  12.787  19.516  0.00  0.00    +0.000 A 
BRANCH  14  18
ATOM     18  C   UNL     1      -0.708  11.534  18.850  0.00  0.00    +0.000 A 
ATOM     19  C   UNL     1      -0.240  10.255  18.589  0.00  0.00    +0.000 A 
ATOM     20  C   UNL     1       1.118  10.103  18.430  0.00  0.00    +0.000 A 
ATOM     21  N   UNL     1       1.986  11.122  18.521  0.00  0.00    +0.000 NA
ATOM     22  C   UNL     1       1.444  12.318  18.787  0.00  0.00    +0.000 A 
ATOM     23  N   UNL     1       0.137  12.582  18.960  0.00  0.00    +0.000 NA
ENDBRANCH  14  18
BRANCH  16  24
ATOM     24  C   UNL     1      -5.510  11.772  17.361  0.00  0.00    +0.000 C 
ATOM     25  F   UNL     1      -6.564  11.054  17.833  0.00  0.00    +0.000 F 
ATOM     26  F   UNL     1      -6.032  12.937  16.882  0.00  0.00    +0.000 F 
ATOM     27  F   UNL     1      -5.054  11.098  16.268  0.00  0.00    +0.000 F 
ENDBRANCH  16  24
ENDBRANCH   7  12
BRANCH   7  28
ATOM     28  C   UNL     1      -4.991  15.216  21.450  0.00  0.00    +0.000 C 
ATOM     29  C   UNL     1      -5.153  16.172  22.656  0.00  0.00    +0.000 C 
ATOM     30  C   UNL     1      -4.562  16.057  20.245  0.00  0.00    +0.000 C 
ENDBRANCH   7  28
BRANCH   9  31
ATOM     31  N   UNL     1      -4.859  12.100  25.110  0.00  0.00    +0.000 N 
ATOM     32  H   UNL     1      -5.819  12.318  25.360  0.00  0.00    +0.000 HD
ATOM     33  H   UNL     1      -4.245  11.951  25.909  0.00  0.00    +0.000 HD
ENDBRANCH   9  31
BRANCH   8  34
ATOM     34  C   UNL     1      -6.113  12.599  22.641  0.00  0.00    +0.000 C 
ATOM     35  N   UNL     1      -7.171  12.158  22.456  0.00  0.00    +0.000 NA
ENDBRANCH   8  34
TORSDOF 6
ENDMDL
MODEL 8
REMARK VINA RESULT:      -6.9      8.838     11.375
REMARK  Name = 
REMARK  9 active torsions:
REMARK  status: ('A' for Active; 'I' for Inactive)
REMARK    1  A    between atoms: C_1  and  C_2
REMARK    2  A    between atoms: C_7  and  C_8
REMARK    3  A    between atoms: C_7  and  C_24
REMARK    4  A    between atoms: C_10  and  C_11
REMARK    5  A    between atoms: C_18  and  C_19
REMARK    6  A    between atoms: C_24  and  C_25
REMARK    7  A    between atoms: C_24  and  C_26
REMARK    8  A    between atoms: C_27  and  C_28
REMARK    9  A    between atoms: C_30  and  N_31
REMARK                            x       y       z     vdW  Elec       q    Type
REMARK                         _______ _______ _______ _____ _____    ______ ____
ROOT
ATOM      1  C   UNL     1      -4.022  14.386  21.309  0.00  0.00    +0.000 C 
ATOM      2  C   UNL     1      -2.974  15.323  20.817  0.00  0.00    +0.000 A 
ATOM      3  N   UNL     1      -3.363  16.405  20.055  0.00  0.00    +0.000 N 
ATOM      4  N   UNL     1      -2.346  17.128  19.573  0.00  0.00    +0.000 NA
ATOM      5  C   UNL     1      -1.287  16.483  20.038  0.00  0.00    +0.000 A 
ATOM      6  C   UNL     1      -1.576  15.368  20.850  0.00  0.00    +0.000 A 
ATOM      7  C   UNL     1      -0.429  14.549  21.462  0.00  0.00    +0.000 C 
ATOM      8  C   UNL     1       0.943  15.150  20.947  0.00  0.00    +0.000 C 
ATOM      9  C   UNL     1       1.037  16.218  20.113  0.00  0.00    +0.000 C 
ATOM     10  O   UNL     1      -0.075  16.921  19.677  0.00  0.00    +0.000 OA
ATOM     11  H   UNL     1      -4.305  16.676  19.793  0.00  0.00    +0.000 HD
ENDROOT
BRANCH   7  12
ATOM     12  C   UNL     1      -0.542  13.086  20.898  0.00  0.00    +0.000 A 
ATOM     13  C   UNL     1      -1.091  12.852  19.614  0.00  0.00    +0.000 A 
ATOM     14  C   UNL     1      -1.495  11.568  19.169  0.00  0.00    +0.000 A 
ATOM     15  C   UNL     1      -1.127  10.460  19.946  0.00  0.00    +0.000 A 
ATOM     16  C   UNL     1      -0.504  10.629  21.184  0.00  0.00    +0.000 A 
ATOM     17  C   UNL     1      -0.288  11.933  21.661  0.00  0.00    +0.000 A 
BRANCH  14  18
ATOM     18  C   UNL     1      -2.397  11.393  18.007  0.00  0.00    +0.000 A 
ATOM     19  C   UNL     1      -3.761  11.628  18.102  0.00  0.00    +0.000 A 
ATOM     20  C   UNL     1      -4.529  11.316  17.004  0.00  0.00    +0.000 A 
ATOM     21  N   UNL     1      -4.022  10.800  15.875  0.00  0.00    +0.000 NA
ATOM     22  C   UNL     1      -2.698  10.597  15.879  0.00  0.00    +0.000 A 
ATOM     23  N   UNL     1      -1.852  10.864  16.889  0.00  0.00    +0.000 NA
ENDBRANCH  14  18
BRANCH  16  24
ATOM     24  C   UNL     1      -0.102   9.459  22.048  0.00  0.00    +0.000 C 
ATOM     25  F   UNL     1      -0.445   9.591  23.358  0.00  0.00    +0.000 F 
ATOM     26  F   UNL     1      -0.670   8.293  21.626  0.00  0.00    +0.000 F 
ATOM     27  F   UNL     1       1.242   9.239  22.030  0.00  0.00    +0.000 F 
ENDBRANCH  16  24
ENDBRANCH   7  12
BRANCH   7  28
ATOM     28  C   UNL     1      -0.440  14.663  23.048  0.00  0.00    +0.000 C 
ATOM     29  C   UNL     1      -0.447  16.129  23.545  0.00  0.00    +0.000 C 
ATOM     30  C   UNL     1      -1.577  13.926  23.760  0.00  0.00    +0.000 C 
ENDBRANCH   7  28
BRANCH   9  31
ATOM     31  N   UNL     1       2.214  16.738  19.617  0.00  0.00    +0.000 N 
ATOM     32  H   UNL     1       2.146  17.535  18.990  0.00  0.00    +0.000 HD
ATOM     33  H   UNL     1       2.858  16.015  19.302  0.00  0.00    +0.000 HD
ENDBRANCH   9  31
BRANCH   8  34
ATOM     34  C   UNL     1       2.170  14.565  21.403  0.00  0.00    +0.000 C 
ATOM     35  N   UNL     1       3.181  14.120  21.764  0.00  0.00    +0.000 NA
ENDBRANCH   8  34
TORSDOF 6
ENDMDL
MODEL 9
REMARK VINA RESULT:      -6.9      8.967     11.341
REMARK  Name = 
REMARK  9 active torsions:
REMARK  status: ('A' for Active; 'I' for Inactive)
REMARK    1  A    between atoms: C_1  and  C_2
REMARK    2  A    between atoms: C_7  and  C_8
REMARK    3  A    between atoms: C_7  and  C_24
REMARK    4  A    between atoms: C_10  and  C_11
REMARK    5  A    between atoms: C_18  and  C_19
REMARK    6  A    between atoms: C_24  and  C_25
REMARK    7  A    between atoms: C_24  and  C_26
REMARK    8  A    between atoms: C_27  and  C_28
REMARK    9  A    between atoms: C_30  and  N_31
REMARK                            x       y       z     vdW  Elec       q    Type
REMARK                         _______ _______ _______ _____ _____    ______ ____
ROOT
ATOM      1  C   UNL     1      -4.179  14.068  21.314  0.00  0.00    +0.000 C 
ATOM      2  C   UNL     1      -3.170  15.061  20.849  0.00  0.00    +0.000 A 
ATOM      3  N   UNL     1      -3.597  16.121  20.076  0.00  0.00    +0.000 N 
ATOM      4  N   UNL     1      -2.609  16.898  19.621  0.00  0.00    +0.000 NA
ATOM      5  C   UNL     1      -1.529  16.311  20.114  0.00  0.00    +0.000 A 
ATOM      6  C   UNL     1      -1.778  15.181  20.918  0.00  0.00    +0.000 A 
ATOM      7  C   UNL     1      -0.605  14.425  21.560  0.00  0.00    +0.000 C 
ATOM      8  C   UNL     1       0.746  15.101  21.081  0.00  0.00    +0.000 C 
ATOM      9  C   UNL     1       0.804  16.172  20.248  0.00  0.00    +0.000 C 
ATOM     10  O   UNL     1      -0.333  16.814  19.784  0.00  0.00    +0.000 OA
ATOM     11  H   UNL     1      -4.546  16.341  19.790  0.00  0.00    +0.000 HD
ENDROOT
BRANCH   7  12
ATOM     12  C   UNL     1      -0.624  12.959  20.994  0.00  0.00    +0.000 A 
ATOM     13  C   UNL     1      -1.166  12.691  19.714  0.00  0.00    +0.000 A 
ATOM     14  C   UNL     1      -1.487  11.383  19.270  0.00  0.00    +0.000 A 
ATOM     15  C   UNL     1      -1.038  10.301  20.042  0.00  0.00    +0.000 A 
ATOM     16  C   UNL     1      -0.418  10.509  21.275  0.00  0.00    +0.000 A 
ATOM     17  C   UNL     1      -0.286  11.824  21.753  0.00  0.00    +0.000 A 
BRANCH  14  18
ATOM     18  C   UNL     1      -2.384  11.149  18.115  0.00  0.00    +0.000 A 
ATOM     19  C   UNL     1      -1.916  10.604  16.928  0.00  0.00    +0.000 A 
ATOM     20  C   UNL     1      -2.798  10.544  15.874  0.00  0.00    +0.000 A 
ATOM     21  N   UNL     1      -4.062  10.986  15.948  0.00  0.00    +0.000 NA
ATOM     22  C   UNL     1      -4.422  11.506  17.129  0.00  0.00    +0.000 A 
ATOM     23  N   UNL     1      -3.648  11.615  18.223  0.00  0.00    +0.000 NA
ENDBRANCH  14  18
BRANCH  16  24
ATOM     24  C   UNL     1       0.068   9.368  22.134  0.00  0.00    +0.000 C 
ATOM     25  F   UNL     1      -0.595   8.198  21.932  0.00  0.00    +0.000 F 
ATOM     26  F   UNL     1       1.388   9.095  21.922  0.00  0.00    +0.000 F 
ATOM     27  F   UNL     1      -0.041   9.639  23.465  0.00  0.00    +0.000 F 
ENDBRANCH  16  24
ENDBRANCH   7  12
BRANCH   7  28
ATOM     28  C   UNL     1      -0.663  14.537  23.146  0.00  0.00    +0.000 C 
ATOM     29  C   UNL     1      -0.758  16.000  23.641  0.00  0.00    +0.000 C 
ATOM     30  C   UNL     1      -1.778  13.742  23.827  0.00  0.00    +0.000 C 
ENDBRANCH   7  28
BRANCH   9  31
ATOM     31  N   UNL     1       1.962  16.756  19.783  0.00  0.00    +0.000 N 
ATOM     32  H   UNL     1       1.868  17.546  19.151  0.00  0.00    +0.000 HD
ATOM     33  H   UNL     1       2.654  16.069  19.489  0.00  0.00    +0.000 HD
ENDBRANCH   9  31
BRANCH   8  34
ATOM     34  C   UNL     1       1.990  14.582  21.569  0.00  0.00    +0.000 C 
ATOM     35  N   UNL     1       2.990  14.130  21.950  0.00  0.00    +0.000 NA
ENDBRANCH   8  34
TORSDOF 6
ENDMDL
