MODEL 1
REMARK VINA RESULT:      -8.3      0.000      0.000
REMARK  Name = 
REMARK  5 active torsions:
REMARK  status: ('A' for Active; 'I' for Inactive)
REMARK    1  A    between atoms: N_1  and  N_2
REMARK    2  A    between atoms: C_3  and  S_4
REMARK    3  A    between atoms: S_4  and  C_5
REMARK    4  A    between atoms: C_5  and  C_6
REMARK    5  A    between atoms: C_17  and  C_18
REMARK                            x       y       z     vdW  Elec       q    Type
REMARK                         _______ _______ _______ _____ _____    ______ ____
ROOT
ATOM      1  N   UNL     1       6.379   3.878  15.288  0.00  0.00    +0.000 N 
ATOM      2  C   UNL     1       7.086   4.830  15.979  0.00  0.00    +0.000 A 
ATOM      3  N   UNL     1       7.635   5.679  15.142  0.00  0.00    +0.000 NA
ATOM      4  N   UNL     1       7.314   5.262  13.866  0.00  0.00    +0.000 NA
ATOM      5  C   UNL     1       6.533   4.194  13.949  0.00  0.00    +0.000 A 
ENDROOT
BRANCH   5   6
ATOM      6  C   UNL     1       5.967   3.450  12.816  0.00  0.00    +0.000 A 
ATOM      7  C   UNL     1       6.549   2.261  12.354  0.00  0.00    +0.000 A 
ATOM      8  C   UNL     1       6.036   1.592  11.240  0.00  0.00    +0.000 A 
ATOM      9  C   UNL     1       4.912   2.090  10.589  0.00  0.00    +0.000 A 
ATOM     10  C   UNL     1       4.299   3.249  11.062  0.00  0.00    +0.000 A 
ATOM     11 CL   UNL     1       2.894   3.849  10.267  0.00  0.00    +0.000 Cl
ATOM     12  C   UNL     1       4.820   3.928  12.165  0.00  0.00    +0.000 A 
ENDBRANCH   5   6
BRANCH   1  13
ATOM     13  N   UNL     1       5.642   2.773  15.850  0.00  0.00    +0.000 N 
ATOM     14  H   UNL     1       4.699   2.736  15.458  0.00  0.00    +0.000 HD
ATOM     15  H   UNL     1       5.521   2.880  16.856  0.00  0.00    +0.000 HD
ENDBRANCH   1  13
BRANCH   2  16
ATOM     16  S   UNL     1       7.208   4.852  17.703  0.00  0.00    +0.000 S 
BRANCH  16  17
ATOM     17  C   UNL     1       5.867   6.008  18.122  0.00  0.00    +0.000 C 
BRANCH  17  18
ATOM     18  C   UNL     1       4.628   5.288  18.537  0.00  0.00    +0.000 A 
ATOM     19  N   UNL     1       3.942   4.408  17.828  0.00  0.00    +0.000 NA
ATOM     20  C   UNL     1       2.894   4.029  18.619  0.00  0.00    +0.000 A 
ATOM     21  C   UNL     1       1.857   3.122  18.361  0.00  0.00    +0.000 A 
ATOM     22  C   UNL     1       0.889   2.902  19.352  0.00  0.00    +0.000 A 
ATOM     23  C   UNL     1       0.961   3.569  20.578  0.00  0.00    +0.000 A 
ATOM     24  C   UNL     1       1.990   4.475  20.858  0.00  0.00    +0.000 A 
ATOM     25  C   UNL     1       2.937   4.677  19.851  0.00  0.00    +0.000 A 
ATOM     26  N   UNL     1       4.052   5.475  19.771  0.00  0.00    +0.000 N 
ATOM     27  H   UNL     1       4.382   6.107  20.492  0.00  0.00    +0.000 HD
ENDBRANCH  17  18
ENDBRANCH  16  17
ENDBRANCH   2  16
TORSDOF 5
ENDMDL
MODEL 2
REMARK VINA RESULT:      -8.2      1.190      1.543
REMARK  Name = 
REMARK  5 active torsions:
REMARK  status: ('A' for Active; 'I' for Inactive)
REMARK    1  A    between atoms: N_1  and  N_2
REMARK    2  A    between atoms: C_3  and  S_4
REMARK    3  A    between atoms: S_4  and  C_5
REMARK    4  A    between atoms: C_5  and  C_6
REMARK    5  A    between atoms: C_17  and  C_18
REMARK                            x       y       z     vdW  Elec       q    Type
REMARK                         _______ _______ _______ _____ _____    ______ ____
ROOT
ATOM      1  N   UNL     1       6.408   4.060  15.526  0.00  0.00    +0.000 N 
ATOM      2  C   UNL     1       7.203   4.947  16.209  0.00  0.00    +0.000 A 
ATOM      3  N   UNL     1       7.760   5.791  15.373  0.00  0.00    +0.000 NA
ATOM      4  N   UNL     1       7.352   5.437  14.103  0.00  0.00    +0.000 NA
ATOM      5  C   UNL     1       6.514   4.413  14.191  0.00  0.00    +0.000 A 
ENDROOT
BRANCH   5   6
ATOM      6  C   UNL     1       5.851   3.742  13.066  0.00  0.00    +0.000 A 
ATOM      7  C   UNL     1       4.678   4.256  12.493  0.00  0.00    +0.000 A 
ATOM      8  C   UNL     1       4.024   3.581  11.459  0.00  0.00    +0.000 A 
ATOM      9  C   UNL     1       4.552   2.393  10.965  0.00  0.00    +0.000 A 
ATOM     10  C   UNL     1       5.739   1.892  11.496  0.00  0.00    +0.000 A 
ATOM     11 CL   UNL     1       6.403   0.434  10.864  0.00  0.00    +0.000 Cl
ATOM     12  C   UNL     1       6.386   2.558  12.540  0.00  0.00    +0.000 A 
ENDBRANCH   5   6
BRANCH   1  13
ATOM     13  N   UNL     1       5.635   2.981  16.090  0.00  0.00    +0.000 N 
ATOM     14  H   UNL     1       5.563   3.085  17.104  0.00  0.00    +0.000 HD
ATOM     15  H   UNL     1       6.083   2.081  15.933  0.00  0.00    +0.000 HD
ENDBRANCH   1  13
BRANCH   2  16
ATOM     16  S   UNL     1       7.410   4.902  17.925  0.00  0.00    +0.000 S 
BRANCH  16  17
ATOM     17  C   UNL     1       6.042   5.976  18.459  0.00  0.00    +0.000 C 
BRANCH  17  18
ATOM     18  C   UNL     1       4.878   5.183  18.950  0.00  0.00    +0.000 A 
ATOM     19  N   UNL     1       4.652   3.894  18.758  0.00  0.00    +0.000 NA
ATOM     20  C   UNL     1       3.471   3.626  19.390  0.00  0.00    +0.000 A 
ATOM     21  C   UNL     1       2.766   2.418  19.498  0.00  0.00    +0.000 A 
ATOM     22  C   UNL     1       1.558   2.403  20.212  0.00  0.00    +0.000 A 
ATOM     23  C   UNL     1       1.070   3.568  20.811  0.00  0.00    +0.000 A 
ATOM     24  C   UNL     1       1.760   4.782  20.718  0.00  0.00    +0.000 A 
ATOM     25  C   UNL     1       2.956   4.768  19.998  0.00  0.00    +0.000 A 
ATOM     26  N   UNL     1       3.873   5.747  19.701  0.00  0.00    +0.000 N 
ATOM     27  H   UNL     1       3.810   6.721  19.973  0.00  0.00    +0.000 HD
ENDBRANCH  17  18
ENDBRANCH  16  17
ENDBRANCH   2  16
TORSDOF 5
ENDMDL
MODEL 3
REMARK VINA RESULT:      -7.8      0.331      1.203
REMARK  Name = 
REMARK  5 active torsions:
REMARK  status: ('A' for Active; 'I' for Inactive)
REMARK    1  A    between atoms: N_1  and  N_2
REMARK    2  A    between atoms: C_3  and  S_4
REMARK    3  A    between atoms: S_4  and  C_5
REMARK    4  A    between atoms: C_5  and  C_6
REMARK    5  A    between atoms: C_17  and  C_18
REMARK                            x       y       z     vdW  Elec       q    Type
REMARK                         _______ _______ _______ _____ _____    ______ ____
ROOT
ATOM      1  N   UNL     1       6.382   3.966  15.227  0.00  0.00    +0.000 N 
ATOM      2  C   UNL     1       7.041   4.955  15.912  0.00  0.00    +0.000 A 
ATOM      3  N   UNL     1       7.649   5.759  15.071  0.00  0.00    +0.000 NA
ATOM      4  N   UNL     1       7.415   5.273  13.800  0.00  0.00    +0.000 NA
ATOM      5  C   UNL     1       6.628   4.209  13.886  0.00  0.00    +0.000 A 
ENDROOT
BRANCH   5   6
ATOM      6  C   UNL     1       6.140   3.404  12.759  0.00  0.00    +0.000 A 
ATOM      7  C   UNL     1       6.925   2.394  12.183  0.00  0.00    +0.000 A 
ATOM      8  C   UNL     1       6.474   1.673  11.076  0.00  0.00    +0.000 A 
ATOM      9  C   UNL     1       5.215   1.934  10.545  0.00  0.00    +0.000 A 
ATOM     10  C   UNL     1       4.408   2.906  11.131  0.00  0.00    +0.000 A 
ATOM     11 CL   UNL     1       2.839   3.209  10.487  0.00  0.00    +0.000 Cl
ATOM     12  C   UNL     1       4.863   3.639  12.230  0.00  0.00    +0.000 A 
ENDBRANCH   5   6
BRANCH   1  13
ATOM     13  N   UNL     1       5.605   2.892  15.796  0.00  0.00    +0.000 N 
ATOM     14  H   UNL     1       5.131   3.204  16.645  0.00  0.00    +0.000 HD
ATOM     15  H   UNL     1       6.197   2.113  16.078  0.00  0.00    +0.000 HD
ENDBRANCH   1  13
BRANCH   2  16
ATOM     16  S   UNL     1       7.044   5.070  17.637  0.00  0.00    +0.000 S 
BRANCH  16  17
ATOM     17  C   UNL     1       5.629   6.183  17.904  0.00  0.00    +0.000 C 
BRANCH  17  18
ATOM     18  C   UNL     1       4.465   5.461  18.494  0.00  0.00    +0.000 A 
ATOM     19  N   UNL     1       4.150   5.368  19.775  0.00  0.00    +0.000 NA
ATOM     20  C   UNL     1       3.013   4.613  19.825  0.00  0.00    +0.000 A 
ATOM     21  C   UNL     1       2.255   4.203  20.931  0.00  0.00    +0.000 A 
ATOM     22  C   UNL     1       1.110   3.421  20.714  0.00  0.00    +0.000 A 
ATOM     23  C   UNL     1       0.728   3.063  19.419  0.00  0.00    +0.000 A 
ATOM     24  C   UNL     1       1.467   3.465  18.300  0.00  0.00    +0.000 A 
ATOM     25  C   UNL     1       2.604   4.238  18.547  0.00  0.00    +0.000 A 
ATOM     26  N   UNL     1       3.549   4.792  17.718  0.00  0.00    +0.000 N 
ATOM     27  H   UNL     1       3.575   4.706  16.708  0.00  0.00    +0.000 HD
ENDBRANCH  17  18
ENDBRANCH  16  17
ENDBRANCH   2  16
TORSDOF 5
ENDMDL
MODEL 4
REMARK VINA RESULT:      -7.7      6.504      8.009
REMARK  Name = 
REMARK  5 active torsions:
REMARK  status: ('A' for Active; 'I' for Inactive)
REMARK    1  A    between atoms: N_1  and  N_2
REMARK    2  A    between atoms: C_3  and  S_4
REMARK    3  A    between atoms: S_4  and  C_5
REMARK    4  A    between atoms: C_5  and  C_6
REMARK    5  A    between atoms: C_17  and  C_18
REMARK                            x       y       z     vdW  Elec       q    Type
REMARK                         _______ _______ _______ _____ _____    ______ ____
ROOT
ATOM      1  N   UNL     1       2.063   7.699  19.434  0.00  0.00    +0.000 N 
ATOM      2  C   UNL     1       1.570   8.976  19.338  0.00  0.00    +0.000 A 
ATOM      3  N   UNL     1       1.811   9.465  18.145  0.00  0.00    +0.000 NA
ATOM      4  N   UNL     1       2.509   8.504  17.442  0.00  0.00    +0.000 NA
ATOM      5  C   UNL     1       2.639   7.426  18.204  0.00  0.00    +0.000 A 
ENDROOT
BRANCH   5   6
ATOM      6  C   UNL     1       3.315   6.179  17.824  0.00  0.00    +0.000 A 
ATOM      7  C   UNL     1       4.645   6.170  17.379  0.00  0.00    +0.000 A 
ATOM      8  C   UNL     1       5.260   4.986  16.967  0.00  0.00    +0.000 A 
ATOM      9  C   UNL     1       4.560   3.786  17.022  0.00  0.00    +0.000 A 
ATOM     10  C   UNL     1       3.251   3.773  17.501  0.00  0.00    +0.000 A 
ATOM     11 CL   UNL     1       2.395   2.281  17.591  0.00  0.00    +0.000 Cl
ATOM     12  C   UNL     1       2.629   4.958  17.899  0.00  0.00    +0.000 A 
ENDBRANCH   5   6
BRANCH   1  13
ATOM     13  N   UNL     1       2.000   6.832  20.585  0.00  0.00    +0.000 N 
ATOM     14  H   UNL     1       1.099   6.353  20.622  0.00  0.00    +0.000 HD
ATOM     15  H   UNL     1       2.072   7.360  21.452  0.00  0.00    +0.000 HD
ENDBRANCH   1  13
BRANCH   2  16
ATOM     16  S   UNL     1       0.763   9.777  20.641  0.00  0.00    +0.000 S 
BRANCH  16  17
ATOM     17  C   UNL     1       0.409  11.390  19.878  0.00  0.00    +0.000 C 
BRANCH  17  18
ATOM     18  C   UNL     1      -0.833  11.349  19.054  0.00  0.00    +0.000 A 
ATOM     19  N   UNL     1      -2.057  11.667  19.439  0.00  0.00    +0.000 NA
ATOM     20  C   UNL     1      -2.854  11.469  18.347  0.00  0.00    +0.000 A 
ATOM     21  C   UNL     1      -4.237  11.650  18.200  0.00  0.00    +0.000 A 
ATOM     22  C   UNL     1      -4.826  11.375  16.957  0.00  0.00    +0.000 A 
ATOM     23  C   UNL     1      -4.049  10.937  15.881  0.00  0.00    +0.000 A 
ATOM     24  C   UNL     1      -2.666  10.755  16.005  0.00  0.00    +0.000 A 
ATOM     25  C   UNL     1      -2.108  11.032  17.255  0.00  0.00    +0.000 A 
ATOM     26  N   UNL     1      -0.822  10.963  17.734  0.00  0.00    +0.000 N 
ATOM     27  H   UNL     1      -0.010  10.660  17.210  0.00  0.00    +0.000 HD
ENDBRANCH  17  18
ENDBRANCH  16  17
ENDBRANCH   2  16
TORSDOF 5
ENDMDL
MODEL 5
REMARK VINA RESULT:      -7.6      6.529      8.077
REMARK  Name = 
REMARK  5 active torsions:
REMARK  status: ('A' for Active; 'I' for Inactive)
REMARK    1  A    between atoms: N_1  and  N_2
REMARK    2  A    between atoms: C_3  and  S_4
REMARK    3  A    between atoms: S_4  and  C_5
REMARK    4  A    between atoms: C_5  and  C_6
REMARK    5  A    between atoms: C_17  and  C_18
REMARK                            x       y       z     vdW  Elec       q    Type
REMARK                         _______ _______ _______ _____ _____    ______ ____
ROOT
ATOM      1  N   UNL     1       2.052   7.697  19.477  0.00  0.00    +0.000 N 
ATOM      2  C   UNL     1       1.576   8.980  19.372  0.00  0.00    +0.000 A 
ATOM      3  N   UNL     1       1.825   9.458  18.175  0.00  0.00    +0.000 NA
ATOM      4  N   UNL     1       2.511   8.482  17.481  0.00  0.00    +0.000 NA
ATOM      5  C   UNL     1       2.625   7.408  18.250  0.00  0.00    +0.000 A 
ENDROOT
BRANCH   5   6
ATOM      6  C   UNL     1       3.284   6.149  17.880  0.00  0.00    +0.000 A 
ATOM      7  C   UNL     1       2.569   4.946  17.783  0.00  0.00    +0.000 A 
ATOM      8  C   UNL     1       3.215   3.744  17.485  0.00  0.00    +0.000 A 
ATOM      9  C   UNL     1       4.586   3.734  17.251  0.00  0.00    +0.000 A 
ATOM     10  C   UNL     1       5.303   4.927  17.303  0.00  0.00    +0.000 A 
ATOM     11 CL   UNL     1       6.996   4.915  16.989  0.00  0.00    +0.000 Cl
ATOM     12  C   UNL     1       4.661   6.128  17.616  0.00  0.00    +0.000 A 
ENDBRANCH   5   6
BRANCH   1  13
ATOM     13  N   UNL     1       1.975   6.839  20.634  0.00  0.00    +0.000 N 
ATOM     14  H   UNL     1       1.127   6.271  20.601  0.00  0.00    +0.000 HD
ATOM     15  H   UNL     1       1.916   7.380  21.494  0.00  0.00    +0.000 HD
ENDBRANCH   1  13
BRANCH   2  16
ATOM     16  S   UNL     1       0.779   9.801  20.668  0.00  0.00    +0.000 S 
BRANCH  16  17
ATOM     17  C   UNL     1       0.437  11.410  19.889  0.00  0.00    +0.000 C 
BRANCH  17  18
ATOM     18  C   UNL     1      -0.816  11.376  19.082  0.00  0.00    +0.000 A 
ATOM     19  N   UNL     1      -2.031  11.713  19.481  0.00  0.00    +0.000 NA
ATOM     20  C   UNL     1      -2.845  11.514  18.401  0.00  0.00    +0.000 A 
ATOM     21  C   UNL     1      -4.228  11.710  18.271  0.00  0.00    +0.000 A 
ATOM     22  C   UNL     1      -4.837  11.431  17.038  0.00  0.00    +0.000 A 
ATOM     23  C   UNL     1      -4.079  10.973  15.957  0.00  0.00    +0.000 A 
ATOM     24  C   UNL     1      -2.698  10.776  16.064  0.00  0.00    +0.000 A 
ATOM     25  C   UNL     1      -2.119  11.057  17.304  0.00  0.00    +0.000 A 
ATOM     26  N   UNL     1      -0.828  10.977  17.766  0.00  0.00    +0.000 N 
ATOM     27  H   UNL     1      -0.026  10.660  17.234  0.00  0.00    +0.000 HD
ENDBRANCH  17  18
ENDBRANCH  16  17
ENDBRANCH   2  16
TORSDOF 5
ENDMDL
MODEL 6
REMARK VINA RESULT:      -7.6      4.490      7.405
REMARK  Name = 
REMARK  5 active torsions:
REMARK  status: ('A' for Active; 'I' for Inactive)
REMARK    1  A    between atoms: N_1  and  N_2
REMARK    2  A    between atoms: C_3  and  S_4
REMARK    3  A    between atoms: S_4  and  C_5
REMARK    4  A    between atoms: C_5  and  C_6
REMARK    5  A    between atoms: C_17  and  C_18
REMARK                            x       y       z     vdW  Elec       q    Type
REMARK                         _______ _______ _______ _____ _____    ______ ____
ROOT
ATOM      1  N   UNL     1       1.805   4.562  19.001  0.00  0.00    +0.000 N 
ATOM      2  C   UNL     1       2.087   3.466  19.777  0.00  0.00    +0.000 A 
ATOM      3  N   UNL     1       2.502   3.847  20.962  0.00  0.00    +0.000 NA
ATOM      4  N   UNL     1       2.527   5.227  20.962  0.00  0.00    +0.000 NA
ATOM      5  C   UNL     1       2.081   5.664  19.793  0.00  0.00    +0.000 A 
ENDROOT
BRANCH   5   6
ATOM      6  C   UNL     1       1.946   7.071  19.393  0.00  0.00    +0.000 A 
ATOM      7  C   UNL     1       2.430   7.534  18.161  0.00  0.00    +0.000 A 
ATOM      8  C   UNL     1       2.346   8.885  17.815  0.00  0.00    +0.000 A 
ATOM      9  C   UNL     1       1.749   9.788  18.688  0.00  0.00    +0.000 A 
ATOM     10  C   UNL     1       1.227   9.336  19.897  0.00  0.00    +0.000 A 
ATOM     11 CL   UNL     1       0.467  10.453  20.965  0.00  0.00    +0.000 Cl
ATOM     12  C   UNL     1       1.324   7.988  20.253  0.00  0.00    +0.000 A 
ENDBRANCH   5   6
BRANCH   1  13
ATOM     13  N   UNL     1       1.330   4.557  17.639  0.00  0.00    +0.000 N 
ATOM     14  H   UNL     1       1.783   5.298  17.100  0.00  0.00    +0.000 HD
ATOM     15  H   UNL     1       0.331   4.750  17.593  0.00  0.00    +0.000 HD
ENDBRANCH   1  13
BRANCH   2  16
ATOM     16  S   UNL     1       1.910   1.841  19.216  0.00  0.00    +0.000 S 
BRANCH  16  17
ATOM     17  C   UNL     1       3.597   1.502  18.624  0.00  0.00    +0.000 C 
BRANCH  17  18
ATOM     18  C   UNL     1       4.317   2.758  18.265  0.00  0.00    +0.000 A 
ATOM     19  N   UNL     1       4.201   3.451  17.145  0.00  0.00    +0.000 NA
ATOM     20  C   UNL     1       5.054   4.511  17.274  0.00  0.00    +0.000 A 
ATOM     21  C   UNL     1       5.328   5.556  16.380  0.00  0.00    +0.000 A 
ATOM     22  C   UNL     1       6.257   6.539  16.754  0.00  0.00    +0.000 A 
ATOM     23  C   UNL     1       6.893   6.482  17.997  0.00  0.00    +0.000 A 
ATOM     24  C   UNL     1       6.630   5.450  18.906  0.00  0.00    +0.000 A 
ATOM     25  C   UNL     1       5.705   4.484  18.505  0.00  0.00    +0.000 A 
ATOM     26  N   UNL     1       5.217   3.355  19.116  0.00  0.00    +0.000 N 
ATOM     27  H   UNL     1       5.488   3.011  20.030  0.00  0.00    +0.000 HD
ENDBRANCH  17  18
ENDBRANCH  16  17
ENDBRANCH   2  16
TORSDOF 5
ENDMDL
MODEL 7
REMARK VINA RESULT:      -7.4      4.214      8.477
REMARK  Name = 
REMARK  5 active torsions:
REMARK  status: ('A' for Active; 'I' for Inactive)
REMARK    1  A    between atoms: N_1  and  N_2
REMARK    2  A    between atoms: C_3  and  S_4
REMARK    3  A    between atoms: S_4  and  C_5
REMARK    4  A    between atoms: C_5  and  C_6
REMARK    5  A    between atoms: C_17  and  C_18
REMARK                            x       y       z     vdW  Elec       q    Type
REMARK                         _______ _______ _______ _____ _____    ______ ____
ROOT
ATOM      1  N   UNL     1       2.996   6.502  19.231  0.00  0.00    +0.000 N 
ATOM      2  C   UNL     1       3.916   6.044  18.321  0.00  0.00    +0.000 A 
ATOM      3  N   UNL     1       4.047   6.905  17.339  0.00  0.00    +0.000 NA
ATOM      4  N   UNL     1       3.170   7.942  17.585  0.00  0.00    +0.000 NA
ATOM      5  C   UNL     1       2.555   7.719  18.739  0.00  0.00    +0.000 A 
ENDROOT
BRANCH   5   6
ATOM      6  C   UNL     1       1.549   8.589  19.361  0.00  0.00    +0.000 A 
ATOM      7  C   UNL     1       0.811   9.515  18.609  0.00  0.00    +0.000 A 
ATOM      8  C   UNL     1      -0.102  10.376  19.220  0.00  0.00    +0.000 A 
ATOM      9  C   UNL     1      -0.311  10.304  20.593  0.00  0.00    +0.000 A 
ATOM     10  C   UNL     1       0.384   9.362  21.348  0.00  0.00    +0.000 A 
ATOM     11 CL   UNL     1       0.104   9.258  23.044  0.00  0.00    +0.000 Cl
ATOM     12  C   UNL     1       1.310   8.509  20.741  0.00  0.00    +0.000 A 
ENDBRANCH   5   6
BRANCH   1  13
ATOM     13  N   UNL     1       2.574   5.840  20.441  0.00  0.00    +0.000 N 
ATOM     14  H   UNL     1       1.655   5.414  20.313  0.00  0.00    +0.000 HD
ATOM     15  H   UNL     1       2.471   6.499  21.209  0.00  0.00    +0.000 HD
ENDBRANCH   1  13
BRANCH   2  16
ATOM     16  S   UNL     1       4.745   4.537  18.492  0.00  0.00    +0.000 S 
BRANCH  16  17
ATOM     17  C   UNL     1       6.412   5.001  17.930  0.00  0.00    +0.000 C 
BRANCH  17  18
ATOM     18  C   UNL     1       6.568   4.819  16.458  0.00  0.00    +0.000 A 
ATOM     19  N   UNL     1       7.434   5.428  15.666  0.00  0.00    +0.000 NA
ATOM     20  C   UNL     1       7.196   4.942  14.412  0.00  0.00    +0.000 A 
ATOM     21  C   UNL     1       7.825   5.249  13.196  0.00  0.00    +0.000 A 
ATOM     22  C   UNL     1       7.392   4.602  12.029  0.00  0.00    +0.000 A 
ATOM     23  C   UNL     1       6.358   3.663  12.077  0.00  0.00    +0.000 A 
ATOM     24  C   UNL     1       5.720   3.339  13.280  0.00  0.00    +0.000 A 
ATOM     25  C   UNL     1       6.169   4.002  14.425  0.00  0.00    +0.000 A 
ATOM     26  N   UNL     1       5.786   3.943  15.743  0.00  0.00    +0.000 N 
ATOM     27  H   UNL     1       5.041   3.368  16.119  0.00  0.00    +0.000 HD
ENDBRANCH  17  18
ENDBRANCH  16  17
ENDBRANCH   2  16
TORSDOF 5
ENDMDL
MODEL 8
REMARK VINA RESULT:      -7.4      4.393      8.680
REMARK  Name = 
REMARK  5 active torsions:
REMARK  status: ('A' for Active; 'I' for Inactive)
REMARK    1  A    between atoms: N_1  and  N_2
REMARK    2  A    between atoms: C_3  and  S_4
REMARK    3  A    between atoms: S_4  and  C_5
REMARK    4  A    between atoms: C_5  and  C_6
REMARK    5  A    between atoms: C_17  and  C_18
REMARK                            x       y       z     vdW  Elec       q    Type
REMARK                         _______ _______ _______ _____ _____    ______ ____
ROOT
ATOM      1  N   UNL     1       2.692   6.702  19.345  0.00  0.00    +0.000 N 
ATOM      2  C   UNL     1       3.581   6.270  18.393  0.00  0.00    +0.000 A 
ATOM      3  N   UNL     1       3.721   7.180  17.459  0.00  0.00    +0.000 NA
ATOM      4  N   UNL     1       2.881   8.227  17.779  0.00  0.00    +0.000 NA
ATOM      5  C   UNL     1       2.279   7.957  18.930  0.00  0.00    +0.000 A 
ENDROOT
BRANCH   5   6
ATOM      6  C   UNL     1       1.312   8.820  19.620  0.00  0.00    +0.000 A 
ATOM      7  C   UNL     1       0.541   9.763  18.923  0.00  0.00    +0.000 A 
ATOM      8  C   UNL     1      -0.335  10.617  19.597  0.00  0.00    +0.000 A 
ATOM      9  C   UNL     1      -0.474  10.519  20.977  0.00  0.00    +0.000 A 
ATOM     10  C   UNL     1       0.254   9.560  21.677  0.00  0.00    +0.000 A 
ATOM     11 CL   UNL     1       0.061   9.426  23.384  0.00  0.00    +0.000 Cl
ATOM     12  C   UNL     1       1.143   8.715  21.008  0.00  0.00    +0.000 A 
ENDBRANCH   5   6
BRANCH   1  13
ATOM     13  N   UNL     1       2.271   5.985  20.524  0.00  0.00    +0.000 N 
ATOM     14  H   UNL     1       1.366   5.539  20.366  0.00  0.00    +0.000 HD
ATOM     15  H   UNL     1       2.139   6.614  21.313  0.00  0.00    +0.000 HD
ENDBRANCH   1  13
BRANCH   2  16
ATOM     16  S   UNL     1       4.367   4.731  18.464  0.00  0.00    +0.000 S 
BRANCH  16  17
ATOM     17  C   UNL     1       6.030   5.173  17.874  0.00  0.00    +0.000 C 
BRANCH  17  18
ATOM     18  C   UNL     1       6.199   4.870  16.423  0.00  0.00    +0.000 A 
ATOM     19  N   UNL     1       5.464   4.052  15.688  0.00  0.00    +0.000 NA
ATOM     20  C   UNL     1       5.998   4.100  14.432  0.00  0.00    +0.000 A 
ATOM     21  C   UNL     1       5.610   3.426  13.265  0.00  0.00    +0.000 A 
ATOM     22  C   UNL     1       6.330   3.652  12.083  0.00  0.00    +0.000 A 
ATOM     23  C   UNL     1       7.411   4.538  12.065  0.00  0.00    +0.000 A 
ATOM     24  C   UNL     1       7.812   5.224  13.217  0.00  0.00    +0.000 A 
ATOM     25  C   UNL     1       7.079   4.977  14.380  0.00  0.00    +0.000 A 
ATOM     26  N   UNL     1       7.186   5.453  15.664  0.00  0.00    +0.000 N 
ATOM     27  H   UNL     1       7.884   6.107  15.998  0.00  0.00    +0.000 HD
ENDBRANCH  17  18
ENDBRANCH  16  17
ENDBRANCH   2  16
TORSDOF 5
ENDMDL
MODEL 9
REMARK VINA RESULT:      -7.3      5.346      8.225
REMARK  Name = 
REMARK  5 active torsions:
REMARK  status: ('A' for Active; 'I' for Inactive)
REMARK    1  A    between atoms: N_1  and  N_2
REMARK    2  A    between atoms: C_3  and  S_4
REMARK    3  A    between atoms: S_4  and  C_5
REMARK    4  A    between atoms: C_5  and  C_6
REMARK    5  A    between atoms: C_17  and  C_18
REMARK                            x       y       z     vdW  Elec       q    Type
REMARK                         _______ _______ _______ _____ _____    ______ ____
ROOT
ATOM      1  N   UNL     1       5.501   6.036  17.848  0.00  0.00    +0.000 N 
ATOM      2  C   UNL     1       6.832   6.363  17.921  0.00  0.00    +0.000 A 
ATOM      3  N   UNL     1       7.517   5.360  18.418  0.00  0.00    +0.000 NA
ATOM      4  N   UNL     1       6.617   4.356  18.713  0.00  0.00    +0.000 NA
ATOM      5  C   UNL     1       5.404   4.746  18.345  0.00  0.00    +0.000 A 
ENDROOT
BRANCH   5   6
ATOM      6  C   UNL     1       4.169   3.964  18.482  0.00  0.00    +0.000 A 
ATOM      7  C   UNL     1       3.616   3.269  17.397  0.00  0.00    +0.000 A 
ATOM      8  C   UNL     1       2.411   2.574  17.524  0.00  0.00    +0.000 A 
ATOM      9  C   UNL     1       1.755   2.543  18.750  0.00  0.00    +0.000 A 
ATOM     10  C   UNL     1       2.313   3.195  19.847  0.00  0.00    +0.000 A 
ATOM     11 CL   UNL     1       1.511   3.133  21.370  0.00  0.00    +0.000 Cl
ATOM     12  C   UNL     1       3.511   3.903  19.719  0.00  0.00    +0.000 A 
ENDBRANCH   5   6
BRANCH   1  13
ATOM     13  N   UNL     1       4.431   6.872  17.364  0.00  0.00    +0.000 N 
ATOM     14  H   UNL     1       4.268   6.703  16.370  0.00  0.00    +0.000 HD
ATOM     15  H   UNL     1       4.666   7.860  17.444  0.00  0.00    +0.000 HD
ENDBRANCH   1  13
BRANCH   2  16
ATOM     16  S   UNL     1       7.457   7.896  17.423  0.00  0.00    +0.000 S 
BRANCH  16  17
ATOM     17  C   UNL     1       8.610   8.250  18.785  0.00  0.00    +0.000 C 
BRANCH  17  18
ATOM     18  C   UNL     1       8.962   9.698  18.847  0.00  0.00    +0.000 A 
ATOM     19  N   UNL     1       8.778  10.605  17.902  0.00  0.00    +0.000 NA
ATOM     20  C   UNL     1       9.257  11.777  18.415  0.00  0.00    +0.000 A 
ATOM     21  C   UNL     1       9.311  13.054  17.836  0.00  0.00    +0.000 A 
ATOM     22  C   UNL     1       9.856  14.110  18.580  0.00  0.00    +0.000 A 
ATOM     23  C   UNL     1      10.330  13.898  19.878  0.00  0.00    +0.000 A 
ATOM     24  C   UNL     1      10.281  12.633  20.476  0.00  0.00    +0.000 A 
ATOM     25  C   UNL     1       9.737  11.600  19.710  0.00  0.00    +0.000 A 
ATOM     26  N   UNL     1       9.538  10.263  19.960  0.00  0.00    +0.000 N 
ATOM     27  H   UNL     1       9.790   9.776  20.812  0.00  0.00    +0.000 HD
ENDBRANCH  17  18
ENDBRANCH  16  17
ENDBRANCH   2  16
TORSDOF 5
ENDMDL
