MODEL 1
REMARK VINA RESULT:      -8.9      0.000      0.000
REMARK  Name = 
REMARK  9 active torsions:
REMARK  status: ('A' for Active; 'I' for Inactive)
REMARK    1  A    between atoms: C_1  and  O_2
REMARK    2  A    between atoms: O_2  and  C_3
REMARK    3  A    between atoms: C_5  and  C_6
REMARK    4  A    between atoms: C_15  and  O_16
REMARK    5  A    between atoms: O_16  and  C_17
REMARK    6  A    between atoms: C_17  and  C_18
REMARK    7  A    between atoms: C_17  and  C_19
REMARK    8  A    between atoms: C_29  and  O_30
REMARK    9  A    between atoms: O_30  and  C_31
REMARK                            x       y       z     vdW  Elec       q    Type
REMARK                         _______ _______ _______ _____ _____    ______ ____
ROOT
ATOM      1  C   UNL     1       2.353   6.709  19.750  0.00  0.00    +0.000 A 
ATOM      2  C   UNL     1       2.208   5.602  20.575  0.00  0.00    +0.000 A 
ATOM      3  C   UNL     1       2.818   4.388  20.232  0.00  0.00    +0.000 A 
ATOM      4  C   UNL     1       3.535   4.293  19.026  0.00  0.00    +0.000 A 
ATOM      5  C   UNL     1       4.061   3.041  18.648  0.00  0.00    +0.000 A 
ATOM      6  C   UNL     1       3.946   1.934  19.481  0.00  0.00    +0.000 A 
ATOM      7  C   UNL     1       3.303   2.072  20.703  0.00  0.00    +0.000 A 
ATOM      8  N   UNL     1       2.721   3.268  21.085  0.00  0.00    +0.000 N 
ATOM      9  O   UNL     1       2.121   3.341  22.211  0.00  0.00    +0.000 OA
ATOM     10  C   UNL     1       3.673   5.477  18.283  0.00  0.00    +0.000 A 
ATOM     11  N   UNL     1       3.102   6.662  18.614  0.00  0.00    +0.000 NA
ENDROOT
BRANCH   1  14
ATOM     12  C   UNL     1       1.005  10.264  19.421  0.00  0.00    +0.000 A 
ATOM     13  C   UNL     1       1.566   9.021  19.097  0.00  0.00    +0.000 A 
ATOM     14  C   UNL     1       1.654   7.983  20.041  0.00  0.00    +0.000 A 
ATOM     15  C   UNL     1       1.109   8.229  21.307  0.00  0.00    +0.000 A 
ATOM     16  C   UNL     1       0.537   9.469  21.653  0.00  0.00    +0.000 A 
ATOM     17 CL   UNL     1      -0.042   9.547  23.282  0.00  0.00    +0.000 Cl
ATOM     18  C   UNL     1       0.492  10.513  20.716  0.00  0.00    +0.000 A 
BRANCH  12  20
ATOM     19  C   UNL     1       2.200  12.012  18.297  0.00  0.00    +0.000 C 
ATOM     20  O   UNL     1       0.979  11.326  18.543  0.00  0.00    +0.000 OA
ENDBRANCH  12  20
BRANCH  18  21
ATOM     21  O   UNL     1       0.004  11.785  20.856  0.00  0.00    +0.000 OA
ATOM     22  C   UNL     1      -1.368  12.039  21.080  0.00  0.00    +0.000 C 
ENDBRANCH  18  21
ENDBRANCH   1  14
BRANCH  10  23
ATOM     23  O   UNL     1       4.502   5.399  17.175  0.00  0.00    +0.000 OA
BRANCH  23  24
ATOM     24  C   UNL     1       5.315   6.536  16.861  0.00  0.00    +0.000 C 
ATOM     25  C   UNL     1       4.883   7.075  15.494  0.00  0.00    +0.000 C 
BRANCH  24  26
ATOM     26  C   UNL     1       6.817   6.114  16.809  0.00  0.00    +0.000 C 
ATOM     27  C   UNL     1       7.768   7.225  17.257  0.00  0.00    +0.000 C 
ATOM     28  N   UNL     1       7.890   7.036  18.670  0.00  0.00    +0.000 N 
ATOM     29  C   UNL     1       7.557   5.752  19.053  0.00  0.00    +0.000 C 
ATOM     30  O   UNL     1       7.611   5.315  20.190  0.00  0.00    +0.000 OA
ATOM     31  C   UNL     1       7.178   4.993  17.803  0.00  0.00    +0.000 C 
ATOM     32  H   UNL     1       8.238   7.711  19.341  0.00  0.00    +0.000 HD
ENDBRANCH  24  26
ENDBRANCH  23  24
ENDBRANCH  10  23
TORSDOF 6
ENDMDL
MODEL 2
REMARK VINA RESULT:      -8.4      1.430      2.058
REMARK  Name = 
REMARK  9 active torsions:
REMARK  status: ('A' for Active; 'I' for Inactive)
REMARK    1  A    between atoms: C_1  and  O_2
REMARK    2  A    between atoms: O_2  and  C_3
REMARK    3  A    between atoms: C_5  and  C_6
REMARK    4  A    between atoms: C_15  and  O_16
REMARK    5  A    between atoms: O_16  and  C_17
REMARK    6  A    between atoms: C_17  and  C_18
REMARK    7  A    between atoms: C_17  and  C_19
REMARK    8  A    between atoms: C_29  and  O_30
REMARK    9  A    between atoms: O_30  and  C_31
REMARK                            x       y       z     vdW  Elec       q    Type
REMARK                         _______ _______ _______ _____ _____    ______ ____
ROOT
ATOM      1  C   UNL     1       2.368   6.540  19.378  0.00  0.00    +0.000 A 
ATOM      2  C   UNL     1       1.849   5.382  19.941  0.00  0.00    +0.000 A 
ATOM      3  C   UNL     1       2.327   4.129  19.533  0.00  0.00    +0.000 A 
ATOM      4  C   UNL     1       3.299   4.060  18.520  0.00  0.00    +0.000 A 
ATOM      5  C   UNL     1       3.701   2.792  18.052  0.00  0.00    +0.000 A 
ATOM      6  C   UNL     1       3.209   1.627  18.629  0.00  0.00    +0.000 A 
ATOM      7  C   UNL     1       2.310   1.722  19.682  0.00  0.00    +0.000 A 
ATOM      8  N   UNL     1       1.846   2.946  20.130  0.00  0.00    +0.000 N 
ATOM      9  O   UNL     1       1.001   2.982  21.090  0.00  0.00    +0.000 OA
ATOM     10  C   UNL     1       3.803   5.283  18.048  0.00  0.00    +0.000 A 
ATOM     11  N   UNL     1       3.360   6.501  18.448  0.00  0.00    +0.000 NA
ENDROOT
BRANCH   1  14
ATOM     12  C   UNL     1       0.403   9.319  21.105  0.00  0.00    +0.000 A 
ATOM     13  C   UNL     1       1.003   8.079  20.850  0.00  0.00    +0.000 A 
ATOM     14  C   UNL     1       1.826   7.875  19.728  0.00  0.00    +0.000 A 
ATOM     15  C   UNL     1       2.061   8.983  18.903  0.00  0.00    +0.000 A 
ATOM     16  C   UNL     1       1.470  10.239  19.144  0.00  0.00    +0.000 A 
ATOM     17 CL   UNL     1       1.883  11.446  17.974  0.00  0.00    +0.000 Cl
ATOM     18  C   UNL     1       0.617  10.420  20.243  0.00  0.00    +0.000 A 
BRANCH  12  20
ATOM     19  C   UNL     1       0.050   9.473  23.471  0.00  0.00    +0.000 C 
ATOM     20  O   UNL     1      -0.472   9.526  22.149  0.00  0.00    +0.000 OA
ENDBRANCH  12  20
BRANCH  18  21
ATOM     21  O   UNL     1      -0.065  11.541  20.638  0.00  0.00    +0.000 OA
ATOM     22  C   UNL     1       0.603  12.701  21.089  0.00  0.00    +0.000 C 
ENDBRANCH  18  21
ENDBRANCH   1  14
BRANCH  10  23
ATOM     23  O   UNL     1       4.861   5.195  17.156  0.00  0.00    +0.000 OA
BRANCH  23  24
ATOM     24  C   UNL     1       5.578   6.395  16.842  0.00  0.00    +0.000 C 
ATOM     25  C   UNL     1       5.171   6.846  15.436  0.00  0.00    +0.000 C 
BRANCH  24  26
ATOM     26  C   UNL     1       7.114   6.118  16.880  0.00  0.00    +0.000 C 
ATOM     27  C   UNL     1       7.923   7.298  17.422  0.00  0.00    +0.000 C 
ATOM     28  N   UNL     1       7.970   7.076  18.834  0.00  0.00    +0.000 N 
ATOM     29  C   UNL     1       7.737   5.755  19.159  0.00  0.00    +0.000 C 
ATOM     30  O   UNL     1       7.759   5.288  20.285  0.00  0.00    +0.000 OA
ATOM     31  C   UNL     1       7.515   5.004  17.867  0.00  0.00    +0.000 C 
ATOM     32  H   UNL     1       8.207   7.758  19.544  0.00  0.00    +0.000 HD
ENDBRANCH  24  26
ENDBRANCH  23  24
ENDBRANCH  10  23
TORSDOF 6
ENDMDL
MODEL 3
REMARK VINA RESULT:      -8.4      1.339      1.882
REMARK  Name = 
REMARK  9 active torsions:
REMARK  status: ('A' for Active; 'I' for Inactive)
REMARK    1  A    between atoms: C_1  and  O_2
REMARK    2  A    between atoms: O_2  and  C_3
REMARK    3  A    between atoms: C_5  and  C_6
REMARK    4  A    between atoms: C_15  and  O_16
REMARK    5  A    between atoms: O_16  and  C_17
REMARK    6  A    between atoms: C_17  and  C_18
REMARK    7  A    between atoms: C_17  and  C_19
REMARK    8  A    between atoms: C_29  and  O_30
REMARK    9  A    between atoms: O_30  and  C_31
REMARK                            x       y       z     vdW  Elec       q    Type
REMARK                         _______ _______ _______ _____ _____    ______ ____
ROOT
ATOM      1  C   UNL     1       2.309   6.714  19.680  0.00  0.00    +0.000 A 
ATOM      2  C   UNL     1       2.194   5.611  20.516  0.00  0.00    +0.000 A 
ATOM      3  C   UNL     1       2.764   4.386  20.143  0.00  0.00    +0.000 A 
ATOM      4  C   UNL     1       3.409   4.277  18.899  0.00  0.00    +0.000 A 
ATOM      5  C   UNL     1       3.892   3.015  18.495  0.00  0.00    +0.000 A 
ATOM      6  C   UNL     1       3.808   1.913  19.337  0.00  0.00    +0.000 A 
ATOM      7  C   UNL     1       3.238   2.064  20.594  0.00  0.00    +0.000 A 
ATOM      8  N   UNL     1       2.698   3.271  21.004  0.00  0.00    +0.000 N 
ATOM      9  O   UNL     1       2.164   3.356  22.162  0.00  0.00    +0.000 OA
ATOM     10  C   UNL     1       3.523   5.456  18.145  0.00  0.00    +0.000 A 
ATOM     11  N   UNL     1       2.990   6.651  18.504  0.00  0.00    +0.000 NA
ENDROOT
BRANCH   1  14
ATOM     12  C   UNL     1       1.047  10.307  19.440  0.00  0.00    +0.000 A 
ATOM     13  C   UNL     1       1.570   9.057  19.083  0.00  0.00    +0.000 A 
ATOM     14  C   UNL     1       1.648   7.999  20.007  0.00  0.00    +0.000 A 
ATOM     15  C   UNL     1       1.131   8.236  21.287  0.00  0.00    +0.000 A 
ATOM     16  C   UNL     1       0.597   9.483  21.664  0.00  0.00    +0.000 A 
ATOM     17 CL   UNL     1       0.048   9.545  23.305  0.00  0.00    +0.000 Cl
ATOM     18  C   UNL     1       0.563  10.545  20.748  0.00  0.00    +0.000 A 
BRANCH  12  20
ATOM     19  C   UNL     1       2.282  11.971  18.234  0.00  0.00    +0.000 C 
ATOM     20  O   UNL     1       1.033  11.385  18.581  0.00  0.00    +0.000 OA
ENDBRANCH  12  20
BRANCH  18  21
ATOM     21  O   UNL     1       0.110  11.826  20.919  0.00  0.00    +0.000 OA
ATOM     22  C   UNL     1      -1.267  12.125  21.019  0.00  0.00    +0.000 C 
ENDBRANCH  18  21
ENDBRANCH   1  14
BRANCH  10  23
ATOM     23  O   UNL     1       4.286   5.362  16.991  0.00  0.00    +0.000 OA
BRANCH  23  24
ATOM     24  C   UNL     1       5.238   6.400  16.727  0.00  0.00    +0.000 C 
ATOM     25  C   UNL     1       4.778   7.171  15.486  0.00  0.00    +0.000 C 
BRANCH  24  26
ATOM     26  C   UNL     1       6.644   5.774  16.467  0.00  0.00    +0.000 C 
ATOM     27  C   UNL     1       6.794   4.370  17.054  0.00  0.00    +0.000 C 
ATOM     28  N   UNL     1       6.348   3.501  16.009  0.00  0.00    +0.000 N 
ATOM     29  C   UNL     1       6.403   4.108  14.770  0.00  0.00    +0.000 C 
ATOM     30  O   UNL     1       6.118   3.579  13.709  0.00  0.00    +0.000 OA
ATOM     31  C   UNL     1       6.933   5.507  14.977  0.00  0.00    +0.000 C 
ATOM     32  H   UNL     1       6.078   2.530  16.107  0.00  0.00    +0.000 HD
ENDBRANCH  24  26
ENDBRANCH  23  24
ENDBRANCH  10  23
TORSDOF 6
ENDMDL
MODEL 4
REMARK VINA RESULT:      -8.2      1.193      1.356
REMARK  Name = 
REMARK  9 active torsions:
REMARK  status: ('A' for Active; 'I' for Inactive)
REMARK    1  A    between atoms: C_1  and  O_2
REMARK    2  A    between atoms: O_2  and  C_3
REMARK    3  A    between atoms: C_5  and  C_6
REMARK    4  A    between atoms: C_15  and  O_16
REMARK    5  A    between atoms: O_16  and  C_17
REMARK    6  A    between atoms: C_17  and  C_18
REMARK    7  A    between atoms: C_17  and  C_19
REMARK    8  A    between atoms: C_29  and  O_30
REMARK    9  A    between atoms: O_30  and  C_31
REMARK                            x       y       z     vdW  Elec       q    Type
REMARK                         _______ _______ _______ _____ _____    ______ ____
ROOT
ATOM      1  C   UNL     1       1.911   6.749  19.844  0.00  0.00    +0.000 A 
ATOM      2  C   UNL     1       1.561   5.555  20.460  0.00  0.00    +0.000 A 
ATOM      3  C   UNL     1       2.015   4.337  19.938  0.00  0.00    +0.000 A 
ATOM      4  C   UNL     1       2.786   4.336  18.762  0.00  0.00    +0.000 A 
ATOM      5  C   UNL     1       3.155   3.099  18.194  0.00  0.00    +0.000 A 
ATOM      6  C   UNL     1       2.835   1.900  18.820  0.00  0.00    +0.000 A 
ATOM      7  C   UNL     1       2.141   1.929  20.022  0.00  0.00    +0.000 A 
ATOM      8  N   UNL     1       1.709   3.119  20.581  0.00  0.00    +0.000 N 
ATOM      9  O   UNL     1       1.055   3.094  21.679  0.00  0.00    +0.000 OA
ATOM     10  C   UNL     1       3.135   5.592  18.239  0.00  0.00    +0.000 A 
ATOM     11  N   UNL     1       2.715   6.778  18.746  0.00  0.00    +0.000 NA
ENDROOT
BRANCH   1  14
ATOM     12  C   UNL     1       0.879  10.420  19.971  0.00  0.00    +0.000 A 
ATOM     13  C   UNL     1       1.272   9.168  19.480  0.00  0.00    +0.000 A 
ATOM     14  C   UNL     1       1.380   8.047  20.322  0.00  0.00    +0.000 A 
ATOM     15  C   UNL     1       1.026   8.226  21.665  0.00  0.00    +0.000 A 
ATOM     16  C   UNL     1       0.624   9.475  22.178  0.00  0.00    +0.000 A 
ATOM     17 CL   UNL     1       0.266   9.458  23.872  0.00  0.00    +0.000 Cl
ATOM     18  C   UNL     1       0.560  10.597  21.338  0.00  0.00    +0.000 A 
BRANCH  12  20
ATOM     19  C   UNL     1       2.066  12.001  18.614  0.00  0.00    +0.000 C 
ATOM     20  O   UNL     1       0.844  11.554  19.187  0.00  0.00    +0.000 OA
ENDBRANCH  12  20
BRANCH  18  21
ATOM     21  O   UNL     1       0.219  11.889  21.639  0.00  0.00    +0.000 OA
ATOM     22  C   UNL     1      -1.090  12.242  22.037  0.00  0.00    +0.000 C 
ENDBRANCH  18  21
ENDBRANCH   1  14
BRANCH  10  23
ATOM     23  O   UNL     1       4.013   5.575  17.166  0.00  0.00    +0.000 OA
BRANCH  23  24
ATOM     24  C   UNL     1       4.823   6.735  16.941  0.00  0.00    +0.000 C 
ATOM     25  C   UNL     1       5.229   6.760  15.464  0.00  0.00    +0.000 C 
BRANCH  24  26
ATOM     26  C   UNL     1       6.101   6.670  17.836  0.00  0.00    +0.000 C 
ATOM     27  C   UNL     1       6.051   5.546  18.872  0.00  0.00    +0.000 C 
ATOM     28  N   UNL     1       6.614   4.418  18.197  0.00  0.00    +0.000 N 
ATOM     29  C   UNL     1       7.400   4.794  17.126  0.00  0.00    +0.000 C 
ATOM     30  O   UNL     1       8.027   4.034  16.406  0.00  0.00    +0.000 OA
ATOM     31  C   UNL     1       7.380   6.302  17.058  0.00  0.00    +0.000 C 
ATOM     32  H   UNL     1       6.531   3.447  18.472  0.00  0.00    +0.000 HD
ENDBRANCH  24  26
ENDBRANCH  23  24
ENDBRANCH  10  23
TORSDOF 6
ENDMDL
MODEL 5
REMARK VINA RESULT:      -8.0      1.664      2.115
REMARK  Name = 
REMARK  9 active torsions:
REMARK  status: ('A' for Active; 'I' for Inactive)
REMARK    1  A    between atoms: C_1  and  O_2
REMARK    2  A    between atoms: O_2  and  C_3
REMARK    3  A    between atoms: C_5  and  C_6
REMARK    4  A    between atoms: C_15  and  O_16
REMARK    5  A    between atoms: O_16  and  C_17
REMARK    6  A    between atoms: C_17  and  C_18
REMARK    7  A    between atoms: C_17  and  C_19
REMARK    8  A    between atoms: C_29  and  O_30
REMARK    9  A    between atoms: O_30  and  C_31
REMARK                            x       y       z     vdW  Elec       q    Type
REMARK                         _______ _______ _______ _____ _____    ______ ____
ROOT
ATOM      1  C   UNL     1       2.039   6.782  19.636  0.00  0.00    +0.000 A 
ATOM      2  C   UNL     1       1.606   5.581  20.181  0.00  0.00    +0.000 A 
ATOM      3  C   UNL     1       2.065   4.366  19.654  0.00  0.00    +0.000 A 
ATOM      4  C   UNL     1       2.927   4.379  18.543  0.00  0.00    +0.000 A 
ATOM      5  C   UNL     1       3.304   3.150  17.964  0.00  0.00    +0.000 A 
ATOM      6  C   UNL     1       2.899   1.942  18.520  0.00  0.00    +0.000 A 
ATOM      7  C   UNL     1       2.113   1.954  19.664  0.00  0.00    +0.000 A 
ATOM      8  N   UNL     1       1.673   3.139  20.228  0.00  0.00    +0.000 N 
ATOM      9  O   UNL     1       0.933   3.100  21.270  0.00  0.00    +0.000 OA
ATOM     10  C   UNL     1       3.353   5.639  18.094  0.00  0.00    +0.000 A 
ATOM     11  N   UNL     1       2.929   6.821  18.607  0.00  0.00    +0.000 NA
ENDROOT
BRANCH   1  14
ATOM     12  C   UNL     1       1.048  10.464  19.781  0.00  0.00    +0.000 A 
ATOM     13  C   UNL     1       1.441   9.214  19.286  0.00  0.00    +0.000 A 
ATOM     14  C   UNL     1       1.510   8.081  20.116  0.00  0.00    +0.000 A 
ATOM     15  C   UNL     1       1.119   8.247  21.450  0.00  0.00    +0.000 A 
ATOM     16  C   UNL     1       0.717   9.494  21.967  0.00  0.00    +0.000 A 
ATOM     17 CL   UNL     1       0.310   9.459  23.649  0.00  0.00    +0.000 Cl
ATOM     18  C   UNL     1       0.692  10.627  21.141  0.00  0.00    +0.000 A 
BRANCH  12  20
ATOM     19  C   UNL     1       2.269  11.982  18.383  0.00  0.00    +0.000 C 
ATOM     20  O   UNL     1       1.049  11.608  19.012  0.00  0.00    +0.000 OA
ENDBRANCH  12  20
BRANCH  18  21
ATOM     21  O   UNL     1       0.357  11.920  21.448  0.00  0.00    +0.000 OA
ATOM     22  C   UNL     1      -0.949  12.276  21.855  0.00  0.00    +0.000 C 
ENDBRANCH  18  21
ENDBRANCH   1  14
BRANCH  10  23
ATOM     23  O   UNL     1       4.314   5.629  17.094  0.00  0.00    +0.000 OA
BRANCH  23  24
ATOM     24  C   UNL     1       5.692   5.646  17.484  0.00  0.00    +0.000 C 
ATOM     25  C   UNL     1       6.318   6.952  16.986  0.00  0.00    +0.000 C 
BRANCH  24  26
ATOM     26  C   UNL     1       6.437   4.430  16.849  0.00  0.00    +0.000 C 
ATOM     27  C   UNL     1       5.575   3.652  15.853  0.00  0.00    +0.000 C 
ATOM     28  N   UNL     1       5.814   4.299  14.599  0.00  0.00    +0.000 N 
ATOM     29  C   UNL     1       6.998   5.008  14.598  0.00  0.00    +0.000 C 
ATOM     30  O   UNL     1       7.459   5.617  13.647  0.00  0.00    +0.000 OA
ATOM     31  C   UNL     1       7.629   4.834  15.960  0.00  0.00    +0.000 C 
ATOM     32  H   UNL     1       5.247   4.221  13.764  0.00  0.00    +0.000 HD
ENDBRANCH  24  26
ENDBRANCH  23  24
ENDBRANCH  10  23
TORSDOF 6
ENDMDL
MODEL 6
REMARK VINA RESULT:      -8.0      1.986      2.828
REMARK  Name = 
REMARK  9 active torsions:
REMARK  status: ('A' for Active; 'I' for Inactive)
REMARK    1  A    between atoms: C_1  and  O_2
REMARK    2  A    between atoms: O_2  and  C_3
REMARK    3  A    between atoms: C_5  and  C_6
REMARK    4  A    between atoms: C_15  and  O_16
REMARK    5  A    between atoms: O_16  and  C_17
REMARK    6  A    between atoms: C_17  and  C_18
REMARK    7  A    between atoms: C_17  and  C_19
REMARK    8  A    between atoms: C_29  and  O_30
REMARK    9  A    between atoms: O_30  and  C_31
REMARK                            x       y       z     vdW  Elec       q    Type
REMARK                         _______ _______ _______ _____ _____    ______ ____
ROOT
ATOM      1  C   UNL     1       2.222   6.724  19.546  0.00  0.00    +0.000 A 
ATOM      2  C   UNL     1       1.784   5.572  20.184  0.00  0.00    +0.000 A 
ATOM      3  C   UNL     1       2.100   4.314  19.653  0.00  0.00    +0.000 A 
ATOM      4  C   UNL     1       2.821   4.235  18.448  0.00  0.00    +0.000 A 
ATOM      5  C   UNL     1       3.048   2.968  17.875  0.00  0.00    +0.000 A 
ATOM      6  C   UNL     1       2.639   1.806  18.521  0.00  0.00    +0.000 A 
ATOM      7  C   UNL     1       1.999   1.905  19.749  0.00  0.00    +0.000 A 
ATOM      8  N   UNL     1       1.705   3.133  20.316  0.00  0.00    +0.000 N 
ATOM      9  O   UNL     1       1.095   3.174  21.439  0.00  0.00    +0.000 OA
ATOM     10  C   UNL     1       3.266   5.451  17.903  0.00  0.00    +0.000 A 
ATOM     11  N   UNL     1       2.982   6.673  18.419  0.00  0.00    +0.000 NA
ENDROOT
BRANCH   1  14
ATOM     12  C   UNL     1       1.079   9.564  21.825  0.00  0.00    +0.000 A 
ATOM     13  C   UNL     1       1.556   8.320  21.391  0.00  0.00    +0.000 A 
ATOM     14  C   UNL     1       1.835   8.069  20.036  0.00  0.00    +0.000 A 
ATOM     15  C   UNL     1       1.665   9.135  19.145  0.00  0.00    +0.000 A 
ATOM     16  C   UNL     1       1.191  10.395  19.561  0.00  0.00    +0.000 A 
ATOM     17 CL   UNL     1       1.034  11.546  18.276  0.00  0.00    +0.000 Cl
ATOM     18  C   UNL     1       0.875  10.623  20.908  0.00  0.00    +0.000 A 
BRANCH  12  20
ATOM     19  C   UNL     1      -0.618   9.522  23.518  0.00  0.00    +0.000 C 
ATOM     20  O   UNL     1       0.719   9.814  23.132  0.00  0.00    +0.000 OA
ENDBRANCH  12  20
BRANCH  18  21
ATOM     21  O   UNL     1       0.387  11.754  21.507  0.00  0.00    +0.000 OA
ATOM     22  C   UNL     1      -0.860  12.311  21.147  0.00  0.00    +0.000 C 
ENDBRANCH  18  21
ENDBRANCH   1  14
BRANCH  10  23
ATOM     23  O   UNL     1       4.096   5.347  16.798  0.00  0.00    +0.000 OA
BRANCH  23  24
ATOM     24  C   UNL     1       5.157   6.301  16.660  0.00  0.00    +0.000 C 
ATOM     25  C   UNL     1       4.911   7.113  15.385  0.00  0.00    +0.000 C 
BRANCH  24  26
ATOM     26  C   UNL     1       6.526   5.559  16.554  0.00  0.00    +0.000 C 
ATOM     27  C   UNL     1       6.466   4.116  17.057  0.00  0.00    +0.000 C 
ATOM     28  N   UNL     1       6.102   3.354  15.903  0.00  0.00    +0.000 N 
ATOM     29  C   UNL     1       6.389   4.021  14.729  0.00  0.00    +0.000 C 
ATOM     30  O   UNL     1       6.215   3.583  13.604  0.00  0.00    +0.000 OA
ATOM     31  C   UNL     1       7.003   5.350  15.103  0.00  0.00    +0.000 C 
ATOM     32  H   UNL     1       5.738   2.409  15.895  0.00  0.00    +0.000 HD
ENDBRANCH  24  26
ENDBRANCH  23  24
ENDBRANCH  10  23
TORSDOF 6
ENDMDL
MODEL 7
REMARK VINA RESULT:      -7.9      0.965      1.060
REMARK  Name = 
REMARK  9 active torsions:
REMARK  status: ('A' for Active; 'I' for Inactive)
REMARK    1  A    between atoms: C_1  and  O_2
REMARK    2  A    between atoms: O_2  and  C_3
REMARK    3  A    between atoms: C_5  and  C_6
REMARK    4  A    between atoms: C_15  and  O_16
REMARK    5  A    between atoms: O_16  and  C_17
REMARK    6  A    between atoms: C_17  and  C_18
REMARK    7  A    between atoms: C_17  and  C_19
REMARK    8  A    between atoms: C_29  and  O_30
REMARK    9  A    between atoms: O_30  and  C_31
REMARK                            x       y       z     vdW  Elec       q    Type
REMARK                         _______ _______ _______ _____ _____    ______ ____
ROOT
ATOM      1  C   UNL     1       2.006   6.915  19.931  0.00  0.00    +0.000 A 
ATOM      2  C   UNL     1       1.977   5.774  20.723  0.00  0.00    +0.000 A 
ATOM      3  C   UNL     1       2.466   4.560  20.221  0.00  0.00    +0.000 A 
ATOM      4  C   UNL     1       2.940   4.502  18.899  0.00  0.00    +0.000 A 
ATOM      5  C   UNL     1       3.338   3.255  18.376  0.00  0.00    +0.000 A 
ATOM      6  C   UNL     1       3.342   2.114  19.170  0.00  0.00    +0.000 A 
ATOM      7  C   UNL     1       2.945   2.212  20.496  0.00  0.00    +0.000 A 
ATOM      8  N   UNL     1       2.490   3.405  21.030  0.00  0.00    +0.000 N 
ATOM      9  O   UNL     1       2.115   3.442  22.252  0.00  0.00    +0.000 OA
ATOM     10  C   UNL     1       2.979   5.715  18.192  0.00  0.00    +0.000 A 
ATOM     11  N   UNL     1       2.525   6.899  18.674  0.00  0.00    +0.000 NA
ENDROOT
BRANCH   1  14
ATOM     12  C   UNL     1       0.898  10.563  20.067  0.00  0.00    +0.000 A 
ATOM     13  C   UNL     1       1.344   9.329  19.577  0.00  0.00    +0.000 A 
ATOM     14  C   UNL     1       1.421   8.193  20.402  0.00  0.00    +0.000 A 
ATOM     15  C   UNL     1       0.983   8.337  21.724  0.00  0.00    +0.000 A 
ATOM     16  C   UNL     1       0.527   9.568  22.235  0.00  0.00    +0.000 A 
ATOM     17 CL   UNL     1       0.066   9.509  23.903  0.00  0.00    +0.000 Cl
ATOM     18  C   UNL     1       0.493  10.706  21.416  0.00  0.00    +0.000 A 
BRANCH  12  20
ATOM     19  C   UNL     1       2.014  11.965  18.474  0.00  0.00    +0.000 C 
ATOM     20  O   UNL     1       0.888  11.712  19.306  0.00  0.00    +0.000 OA
ENDBRANCH  12  20
BRANCH  18  21
ATOM     21  O   UNL     1       0.109  11.985  21.720  0.00  0.00    +0.000 OA
ATOM     22  C   UNL     1      -1.180  12.279  22.220  0.00  0.00    +0.000 C 
ENDBRANCH  18  21
ENDBRANCH   1  14
BRANCH  10  23
ATOM     23  O   UNL     1       3.582   5.666  16.944  0.00  0.00    +0.000 OA
BRANCH  23  24
ATOM     24  C   UNL     1       4.795   6.404  16.753  0.00  0.00    +0.000 C 
ATOM     25  C   UNL     1       4.910   6.765  15.269  0.00  0.00    +0.000 C 
BRANCH  24  26
ATOM     26  C   UNL     1       6.018   5.533  17.179  0.00  0.00    +0.000 C 
ATOM     27  C   UNL     1       7.162   5.568  16.164  0.00  0.00    +0.000 C 
ATOM     28  N   UNL     1       7.964   6.679  16.575  0.00  0.00    +0.000 N 
ATOM     29  C   UNL     1       7.755   7.008  17.899  0.00  0.00    +0.000 C 
ATOM     30  O   UNL     1       8.338   7.887  18.511  0.00  0.00    +0.000 OA
ATOM     31  C   UNL     1       6.728   6.045  18.447  0.00  0.00    +0.000 C 
ATOM     32  H   UNL     1       8.664   7.155  16.019  0.00  0.00    +0.000 HD
ENDBRANCH  24  26
ENDBRANCH  23  24
ENDBRANCH  10  23
TORSDOF 6
ENDMDL
MODEL 8
REMARK VINA RESULT:      -7.8      1.605      2.246
REMARK  Name = 
REMARK  9 active torsions:
REMARK  status: ('A' for Active; 'I' for Inactive)
REMARK    1  A    between atoms: C_1  and  O_2
REMARK    2  A    between atoms: O_2  and  C_3
REMARK    3  A    between atoms: C_5  and  C_6
REMARK    4  A    between atoms: C_15  and  O_16
REMARK    5  A    between atoms: O_16  and  C_17
REMARK    6  A    between atoms: C_17  and  C_18
REMARK    7  A    between atoms: C_17  and  C_19
REMARK    8  A    between atoms: C_29  and  O_30
REMARK    9  A    between atoms: O_30  and  C_31
REMARK                            x       y       z     vdW  Elec       q    Type
REMARK                         _______ _______ _______ _____ _____    ______ ____
ROOT
ATOM      1  C   UNL     1       2.338   6.332  19.765  0.00  0.00    +0.000 A 
ATOM      2  C   UNL     1       1.579   5.186  19.572  0.00  0.00    +0.000 A 
ATOM      3  C   UNL     1       2.207   3.976  19.247  0.00  0.00    +0.000 A 
ATOM      4  C   UNL     1       3.602   3.948  19.073  0.00  0.00    +0.000 A 
ATOM      5  C   UNL     1       4.210   2.748  18.652  0.00  0.00    +0.000 A 
ATOM      6  C   UNL     1       3.463   1.588  18.485  0.00  0.00    +0.000 A 
ATOM      7  C   UNL     1       2.098   1.620  18.739  0.00  0.00    +0.000 A 
ATOM      8  N   UNL     1       1.455   2.792  19.096  0.00  0.00    +0.000 N 
ATOM      9  O   UNL     1       0.193   2.777  19.299  0.00  0.00    +0.000 OA
ATOM     10  C   UNL     1       4.292   5.143  19.341  0.00  0.00    +0.000 A 
ATOM     11  N   UNL     1       3.695   6.315  19.674  0.00  0.00    +0.000 NA
ENDROOT
BRANCH   1  14
ATOM     12  C   UNL     1       1.124   9.925  19.344  0.00  0.00    +0.000 A 
ATOM     13  C   UNL     1       1.625   8.650  19.050  0.00  0.00    +0.000 A 
ATOM     14  C   UNL     1       1.698   7.643  20.029  0.00  0.00    +0.000 A 
ATOM     15  C   UNL     1       1.199   7.955  21.299  0.00  0.00    +0.000 A 
ATOM     16  C   UNL     1       0.687   9.229  21.615  0.00  0.00    +0.000 A 
ATOM     17 CL   UNL     1       0.157   9.387  23.255  0.00  0.00    +0.000 Cl
ATOM     18  C   UNL     1       0.657  10.240  20.642  0.00  0.00    +0.000 A 
BRANCH  12  20
ATOM     19  C   UNL     1       2.367  11.514  18.048  0.00  0.00    +0.000 C 
ATOM     20  O   UNL     1       1.115  10.956  18.429  0.00  0.00    +0.000 OA
ENDBRANCH  12  20
BRANCH  18  21
ATOM     21  O   UNL     1       0.225  11.535  20.749  0.00  0.00    +0.000 OA
ATOM     22  C   UNL     1      -1.140  11.855  20.925  0.00  0.00    +0.000 C 
ENDBRANCH  18  21
ENDBRANCH   1  14
BRANCH  10  23
ATOM     23  O   UNL     1       5.675   5.060  19.307  0.00  0.00    +0.000 OA
BRANCH  23  24
ATOM     24  C   UNL     1       6.297   4.691  18.070  0.00  0.00    +0.000 C 
ATOM     25  C   UNL     1       7.815   4.708  18.269  0.00  0.00    +0.000 C 
BRANCH  24  26
ATOM     26  C   UNL     1       5.902   5.709  16.954  0.00  0.00    +0.000 C 
ATOM     27  C   UNL     1       7.111   6.359  16.280  0.00  0.00    +0.000 C 
ATOM     28  N   UNL     1       7.426   5.480  15.196  0.00  0.00    +0.000 N 
ATOM     29  C   UNL     1       6.350   4.691  14.839  0.00  0.00    +0.000 C 
ATOM     30  O   UNL     1       6.336   3.886  13.923  0.00  0.00    +0.000 OA
ATOM     31  C   UNL     1       5.200   5.058  15.746  0.00  0.00    +0.000 C 
ATOM     32  H   UNL     1       8.295   5.449  14.678  0.00  0.00    +0.000 HD
ENDBRANCH  24  26
ENDBRANCH  23  24
ENDBRANCH  10  23
TORSDOF 6
ENDMDL
MODEL 9
REMARK VINA RESULT:      -7.8      1.801      4.186
REMARK  Name = 
REMARK  9 active torsions:
REMARK  status: ('A' for Active; 'I' for Inactive)
REMARK    1  A    between atoms: C_1  and  O_2
REMARK    2  A    between atoms: O_2  and  C_3
REMARK    3  A    between atoms: C_5  and  C_6
REMARK    4  A    between atoms: C_15  and  O_16
REMARK    5  A    between atoms: O_16  and  C_17
REMARK    6  A    between atoms: C_17  and  C_18
REMARK    7  A    between atoms: C_17  and  C_19
REMARK    8  A    between atoms: C_29  and  O_30
REMARK    9  A    between atoms: O_30  and  C_31
REMARK                            x       y       z     vdW  Elec       q    Type
REMARK                         _______ _______ _______ _____ _____    ______ ____
ROOT
ATOM      1  C   UNL     1       2.735   7.180  18.189  0.00  0.00    +0.000 A 
ATOM      2  C   UNL     1       4.026   7.335  17.704  0.00  0.00    +0.000 A 
ATOM      3  C   UNL     1       4.712   6.234  17.172  0.00  0.00    +0.000 A 
ATOM      4  C   UNL     1       4.096   4.970  17.178  0.00  0.00    +0.000 A 
ATOM      5  C   UNL     1       4.832   3.855  16.729  0.00  0.00    +0.000 A 
ATOM      6  C   UNL     1       6.115   4.004  16.214  0.00  0.00    +0.000 A 
ATOM      7  C   UNL     1       6.672   5.274  16.145  0.00  0.00    +0.000 A 
ATOM      8  N   UNL     1       6.005   6.385  16.631  0.00  0.00    +0.000 N 
ATOM      9  O   UNL     1       6.568   7.531  16.564  0.00  0.00    +0.000 OA
ATOM     10  C   UNL     1       2.770   4.920  17.639  0.00  0.00    +0.000 A 
ATOM     11  N   UNL     1       2.091   5.983  18.140  0.00  0.00    +0.000 NA
ENDROOT
BRANCH   1  14
ATOM     12  C   UNL     1       1.311  10.652  18.884  0.00  0.00    +0.000 A 
ATOM     13  C   UNL     1       1.891   9.564  18.218  0.00  0.00    +0.000 A 
ATOM     14  C   UNL     1       2.015   8.305  18.832  0.00  0.00    +0.000 A 
ATOM     15  C   UNL     1       1.485   8.173  20.122  0.00  0.00    +0.000 A 
ATOM     16  C   UNL     1       0.894   9.253  20.807  0.00  0.00    +0.000 A 
ATOM     17 CL   UNL     1       0.339   8.857  22.398  0.00  0.00    +0.000 Cl
ATOM     18  C   UNL     1       0.813  10.516  20.201  0.00  0.00    +0.000 A 
BRANCH  12  20
ATOM     19  C   UNL     1       2.473  12.619  18.158  0.00  0.00    +0.000 C 
ATOM     20  O   UNL     1       1.249  11.916  18.339  0.00  0.00    +0.000 OA
ENDBRANCH  12  20
BRANCH  18  21
ATOM     21  O   UNL     1       0.302  11.686  20.697  0.00  0.00    +0.000 OA
ATOM     22  C   UNL     1      -1.087  11.888  20.852  0.00  0.00    +0.000 C 
ENDBRANCH  18  21
ENDBRANCH   1  14
BRANCH  10  23
ATOM     23  O   UNL     1       2.131   3.697  17.503  0.00  0.00    +0.000 OA
BRANCH  23  24
ATOM     24  C   UNL     1       2.052   2.847  18.654  0.00  0.00    +0.000 C 
ATOM     25  C   UNL     1       0.592   2.423  18.841  0.00  0.00    +0.000 C 
BRANCH  24  26
ATOM     26  C   UNL     1       2.541   3.622  19.918  0.00  0.00    +0.000 C 
ATOM     27  C   UNL     1       1.924   3.100  21.217  0.00  0.00    +0.000 C 
ATOM     28  N   UNL     1       2.823   2.074  21.647  0.00  0.00    +0.000 N 
ATOM     29  C   UNL     1       4.078   2.217  21.091  0.00  0.00    +0.000 C 
ATOM     30  O   UNL     1       5.040   1.503  21.320  0.00  0.00    +0.000 OA
ATOM     31  C   UNL     1       4.044   3.442  20.208  0.00  0.00    +0.000 C 
ATOM     32  H   UNL     1       2.629   1.349  22.327  0.00  0.00    +0.000 HD
ENDBRANCH  24  26
ENDBRANCH  23  24
ENDBRANCH  10  23
TORSDOF 6
ENDMDL
