MODEL 1
REMARK VINA RESULT:      -7.3      0.000      0.000
REMARK  Name = 
REMARK  7 active torsions:
REMARK  status: ('A' for Active; 'I' for Inactive)
REMARK    1  A    between atoms: C_2  and  C_4
REMARK    2  A    between atoms: C_4  and  S_5
REMARK    3  A    between atoms: C_4  and  C_18
REMARK    4  A    between atoms: S_5  and  C_6
REMARK    5  A    between atoms: C_6  and  C_7
REMARK    6  A    between atoms: C_10  and  O_11
REMARK    7  A    between atoms: O_11  and  C_12
REMARK                            x       y       z     vdW  Elec       q    Type
REMARK                         _______ _______ _______ _____ _____    ______ ____
ROOT
ATOM      1  S   UNL     1       6.439   4.523  16.749  0.00  0.00    +0.000 S 
ENDROOT
BRANCH   1   2
ATOM      2  C   UNL     1       6.076   6.298  17.097  0.00  0.00    +0.000 C 
BRANCH   2   3
ATOM      3  C   UNL     1       4.772   6.498  17.862  0.00  0.00    +0.000 A 
ATOM      4  C   UNL     1       3.715   7.277  17.364  0.00  0.00    +0.000 A 
ATOM      5  C   UNL     1       2.544   7.456  18.103  0.00  0.00    +0.000 A 
ATOM      6  C   UNL     1       2.405   6.860  19.352  0.00  0.00    +0.000 A 
ATOM      7  C   UNL     1       3.430   6.066  19.856  0.00  0.00    +0.000 A 
ATOM      8  C   UNL     1       4.599   5.879  19.116  0.00  0.00    +0.000 A 
ENDBRANCH   2   3
BRANCH   2  10
ATOM      9  N   UNL     1       7.665   8.190  17.233  0.00  0.00    +0.000 N 
ATOM     10  C   UNL     1       7.325   6.955  17.717  0.00  0.00    +0.000 C 
ATOM     11  O   UNL     1       8.013   6.464  18.607  0.00  0.00    +0.000 OA
ATOM     12  H   UNL     1       8.479   8.634  17.637  0.00  0.00    +0.000 HD
ATOM     13  H   UNL     1       7.135   8.686  16.532  0.00  0.00    +0.000 HD
ENDBRANCH   2  10
ENDBRANCH   1   2
BRANCH   1  14
ATOM     14  C   UNL     1       4.832   3.985  16.063  0.00  0.00    +0.000 C 
BRANCH  14  15
ATOM     15  C   UNL     1       3.908   3.461  17.141  0.00  0.00    +0.000 A 
ATOM     16  C   UNL     1       4.416   2.739  18.229  0.00  0.00    +0.000 A 
ATOM     17  C   UNL     1       3.566   2.289  19.240  0.00  0.00    +0.000 A 
ATOM     18  C   UNL     1       2.201   2.577  19.202  0.00  0.00    +0.000 A 
ATOM     19  C   UNL     1       1.680   3.268  18.111  0.00  0.00    +0.000 A 
ATOM     20  C   UNL     1       2.532   3.723  17.094  0.00  0.00    +0.000 A 
BRANCH  18  21
ATOM     21  O   UNL     1       1.484   2.068  20.241  0.00  0.00    +0.000 OA
BRANCH  21  22
ATOM     22  C   UNL     1       1.532   2.712  21.504  0.00  0.00    +0.000 C 
ATOM     23  F   UNL     1       0.634   2.260  22.403  0.00  0.00    +0.000 F 
ATOM     24  F   UNL     1       2.771   2.572  22.025  0.00  0.00    +0.000 F 
ATOM     25  F   UNL     1       1.304   4.033  21.321  0.00  0.00    +0.000 F 
ENDBRANCH  21  22
ENDBRANCH  18  21
ENDBRANCH  14  15
ENDBRANCH   1  14
TORSDOF 7
ENDMDL
MODEL 2
REMARK VINA RESULT:      -7.2      3.930      5.795
REMARK  Name = 
REMARK  7 active torsions:
REMARK  status: ('A' for Active; 'I' for Inactive)
REMARK    1  A    between atoms: C_2  and  C_4
REMARK    2  A    between atoms: C_4  and  S_5
REMARK    3  A    between atoms: C_4  and  C_18
REMARK    4  A    between atoms: S_5  and  C_6
REMARK    5  A    between atoms: C_6  and  C_7
REMARK    6  A    between atoms: C_10  and  O_11
REMARK    7  A    between atoms: O_11  and  C_12
REMARK                            x       y       z     vdW  Elec       q    Type
REMARK                         _______ _______ _______ _____ _____    ______ ____
ROOT
ATOM      1  S   UNL     1       1.864   3.321  18.150  0.00  0.00    +0.000 S 
ENDROOT
BRANCH   1   2
ATOM      2  C   UNL     1       2.439   4.263  19.629  0.00  0.00    +0.000 C 
BRANCH   2   3
ATOM      3  C   UNL     1       2.267   5.770  19.477  0.00  0.00    +0.000 A 
ATOM      4  C   UNL     1       2.626   6.458  18.306  0.00  0.00    +0.000 A 
ATOM      5  C   UNL     1       2.475   7.843  18.211  0.00  0.00    +0.000 A 
ATOM      6  C   UNL     1       1.960   8.567  19.281  0.00  0.00    +0.000 A 
ATOM      7  C   UNL     1       1.577   7.905  20.443  0.00  0.00    +0.000 A 
ATOM      8  C   UNL     1       1.720   6.519  20.538  0.00  0.00    +0.000 A 
ENDBRANCH   2   3
BRANCH   2  10
ATOM      9  N   UNL     1       0.602   3.027  20.736  0.00  0.00    +0.000 N 
ATOM     10  C   UNL     1       1.815   3.642  20.895  0.00  0.00    +0.000 C 
ATOM     11  O   UNL     1       2.328   3.649  22.010  0.00  0.00    +0.000 OA
ATOM     12  H   UNL     1       0.187   2.610  21.558  0.00  0.00    +0.000 HD
ATOM     13  H   UNL     1       0.128   2.939  19.850  0.00  0.00    +0.000 HD
ENDBRANCH   2  10
ENDBRANCH   1   2
BRANCH   1  14
ATOM     14  C   UNL     1       3.429   2.525  17.638  0.00  0.00    +0.000 C 
BRANCH  14  15
ATOM     15  C   UNL     1       4.531   3.539  17.422  0.00  0.00    +0.000 A 
ATOM     16  C   UNL     1       4.656   4.209  16.198  0.00  0.00    +0.000 A 
ATOM     17  C   UNL     1       5.651   5.170  16.015  0.00  0.00    +0.000 A 
ATOM     18  C   UNL     1       6.518   5.504  17.057  0.00  0.00    +0.000 A 
ATOM     19  C   UNL     1       6.422   4.824  18.268  0.00  0.00    +0.000 A 
ATOM     20  C   UNL     1       5.422   3.858  18.456  0.00  0.00    +0.000 A 
BRANCH  18  21
ATOM     21  O   UNL     1       7.450   6.445  16.742  0.00  0.00    +0.000 OA
BRANCH  21  22
ATOM     22  C   UNL     1       7.609   7.578  17.582  0.00  0.00    +0.000 C 
ATOM     23  F   UNL     1       8.324   8.585  17.041  0.00  0.00    +0.000 F 
ATOM     24  F   UNL     1       6.390   8.049  17.923  0.00  0.00    +0.000 F 
ATOM     25  F   UNL     1       8.236   7.187  18.715  0.00  0.00    +0.000 F 
ENDBRANCH  21  22
ENDBRANCH  18  21
ENDBRANCH  14  15
ENDBRANCH   1  14
TORSDOF 7
ENDMDL
MODEL 3
REMARK VINA RESULT:      -6.8      0.865      1.191
REMARK  Name = 
REMARK  7 active torsions:
REMARK  status: ('A' for Active; 'I' for Inactive)
REMARK    1  A    between atoms: C_2  and  C_4
REMARK    2  A    between atoms: C_4  and  S_5
REMARK    3  A    between atoms: C_4  and  C_18
REMARK    4  A    between atoms: S_5  and  C_6
REMARK    5  A    between atoms: C_6  and  C_7
REMARK    6  A    between atoms: C_10  and  O_11
REMARK    7  A    between atoms: O_11  and  C_12
REMARK                            x       y       z     vdW  Elec       q    Type
REMARK                         _______ _______ _______ _____ _____    ______ ____
ROOT
ATOM      1  S   UNL     1       6.188   4.267  16.373  0.00  0.00    +0.000 S 
ENDROOT
BRANCH   1   2
ATOM      2  C   UNL     1       6.264   5.921  17.187  0.00  0.00    +0.000 C 
BRANCH   2   3
ATOM      3  C   UNL     1       4.942   6.331  17.825  0.00  0.00    +0.000 A 
ATOM      4  C   UNL     1       4.027   7.184  17.187  0.00  0.00    +0.000 A 
ATOM      5  C   UNL     1       2.835   7.556  17.810  0.00  0.00    +0.000 A 
ATOM      6  C   UNL     1       2.531   7.081  19.083  0.00  0.00    +0.000 A 
ATOM      7  C   UNL     1       3.412   6.217  19.726  0.00  0.00    +0.000 A 
ATOM      8  C   UNL     1       4.601   5.838  19.100  0.00  0.00    +0.000 A 
ENDBRANCH   2   3
BRANCH   2  10
ATOM      9  N   UNL     1       7.988   4.764  18.536  0.00  0.00    +0.000 N 
ATOM     10  C   UNL     1       7.498   5.970  18.111  0.00  0.00    +0.000 C 
ATOM     11  O   UNL     1       8.067   6.996  18.473  0.00  0.00    +0.000 OA
ATOM     12  H   UNL     1       8.801   4.784  19.137  0.00  0.00    +0.000 HD
ATOM     13  H   UNL     1       7.608   3.873  18.257  0.00  0.00    +0.000 HD
ENDBRANCH   2  10
ENDBRANCH   1   2
BRANCH   1  14
ATOM     14  C   UNL     1       4.411   4.190  15.949  0.00  0.00    +0.000 C 
BRANCH  14  15
ATOM     15  C   UNL     1       3.587   3.617  17.081  0.00  0.00    +0.000 A 
ATOM     16  C   UNL     1       4.178   2.799  18.053  0.00  0.00    +0.000 A 
ATOM     17  C   UNL     1       3.423   2.302  19.115  0.00  0.00    +0.000 A 
ATOM     18  C   UNL     1       2.075   2.637  19.248  0.00  0.00    +0.000 A 
ATOM     19  C   UNL     1       1.469   3.425  18.273  0.00  0.00    +0.000 A 
ATOM     20  C   UNL     1       2.225   3.927  17.204  0.00  0.00    +0.000 A 
BRANCH  18  21
ATOM     21  O   UNL     1       1.452   2.075  20.320  0.00  0.00    +0.000 OA
BRANCH  21  22
ATOM     22  C   UNL     1       1.632   2.643  21.608  0.00  0.00    +0.000 C 
ATOM     23  F   UNL     1       1.679   3.991  21.628  0.00  0.00    +0.000 F 
ATOM     24  F   UNL     1       0.629   2.234  22.415  0.00  0.00    +0.000 F 
ATOM     25  F   UNL     1       2.795   2.181  22.122  0.00  0.00    +0.000 F 
ENDBRANCH  21  22
ENDBRANCH  18  21
ENDBRANCH  14  15
ENDBRANCH   1  14
TORSDOF 7
ENDMDL
MODEL 4
REMARK VINA RESULT:      -6.8      2.183      3.962
REMARK  Name = 
REMARK  7 active torsions:
REMARK  status: ('A' for Active; 'I' for Inactive)
REMARK    1  A    between atoms: C_2  and  C_4
REMARK    2  A    between atoms: C_4  and  S_5
REMARK    3  A    between atoms: C_4  and  C_18
REMARK    4  A    between atoms: S_5  and  C_6
REMARK    5  A    between atoms: C_6  and  C_7
REMARK    6  A    between atoms: C_10  and  O_11
REMARK    7  A    between atoms: O_11  and  C_12
REMARK                            x       y       z     vdW  Elec       q    Type
REMARK                         _______ _______ _______ _____ _____    ______ ____
ROOT
ATOM      1  S   UNL     1       5.384   7.002  17.421  0.00  0.00    +0.000 S 
ENDROOT
BRANCH   1   2
ATOM      2  C   UNL     1       5.378   5.185  17.102  0.00  0.00    +0.000 C 
BRANCH   2   3
ATOM      3  C   UNL     1       5.840   4.828  15.694  0.00  0.00    +0.000 A 
ATOM      4  C   UNL     1       7.101   5.195  15.195  0.00  0.00    +0.000 A 
ATOM      5  C   UNL     1       7.482   4.870  13.892  0.00  0.00    +0.000 A 
ATOM      6  C   UNL     1       6.612   4.169  13.062  0.00  0.00    +0.000 A 
ATOM      7  C   UNL     1       5.367   3.775  13.541  0.00  0.00    +0.000 A 
ATOM      8  C   UNL     1       4.988   4.093  14.846  0.00  0.00    +0.000 A 
ENDBRANCH   2   3
BRANCH   2  10
ATOM      9  N   UNL     1       5.476   3.395  18.808  0.00  0.00    +0.000 N 
ATOM     10  C   UNL     1       6.116   4.470  18.251  0.00  0.00    +0.000 C 
ATOM     11  O   UNL     1       7.222   4.783  18.682  0.00  0.00    +0.000 OA
ATOM     12  H   UNL     1       5.954   2.914  19.559  0.00  0.00    +0.000 HD
ATOM     13  H   UNL     1       4.585   3.044  18.491  0.00  0.00    +0.000 HD
ENDBRANCH   2  10
ENDBRANCH   1   2
BRANCH   1  14
ATOM     14  C   UNL     1       3.588   7.348  17.393  0.00  0.00    +0.000 C 
BRANCH  14  15
ATOM     15  C   UNL     1       2.822   6.417  18.307  0.00  0.00    +0.000 A 
ATOM     16  C   UNL     1       2.383   5.167  17.851  0.00  0.00    +0.000 A 
ATOM     17  C   UNL     1       1.709   4.297  18.707  0.00  0.00    +0.000 A 
ATOM     18  C   UNL     1       1.489   4.640  20.042  0.00  0.00    +0.000 A 
ATOM     19  C   UNL     1       1.894   5.891  20.500  0.00  0.00    +0.000 A 
ATOM     20  C   UNL     1       2.573   6.768  19.641  0.00  0.00    +0.000 A 
BRANCH  18  21
ATOM     21  O   UNL     1       0.808   3.709  20.764  0.00  0.00    +0.000 OA
BRANCH  21  22
ATOM     22  C   UNL     1       1.528   2.695  21.449  0.00  0.00    +0.000 C 
ATOM     23  F   UNL     1       2.728   3.082  21.929  0.00  0.00    +0.000 F 
ATOM     24  F   UNL     1       0.779   2.240  22.478  0.00  0.00    +0.000 F 
ATOM     25  F   UNL     1       1.736   1.665  20.597  0.00  0.00    +0.000 F 
ENDBRANCH  21  22
ENDBRANCH  18  21
ENDBRANCH  14  15
ENDBRANCH   1  14
TORSDOF 7
ENDMDL
MODEL 5
REMARK VINA RESULT:      -6.8      4.718      6.471
REMARK  Name = 
REMARK  7 active torsions:
REMARK  status: ('A' for Active; 'I' for Inactive)
REMARK    1  A    between atoms: C_2  and  C_4
REMARK    2  A    between atoms: C_4  and  S_5
REMARK    3  A    between atoms: C_4  and  C_18
REMARK    4  A    between atoms: S_5  and  C_6
REMARK    5  A    between atoms: C_6  and  C_7
REMARK    6  A    between atoms: C_10  and  O_11
REMARK    7  A    between atoms: O_11  and  C_12
REMARK                            x       y       z     vdW  Elec       q    Type
REMARK                         _______ _______ _______ _____ _____    ______ ____
ROOT
ATOM      1  S   UNL     1       3.608   3.487  18.958  0.00  0.00    +0.000 S 
ENDROOT
BRANCH   1   2
ATOM      2  C   UNL     1       2.906   4.554  20.289  0.00  0.00    +0.000 C 
BRANCH   2   3
ATOM      3  C   UNL     1       2.497   5.936  19.790  0.00  0.00    +0.000 A 
ATOM      4  C   UNL     1       2.665   6.338  18.455  0.00  0.00    +0.000 A 
ATOM      5  C   UNL     1       2.299   7.619  18.039  0.00  0.00    +0.000 A 
ATOM      6  C   UNL     1       1.756   8.523  18.946  0.00  0.00    +0.000 A 
ATOM      7  C   UNL     1       1.560   8.140  20.269  0.00  0.00    +0.000 A 
ATOM      8  C   UNL     1       1.918   6.857  20.686  0.00  0.00    +0.000 A 
ENDBRANCH   2   3
BRANCH   2  10
ATOM      9  N   UNL     1       0.625   3.599  20.393  0.00  0.00    +0.000 N 
ATOM     10  C   UNL     1       1.818   3.766  21.045  0.00  0.00    +0.000 C 
ATOM     11  O   UNL     1       1.950   3.275  22.162  0.00  0.00    +0.000 OA
ATOM     12  H   UNL     1      -0.094   3.078  20.877  0.00  0.00    +0.000 HD
ATOM     13  H   UNL     1       0.442   3.934  19.460  0.00  0.00    +0.000 HD
ENDBRANCH   2  10
ENDBRANCH   1   2
BRANCH   1  14
ATOM     14  C   UNL     1       5.286   4.201  18.814  0.00  0.00    +0.000 C 
BRANCH  14  15
ATOM     15  C   UNL     1       5.716   4.337  17.370  0.00  0.00    +0.000 A 
ATOM     16  C   UNL     1       4.777   4.254  16.333  0.00  0.00    +0.000 A 
ATOM     17  C   UNL     1       5.172   4.416  15.005  0.00  0.00    +0.000 A 
ATOM     18  C   UNL     1       6.501   4.698  14.687  0.00  0.00    +0.000 A 
ATOM     19  C   UNL     1       7.448   4.754  15.706  0.00  0.00    +0.000 A 
ATOM     20  C   UNL     1       7.055   4.592  17.042  0.00  0.00    +0.000 A 
BRANCH  18  21
ATOM     21  O   UNL     1       6.754   4.819  13.355  0.00  0.00    +0.000 OA
BRANCH  21  22
ATOM     22  C   UNL     1       6.490   3.722  12.493  0.00  0.00    +0.000 C 
ATOM     23  F   UNL     1       7.414   3.527  11.530  0.00  0.00    +0.000 F 
ATOM     24  F   UNL     1       6.390   2.595  13.231  0.00  0.00    +0.000 F 
ATOM     25  F   UNL     1       5.299   3.930  11.887  0.00  0.00    +0.000 F 
ENDBRANCH  21  22
ENDBRANCH  18  21
ENDBRANCH  14  15
ENDBRANCH   1  14
TORSDOF 7
ENDMDL
MODEL 6
REMARK VINA RESULT:      -6.8      2.444      4.231
REMARK  Name = 
REMARK  7 active torsions:
REMARK  status: ('A' for Active; 'I' for Inactive)
REMARK    1  A    between atoms: C_2  and  C_4
REMARK    2  A    between atoms: C_4  and  S_5
REMARK    3  A    between atoms: C_4  and  C_18
REMARK    4  A    between atoms: S_5  and  C_6
REMARK    5  A    between atoms: C_6  and  C_7
REMARK    6  A    between atoms: C_10  and  O_11
REMARK    7  A    between atoms: O_11  and  C_12
REMARK                            x       y       z     vdW  Elec       q    Type
REMARK                         _______ _______ _______ _____ _____    ______ ____
ROOT
ATOM      1  S   UNL     1       4.949   6.676  15.660  0.00  0.00    +0.000 S 
ENDROOT
BRANCH   1   2
ATOM      2  C   UNL     1       6.033   5.184  15.656  0.00  0.00    +0.000 C 
BRANCH   2   3
ATOM      3  C   UNL     1       6.291   4.640  14.256  0.00  0.00    +0.000 A 
ATOM      4  C   UNL     1       7.407   5.018  13.491  0.00  0.00    +0.000 A 
ATOM      5  C   UNL     1       7.599   4.517  12.203  0.00  0.00    +0.000 A 
ATOM      6  C   UNL     1       6.683   3.625  11.654  0.00  0.00    +0.000 A 
ATOM      7  C   UNL     1       5.582   3.218  12.401  0.00  0.00    +0.000 A 
ATOM      8  C   UNL     1       5.392   3.713  13.692  0.00  0.00    +0.000 A 
ENDBRANCH   2   3
BRANCH   2  10
ATOM      9  N   UNL     1       7.859   4.394  17.129  0.00  0.00    +0.000 N 
ATOM     10  C   UNL     1       7.288   5.471  16.505  0.00  0.00    +0.000 C 
ATOM     11  O   UNL     1       7.807   6.574  16.646  0.00  0.00    +0.000 OA
ATOM     12  H   UNL     1       8.687   4.570  17.683  0.00  0.00    +0.000 HD
ATOM     13  H   UNL     1       7.524   3.447  17.037  0.00  0.00    +0.000 HD
ENDBRANCH   2  10
ENDBRANCH   1   2
BRANCH   1  14
ATOM     14  C   UNL     1       4.835   6.997  17.457  0.00  0.00    +0.000 C 
BRANCH  14  15
ATOM     15  C   UNL     1       4.206   5.837  18.196  0.00  0.00    +0.000 A 
ATOM     16  C   UNL     1       2.896   5.431  17.908  0.00  0.00    +0.000 A 
ATOM     17  C   UNL     1       2.332   4.338  18.566  0.00  0.00    +0.000 A 
ATOM     18  C   UNL     1       3.072   3.609  19.498  0.00  0.00    +0.000 A 
ATOM     19  C   UNL     1       4.364   4.020  19.815  0.00  0.00    +0.000 A 
ATOM     20  C   UNL     1       4.935   5.118  19.155  0.00  0.00    +0.000 A 
BRANCH  18  21
ATOM     21  O   UNL     1       2.399   2.577  20.076  0.00  0.00    +0.000 OA
BRANCH  21  22
ATOM     22  C   UNL     1       1.593   2.823  21.218  0.00  0.00    +0.000 C 
ATOM     23  F   UNL     1       1.633   1.855  22.156  0.00  0.00    +0.000 F 
ATOM     24  F   UNL     1       1.974   3.989  21.785  0.00  0.00    +0.000 F 
ATOM     25  F   UNL     1       0.308   2.956  20.816  0.00  0.00    +0.000 F 
ENDBRANCH  21  22
ENDBRANCH  18  21
ENDBRANCH  14  15
ENDBRANCH   1  14
TORSDOF 7
ENDMDL
MODEL 7
REMARK VINA RESULT:      -6.8      3.964      6.076
REMARK  Name = 
REMARK  7 active torsions:
REMARK  status: ('A' for Active; 'I' for Inactive)
REMARK    1  A    between atoms: C_2  and  C_4
REMARK    2  A    between atoms: C_4  and  S_5
REMARK    3  A    between atoms: C_4  and  C_18
REMARK    4  A    between atoms: S_5  and  C_6
REMARK    5  A    between atoms: C_6  and  C_7
REMARK    6  A    between atoms: C_10  and  O_11
REMARK    7  A    between atoms: O_11  and  C_12
REMARK                            x       y       z     vdW  Elec       q    Type
REMARK                         _______ _______ _______ _____ _____    ______ ____
ROOT
ATOM      1  S   UNL     1       2.029   4.400  17.788  0.00  0.00    +0.000 S 
ENDROOT
BRANCH   1   2
ATOM      2  C   UNL     1       2.459   5.345  19.313  0.00  0.00    +0.000 C 
BRANCH   2   3
ATOM      3  C   UNL     1       2.137   6.831  19.203  0.00  0.00    +0.000 A 
ATOM      4  C   UNL     1       1.608   7.572  20.271  0.00  0.00    +0.000 A 
ATOM      5  C   UNL     1       1.305   8.927  20.127  0.00  0.00    +0.000 A 
ATOM      6  C   UNL     1       1.528   9.569  18.913  0.00  0.00    +0.000 A 
ATOM      7  C   UNL     1       2.072   8.861  17.847  0.00  0.00    +0.000 A 
ATOM      8  C   UNL     1       2.383   7.508  17.992  0.00  0.00    +0.000 A 
ENDBRANCH   2   3
BRANCH   2  10
ATOM      9  N   UNL     1       2.636   4.607  21.669  0.00  0.00    +0.000 N 
ATOM     10  C   UNL     1       1.865   4.620  20.538  0.00  0.00    +0.000 C 
ATOM     11  O   UNL     1       0.764   4.077  20.571  0.00  0.00    +0.000 OA
ATOM     12  H   UNL     1       2.253   4.140  22.481  0.00  0.00    +0.000 HD
ATOM     13  H   UNL     1       3.534   5.060  21.744  0.00  0.00    +0.000 HD
ENDBRANCH   2  10
ENDBRANCH   1   2
BRANCH   1  14
ATOM     14  C   UNL     1       3.595   3.497  17.507  0.00  0.00    +0.000 C 
BRANCH  14  15
ATOM     15  C   UNL     1       4.765   4.441  17.336  0.00  0.00    +0.000 A 
ATOM     16  C   UNL     1       4.781   5.378  16.294  0.00  0.00    +0.000 A 
ATOM     17  C   UNL     1       5.845   6.270  16.161  0.00  0.00    +0.000 A 
ATOM     18  C   UNL     1       6.895   6.269  17.081  0.00  0.00    +0.000 A 
ATOM     19  C   UNL     1       6.904   5.323  18.103  0.00  0.00    +0.000 A 
ATOM     20  C   UNL     1       5.836   4.425  18.240  0.00  0.00    +0.000 A 
BRANCH  18  21
ATOM     21  O   UNL     1       7.874   7.179  16.827  0.00  0.00    +0.000 OA
BRANCH  21  22
ATOM     22  C   UNL     1       8.048   8.279  17.708  0.00  0.00    +0.000 C 
ATOM     23  F   UNL     1       8.800   9.284  17.213  0.00  0.00    +0.000 F 
ATOM     24  F   UNL     1       6.836   8.772  18.044  0.00  0.00    +0.000 F 
ATOM     25  F   UNL     1       8.645   7.834  18.837  0.00  0.00    +0.000 F 
ENDBRANCH  21  22
ENDBRANCH  18  21
ENDBRANCH  14  15
ENDBRANCH   1  14
TORSDOF 7
ENDMDL
MODEL 8
REMARK VINA RESULT:      -6.7      4.327      6.334
REMARK  Name = 
REMARK  7 active torsions:
REMARK  status: ('A' for Active; 'I' for Inactive)
REMARK    1  A    between atoms: C_2  and  C_4
REMARK    2  A    between atoms: C_4  and  S_5
REMARK    3  A    between atoms: C_4  and  C_18
REMARK    4  A    between atoms: S_5  and  C_6
REMARK    5  A    between atoms: C_6  and  C_7
REMARK    6  A    between atoms: C_10  and  O_11
REMARK    7  A    between atoms: O_11  and  C_12
REMARK                            x       y       z     vdW  Elec       q    Type
REMARK                         _______ _______ _______ _____ _____    ______ ____
ROOT
ATOM      1  S   UNL     1       2.249   4.674  18.317  0.00  0.00    +0.000 S 
ENDROOT
BRANCH   1   2
ATOM      2  C   UNL     1       3.759   3.683  17.944  0.00  0.00    +0.000 C 
BRANCH   2   3
ATOM      3  C   UNL     1       4.605   4.285  16.828  0.00  0.00    +0.000 A 
ATOM      4  C   UNL     1       4.657   5.665  16.578  0.00  0.00    +0.000 A 
ATOM      5  C   UNL     1       5.425   6.179  15.532  0.00  0.00    +0.000 A 
ATOM      6  C   UNL     1       6.159   5.324  14.716  0.00  0.00    +0.000 A 
ATOM      7  C   UNL     1       6.141   3.954  14.957  0.00  0.00    +0.000 A 
ATOM      8  C   UNL     1       5.379   3.439  16.008  0.00  0.00    +0.000 A 
ENDBRANCH   2   3
BRANCH   2  10
ATOM      9  N   UNL     1       3.854   2.578  20.157  0.00  0.00    +0.000 N 
ATOM     10  C   UNL     1       4.503   3.385  19.262  0.00  0.00    +0.000 C 
ATOM     11  O   UNL     1       5.621   3.802  19.551  0.00  0.00    +0.000 OA
ATOM     12  H   UNL     1       4.335   2.371  21.022  0.00  0.00    +0.000 HD
ATOM     13  H   UNL     1       2.952   2.160  19.987  0.00  0.00    +0.000 HD
ENDBRANCH   2  10
ENDBRANCH   1   2
BRANCH   1  14
ATOM     14  C   UNL     1       2.930   5.877  19.514  0.00  0.00    +0.000 C 
BRANCH  14  15
ATOM     15  C   UNL     1       2.301   7.244  19.356  0.00  0.00    +0.000 A 
ATOM     16  C   UNL     1       2.325   7.905  18.121  0.00  0.00    +0.000 A 
ATOM     17  C   UNL     1       1.713   9.149  17.970  0.00  0.00    +0.000 A 
ATOM     18  C   UNL     1       1.036   9.742  19.037  0.00  0.00    +0.000 A 
ATOM     19  C   UNL     1       1.030   9.110  20.277  0.00  0.00    +0.000 A 
ATOM     20  C   UNL     1       1.644   7.859  20.432  0.00  0.00    +0.000 A 
BRANCH  18  21
ATOM     21  O   UNL     1       0.496  10.961  18.760  0.00  0.00    +0.000 OA
BRANCH  21  22
ATOM     22  C   UNL     1      -0.914  11.094  18.672  0.00  0.00    +0.000 C 
ATOM     23  F   UNL     1      -1.543  11.235  19.857  0.00  0.00    +0.000 F 
ATOM     24  F   UNL     1      -1.209  12.161  17.897  0.00  0.00    +0.000 F 
ATOM     25  F   UNL     1      -1.413   9.991  18.068  0.00  0.00    +0.000 F 
ENDBRANCH  21  22
ENDBRANCH  18  21
ENDBRANCH  14  15
ENDBRANCH   1  14
TORSDOF 7
ENDMDL
MODEL 9
REMARK VINA RESULT:      -6.7      4.742      6.526
REMARK  Name = 
REMARK  7 active torsions:
REMARK  status: ('A' for Active; 'I' for Inactive)
REMARK    1  A    between atoms: C_2  and  C_4
REMARK    2  A    between atoms: C_4  and  S_5
REMARK    3  A    between atoms: C_4  and  C_18
REMARK    4  A    between atoms: S_5  and  C_6
REMARK    5  A    between atoms: C_6  and  C_7
REMARK    6  A    between atoms: C_10  and  O_11
REMARK    7  A    between atoms: O_11  and  C_12
REMARK                            x       y       z     vdW  Elec       q    Type
REMARK                         _______ _______ _______ _____ _____    ______ ____
ROOT
ATOM      1  S   UNL     1       3.502   3.552  18.797  0.00  0.00    +0.000 S 
ENDROOT
BRANCH   1   2
ATOM      2  C   UNL     1       2.839   4.594  20.168  0.00  0.00    +0.000 C 
BRANCH   2   3
ATOM      3  C   UNL     1       2.458   5.999  19.715  0.00  0.00    +0.000 A 
ATOM      4  C   UNL     1       2.625   6.439  18.392  0.00  0.00    +0.000 A 
ATOM      5  C   UNL     1       2.286   7.740  18.018  0.00  0.00    +0.000 A 
ATOM      6  C   UNL     1       1.769   8.627  18.957  0.00  0.00    +0.000 A 
ATOM      7  C   UNL     1       1.573   8.207  20.269  0.00  0.00    +0.000 A 
ATOM      8  C   UNL     1       1.906   6.904  20.643  0.00  0.00    +0.000 A 
ENDBRANCH   2   3
BRANCH   2  10
ATOM      9  N   UNL     1       2.105   3.227  22.096  0.00  0.00    +0.000 N 
ATOM     10  C   UNL     1       1.740   3.809  20.911  0.00  0.00    +0.000 C 
ATOM     11  O   UNL     1       0.581   3.684  20.528  0.00  0.00    +0.000 OA
ATOM     12  H   UNL     1       1.391   2.714  22.595  0.00  0.00    +0.000 HD
ATOM     13  H   UNL     1       3.023   3.311  22.505  0.00  0.00    +0.000 HD
ENDBRANCH   2  10
ENDBRANCH   1   2
BRANCH   1  14
ATOM     14  C   UNL     1       5.215   4.185  18.701  0.00  0.00    +0.000 C 
BRANCH  14  15
ATOM     15  C   UNL     1       5.686   4.314  17.269  0.00  0.00    +0.000 A 
ATOM     16  C   UNL     1       4.776   4.237  16.207  0.00  0.00    +0.000 A 
ATOM     17  C   UNL     1       5.209   4.393  14.890  0.00  0.00    +0.000 A 
ATOM     18  C   UNL     1       6.549   4.662  14.608  0.00  0.00    +0.000 A 
ATOM     19  C   UNL     1       7.469   4.712  15.653  0.00  0.00    +0.000 A 
ATOM     20  C   UNL     1       7.037   4.556  16.978  0.00  0.00    +0.000 A 
BRANCH  18  21
ATOM     21  O   UNL     1       6.840   4.778  13.284  0.00  0.00    +0.000 OA
BRANCH  21  22
ATOM     22  C   UNL     1       6.481   3.729  12.397  0.00  0.00    +0.000 C 
ATOM     23  F   UNL     1       5.296   3.897  11.776  0.00  0.00    +0.000 F 
ATOM     24  F   UNL     1       7.445   3.595  11.460  0.00  0.00    +0.000 F 
ATOM     25  F   UNL     1       6.420   2.575  13.100  0.00  0.00    +0.000 F 
ENDBRANCH  21  22
ENDBRANCH  18  21
ENDBRANCH  14  15
ENDBRANCH   1  14
TORSDOF 7
ENDMDL
