MODEL 1
REMARK VINA RESULT:      -9.5      0.000      0.000
REMARK  Name = 
REMARK  5 active torsions:
REMARK  status: ('A' for Active; 'I' for Inactive)
REMARK    1  A    between atoms: C_1  and  N_2
REMARK    2  A    between atoms: N_2  and  C_3
REMARK    3  A    between atoms: N_2  and  C_4
REMARK    4  A    between atoms: C_8  and  N_9
REMARK    5  A    between atoms: C_10  and  C_12
REMARK                            x       y       z     vdW  Elec       q    Type
REMARK                         _______ _______ _______ _____ _____    ______ ____
ROOT
ATOM      1  C   UNL     1       4.287   6.524  17.561  0.00  0.00    +0.000 A 
ATOM      2  C   UNL     1       3.585   7.749  17.528  0.00  0.00    +0.000 A 
ATOM      3  C   UNL     1       2.487   8.005  18.365  0.00  0.00    +0.000 A 
ATOM      4  C   UNL     1       1.996   7.002  19.198  0.00  0.00    +0.000 A 
ATOM      5  C   UNL     1       2.682   5.803  19.248  0.00  0.00    +0.000 A 
ATOM      6  C   UNL     1       3.880   5.617  18.522  0.00  0.00    +0.000 A 
ATOM      7  C   UNL     1       4.488   4.371  19.051  0.00  0.00    +0.000 C 
ATOM      8  O   UNL     1       5.602   3.957  18.802  0.00  0.00    +0.000 OA
ATOM      9  C   UNL     1       3.520   3.781  20.005  0.00  0.00    +0.000 A 
ATOM     10  C   UNL     1       3.596   2.620  20.750  0.00  0.00    +0.000 A 
ATOM     11  C   UNL     1       2.443   2.231  21.440  0.00  0.00    +0.000 A 
ATOM     12  C   UNL     1       1.260   2.987  21.348  0.00  0.00    +0.000 A 
ATOM     13  C   UNL     1       1.235   4.198  20.648  0.00  0.00    +0.000 A 
ATOM     14  C   UNL     1       2.396   4.614  20.020  0.00  0.00    +0.000 A 
ENDROOT
BRANCH   1  16
ATOM     15  N   UNL     1       5.152   5.070  15.746  0.00  0.00    +0.000 N 
ATOM     16  C   UNL     1       5.225   6.266  16.429  0.00  0.00    +0.000 C 
ATOM     17  O   UNL     1       5.996   7.190  16.166  0.00  0.00    +0.000 OA
ATOM     18  H   UNL     1       4.527   4.346  16.096  0.00  0.00    +0.000 HD
BRANCH  15  23
ATOM     19  C   UNL     1       5.891   3.519  12.417  0.00  0.00    +0.000 A 
ATOM     20  C   UNL     1       7.185   4.028  12.208  0.00  0.00    +0.000 A 
ATOM     21  C   UNL     1       7.815   4.863  13.133  0.00  0.00    +0.000 A 
ATOM     22  C   UNL     1       7.167   5.203  14.309  0.00  0.00    +0.000 A 
ATOM     23  C   UNL     1       5.880   4.738  14.572  0.00  0.00    +0.000 A 
ATOM     24  C   UNL     1       5.254   3.917  13.614  0.00  0.00    +0.000 A 
BRANCH  19  26
ATOM     25  C   UNL     1       3.890   2.916  11.092  0.00  0.00    +0.000 C 
ATOM     26  N   UNL     1       5.280   2.694  11.469  0.00  0.00    +0.000 N 
ATOM     27  C   UNL     1       5.809   1.346  11.260  0.00  0.00    +0.000 C 
ENDBRANCH  19  26
ENDBRANCH  15  23
ENDBRANCH   1  16
TORSDOF 3
ENDMDL
MODEL 2
REMARK VINA RESULT:      -8.5      3.473      8.230
REMARK  Name = 
REMARK  5 active torsions:
REMARK  status: ('A' for Active; 'I' for Inactive)
REMARK    1  A    between atoms: C_1  and  N_2
REMARK    2  A    between atoms: N_2  and  C_3
REMARK    3  A    between atoms: N_2  and  C_4
REMARK    4  A    between atoms: C_8  and  N_9
REMARK    5  A    between atoms: C_10  and  C_12
REMARK                            x       y       z     vdW  Elec       q    Type
REMARK                         _______ _______ _______ _____ _____    ______ ____
ROOT
ATOM      1  C   UNL     1       2.828   5.107  20.022  0.00  0.00    +0.000 A 
ATOM      2  C   UNL     1       2.883   3.906  20.763  0.00  0.00    +0.000 A 
ATOM      3  C   UNL     1       3.605   2.786  20.320  0.00  0.00    +0.000 A 
ATOM      4  C   UNL     1       4.219   2.801  19.070  0.00  0.00    +0.000 A 
ATOM      5  C   UNL     1       4.182   3.975  18.340  0.00  0.00    +0.000 A 
ATOM      6  C   UNL     1       3.592   5.144  18.869  0.00  0.00    +0.000 A 
ATOM      7  C   UNL     1       4.009   6.253  17.975  0.00  0.00    +0.000 C 
ATOM      8  O   UNL     1       3.844   7.438  18.179  0.00  0.00    +0.000 OA
ATOM      9  C   UNL     1       4.742   5.646  16.837  0.00  0.00    +0.000 A 
ATOM     10  C   UNL     1       5.317   6.238  15.730  0.00  0.00    +0.000 A 
ATOM     11  C   UNL     1       5.796   5.385  14.731  0.00  0.00    +0.000 A 
ATOM     12  C   UNL     1       5.666   3.989  14.853  0.00  0.00    +0.000 A 
ATOM     13  C   UNL     1       5.148   3.416  16.019  0.00  0.00    +0.000 A 
ATOM     14  C   UNL     1       4.735   4.261  17.035  0.00  0.00    +0.000 A 
ENDROOT
BRANCH   1  16
ATOM     15  N   UNL     1       2.156   7.421  20.614  0.00  0.00    +0.000 N 
ATOM     16  C   UNL     1       1.796   6.101  20.442  0.00  0.00    +0.000 C 
ATOM     17  O   UNL     1       0.658   5.649  20.575  0.00  0.00    +0.000 OA
ATOM     18  H   UNL     1       3.142   7.670  20.551  0.00  0.00    +0.000 HD
BRANCH  15  23
ATOM     19  C   UNL     1      -0.096  10.336  19.936  0.00  0.00    +0.000 A 
ATOM     20  C   UNL     1      -0.508  10.620  21.250  0.00  0.00    +0.000 A 
ATOM     21  C   UNL     1      -0.061   9.879  22.347  0.00  0.00    +0.000 A 
ATOM     22  C   UNL     1       0.827   8.834  22.157  0.00  0.00    +0.000 A 
ATOM     23  C   UNL     1       1.266   8.497  20.878  0.00  0.00    +0.000 A 
ATOM     24  C   UNL     1       0.784   9.242  19.784  0.00  0.00    +0.000 A 
BRANCH  19  26
ATOM     25  C   UNL     1      -0.300  12.519  18.787  0.00  0.00    +0.000 C 
ATOM     26  N   UNL     1      -0.567  11.088  18.856  0.00  0.00    +0.000 N 
ATOM     27  C   UNL     1      -1.726  10.600  18.108  0.00  0.00    +0.000 C 
ENDBRANCH  19  26
ENDBRANCH  15  23
ENDBRANCH   1  16
TORSDOF 3
ENDMDL
MODEL 3
REMARK VINA RESULT:      -8.4      4.414      6.870
REMARK  Name = 
REMARK  5 active torsions:
REMARK  status: ('A' for Active; 'I' for Inactive)
REMARK    1  A    between atoms: C_1  and  N_2
REMARK    2  A    between atoms: N_2  and  C_3
REMARK    3  A    between atoms: N_2  and  C_4
REMARK    4  A    between atoms: C_8  and  N_9
REMARK    5  A    between atoms: C_10  and  C_12
REMARK                            x       y       z     vdW  Elec       q    Type
REMARK                         _______ _______ _______ _____ _____    ______ ____
ROOT
ATOM      1  C   UNL     1       6.567   6.040  16.882  0.00  0.00    +0.000 A 
ATOM      2  C   UNL     1       7.204   5.448  15.769  0.00  0.00    +0.000 A 
ATOM      3  C   UNL     1       6.650   4.353  15.086  0.00  0.00    +0.000 A 
ATOM      4  C   UNL     1       5.484   3.754  15.556  0.00  0.00    +0.000 A 
ATOM      5  C   UNL     1       4.846   4.331  16.638  0.00  0.00    +0.000 A 
ATOM      6  C   UNL     1       5.326   5.529  17.215  0.00  0.00    +0.000 A 
ATOM      7  C   UNL     1       4.247   6.012  18.111  0.00  0.00    +0.000 C 
ATOM      8  O   UNL     1       4.205   7.091  18.664  0.00  0.00    +0.000 OA
ATOM      9  C   UNL     1       3.193   4.969  18.131  0.00  0.00    +0.000 A 
ATOM     10  C   UNL     1       1.996   4.923  18.818  0.00  0.00    +0.000 A 
ATOM     11  C   UNL     1       1.281   3.722  18.769  0.00  0.00    +0.000 A 
ATOM     12  C   UNL     1       1.786   2.612  18.067  0.00  0.00    +0.000 A 
ATOM     13  C   UNL     1       2.963   2.712  17.318  0.00  0.00    +0.000 A 
ATOM     14  C   UNL     1       3.635   3.922  17.314  0.00  0.00    +0.000 A 
ENDROOT
BRANCH   1  16
ATOM     15  N   UNL     1       7.601   8.268  17.237  0.00  0.00    +0.000 N 
ATOM     16  C   UNL     1       7.392   6.984  17.694  0.00  0.00    +0.000 C 
ATOM     17  O   UNL     1       7.805   6.532  18.763  0.00  0.00    +0.000 OA
ATOM     18  H   UNL     1       7.276   8.512  16.303  0.00  0.00    +0.000 HD
BRANCH  15  23
ATOM     19  C   UNL     1       8.739  11.733  18.091  0.00  0.00    +0.000 A 
ATOM     20  C   UNL     1       9.434  11.461  19.282  0.00  0.00    +0.000 A 
ATOM     21  C   UNL     1       9.536  10.170  19.806  0.00  0.00    +0.000 A 
ATOM     22  C   UNL     1       8.953   9.106  19.138  0.00  0.00    +0.000 A 
ATOM     23  C   UNL     1       8.244   9.312  17.956  0.00  0.00    +0.000 A 
ATOM     24  C   UNL     1       8.132  10.625  17.459  0.00  0.00    +0.000 A 
BRANCH  19  26
ATOM     25  C   UNL     1       9.789  13.934  17.667  0.00  0.00    +0.000 C 
ATOM     26  N   UNL     1       8.643  13.036  17.595  0.00  0.00    +0.000 N 
ATOM     27  C   UNL     1       7.324  13.663  17.506  0.00  0.00    +0.000 C 
ENDBRANCH  19  26
ENDBRANCH  15  23
ENDBRANCH   1  16
TORSDOF 3
ENDMDL
MODEL 4
REMARK VINA RESULT:      -8.4      4.105      8.044
REMARK  Name = 
REMARK  5 active torsions:
REMARK  status: ('A' for Active; 'I' for Inactive)
REMARK    1  A    between atoms: C_1  and  N_2
REMARK    2  A    between atoms: N_2  and  C_3
REMARK    3  A    between atoms: N_2  and  C_4
REMARK    4  A    between atoms: C_8  and  N_9
REMARK    5  A    between atoms: C_10  and  C_12
REMARK                            x       y       z     vdW  Elec       q    Type
REMARK                         _______ _______ _______ _____ _____    ______ ____
ROOT
ATOM      1  C   UNL     1       2.188   6.953  19.801  0.00  0.00    +0.000 A 
ATOM      2  C   UNL     1       1.863   5.993  20.784  0.00  0.00    +0.000 A 
ATOM      3  C   UNL     1       2.312   4.664  20.709  0.00  0.00    +0.000 A 
ATOM      4  C   UNL     1       3.023   4.230  19.594  0.00  0.00    +0.000 A 
ATOM      5  C   UNL     1       3.358   5.163  18.630  0.00  0.00    +0.000 A 
ATOM      6  C   UNL     1       3.041   6.530  18.797  0.00  0.00    +0.000 A 
ATOM      7  C   UNL     1       3.811   7.258  17.758  0.00  0.00    +0.000 C 
ATOM      8  O   UNL     1       3.937   8.461  17.673  0.00  0.00    +0.000 OA
ATOM      9  C   UNL     1       4.466   6.239  16.904  0.00  0.00    +0.000 A 
ATOM     10  C   UNL     1       5.276   6.391  15.796  0.00  0.00    +0.000 A 
ATOM     11  C   UNL     1       5.611   5.231  15.090  0.00  0.00    +0.000 A 
ATOM     12  C   UNL     1       5.117   3.977  15.491  0.00  0.00    +0.000 A 
ATOM     13  C   UNL     1       4.362   3.843  16.660  0.00  0.00    +0.000 A 
ATOM     14  C   UNL     1       4.086   4.984  17.394  0.00  0.00    +0.000 A 
ENDROOT
BRANCH   1  16
ATOM     15  N   UNL     1       1.311   8.992  18.691  0.00  0.00    +0.000 N 
ATOM     16  C   UNL     1       1.411   8.228  19.834  0.00  0.00    +0.000 C 
ATOM     17  O   UNL     1       0.876   8.486  20.913  0.00  0.00    +0.000 OA
ATOM     18  H   UNL     1       1.857   8.721  17.874  0.00  0.00    +0.000 HD
BRANCH  15  23
ATOM     19  C   UNL     1      -1.629  11.087  17.692  0.00  0.00    +0.000 A 
ATOM     20  C   UNL     1      -1.200  12.334  18.181  0.00  0.00    +0.000 A 
ATOM     21  C   UNL     1       0.027  12.498  18.827  0.00  0.00    +0.000 A 
ATOM     22  C   UNL     1       0.872  11.413  18.988  0.00  0.00    +0.000 A 
ATOM     23  C   UNL     1       0.502  10.149  18.533  0.00  0.00    +0.000 A 
ATOM     24  C   UNL     1      -0.751  10.001  17.907  0.00  0.00    +0.000 A 
BRANCH  19  26
ATOM     25  C   UNL     1      -2.939  10.814  15.610  0.00  0.00    +0.000 C 
ATOM     26  N   UNL     1      -2.867  10.949  17.059  0.00  0.00    +0.000 N 
ATOM     27  C   UNL     1      -4.064  11.458  17.730  0.00  0.00    +0.000 C 
ENDBRANCH  19  26
ENDBRANCH  15  23
ENDBRANCH   1  16
TORSDOF 3
ENDMDL
MODEL 5
REMARK VINA RESULT:      -8.3      1.687      3.636
REMARK  Name = 
REMARK  5 active torsions:
REMARK  status: ('A' for Active; 'I' for Inactive)
REMARK    1  A    between atoms: C_1  and  N_2
REMARK    2  A    between atoms: N_2  and  C_3
REMARK    3  A    between atoms: N_2  and  C_4
REMARK    4  A    between atoms: C_8  and  N_9
REMARK    5  A    between atoms: C_10  and  C_12
REMARK                            x       y       z     vdW  Elec       q    Type
REMARK                         _______ _______ _______ _____ _____    ______ ____
ROOT
ATOM      1  C   UNL     1       3.479   5.522  18.377  0.00  0.00    +0.000 A 
ATOM      2  C   UNL     1       3.335   4.335  19.128  0.00  0.00    +0.000 A 
ATOM      3  C   UNL     1       2.557   4.278  20.296  0.00  0.00    +0.000 A 
ATOM      4  C   UNL     1       1.974   5.436  20.802  0.00  0.00    +0.000 A 
ATOM      5  C   UNL     1       2.097   6.602  20.070  0.00  0.00    +0.000 A 
ATOM      6  C   UNL     1       2.745   6.610  18.814  0.00  0.00    +0.000 A 
ATOM      7  C   UNL     1       2.415   7.916  18.192  0.00  0.00    +0.000 C 
ATOM      8  O   UNL     1       2.646   8.242  17.046  0.00  0.00    +0.000 OA
ATOM      9  C   UNL     1       1.673   8.708  19.202  0.00  0.00    +0.000 A 
ATOM     10  C   UNL     1       1.159   9.987  19.131  0.00  0.00    +0.000 A 
ATOM     11  C   UNL     1       0.652  10.535  20.313  0.00  0.00    +0.000 A 
ATOM     12  C   UNL     1       0.694   9.811  21.518  0.00  0.00    +0.000 A 
ATOM     13  C   UNL     1       1.151   8.489  21.545  0.00  0.00    +0.000 A 
ATOM     14  C   UNL     1       1.591   7.925  20.360  0.00  0.00    +0.000 A 
ENDROOT
BRANCH   1  16
ATOM     15  N   UNL     1       4.581   4.547  16.379  0.00  0.00    +0.000 N 
ATOM     16  C   UNL     1       4.559   5.530  17.346  0.00  0.00    +0.000 C 
ATOM     17  O   UNL     1       5.353   6.468  17.427  0.00  0.00    +0.000 OA
ATOM     18  H   UNL     1       3.919   3.776  16.452  0.00  0.00    +0.000 HD
BRANCH  15  23
ATOM     19  C   UNL     1       5.816   3.715  12.942  0.00  0.00    +0.000 A 
ATOM     20  C   UNL     1       7.069   4.352  12.986  0.00  0.00    +0.000 A 
ATOM     21  C   UNL     1       7.512   5.043  14.116  0.00  0.00    +0.000 A 
ATOM     22  C   UNL     1       6.714   5.103  15.245  0.00  0.00    +0.000 A 
ATOM     23  C   UNL     1       5.458   4.499  15.262  0.00  0.00    +0.000 A 
ATOM     24  C   UNL     1       5.020   3.829  14.103  0.00  0.00    +0.000 A 
BRANCH  19  26
ATOM     25  C   UNL     1       4.056   3.270  11.259  0.00  0.00    +0.000 C 
ATOM     26  N   UNL     1       5.392   3.039  11.794  0.00  0.00    +0.000 N 
ATOM     27  C   UNL     1       6.026   1.767  11.449  0.00  0.00    +0.000 C 
ENDBRANCH  19  26
ENDBRANCH  15  23
ENDBRANCH   1  16
TORSDOF 3
ENDMDL
MODEL 6
REMARK VINA RESULT:      -8.2      3.542      7.934
REMARK  Name = 
REMARK  5 active torsions:
REMARK  status: ('A' for Active; 'I' for Inactive)
REMARK    1  A    between atoms: C_1  and  N_2
REMARK    2  A    between atoms: N_2  and  C_3
REMARK    3  A    between atoms: N_2  and  C_4
REMARK    4  A    between atoms: C_8  and  N_9
REMARK    5  A    between atoms: C_10  and  C_12
REMARK                            x       y       z     vdW  Elec       q    Type
REMARK                         _______ _______ _______ _____ _____    ______ ____
ROOT
ATOM      1  C   UNL     1       2.759   5.948  18.387  0.00  0.00    +0.000 A 
ATOM      2  C   UNL     1       1.874   4.892  18.696  0.00  0.00    +0.000 A 
ATOM      3  C   UNL     1       2.005   3.616  18.126  0.00  0.00    +0.000 A 
ATOM      4  C   UNL     1       2.972   3.382  17.152  0.00  0.00    +0.000 A 
ATOM      5  C   UNL     1       3.852   4.405  16.849  0.00  0.00    +0.000 A 
ATOM      6  C   UNL     1       3.812   5.632  17.548  0.00  0.00    +0.000 A 
ATOM      7  C   UNL     1       5.064   6.345  17.193  0.00  0.00    +0.000 C 
ATOM      8  O   UNL     1       5.482   7.360  17.711  0.00  0.00    +0.000 OA
ATOM      9  C   UNL     1       5.750   5.537  16.156  0.00  0.00    +0.000 A 
ATOM     10  C   UNL     1       6.934   5.767  15.484  0.00  0.00    +0.000 A 
ATOM     11  C   UNL     1       7.244   4.905  14.429  0.00  0.00    +0.000 A 
ATOM     12  C   UNL     1       6.365   3.869  14.064  0.00  0.00    +0.000 A 
ATOM     13  C   UNL     1       5.209   3.613  14.810  0.00  0.00    +0.000 A 
ATOM     14  C   UNL     1       4.938   4.427  15.896  0.00  0.00    +0.000 A 
ENDROOT
BRANCH   1  16
ATOM     15  N   UNL     1       2.020   8.259  17.860  0.00  0.00    +0.000 N 
ATOM     16  C   UNL     1       2.338   7.316  18.815  0.00  0.00    +0.000 C 
ATOM     17  O   UNL     1       2.274   7.486  20.033  0.00  0.00    +0.000 OA
ATOM     18  H   UNL     1       2.182   8.033  16.880  0.00  0.00    +0.000 HD
BRANCH  15  23
ATOM     19  C   UNL     1      -0.555  10.892  18.540  0.00  0.00    +0.000 A 
ATOM     20  C   UNL     1       0.284  12.015  18.642  0.00  0.00    +0.000 A 
ATOM     21  C   UNL     1       1.670  11.924  18.492  0.00  0.00    +0.000 A 
ATOM     22  C   UNL     1       2.256  10.700  18.219  0.00  0.00    +0.000 A 
ATOM     23  C   UNL     1       1.479   9.548  18.113  0.00  0.00    +0.000 A 
ATOM     24  C   UNL     1       0.086   9.658  18.293  0.00  0.00    +0.000 A 
BRANCH  19  26
ATOM     25  C   UNL     1      -2.846  10.301  17.812  0.00  0.00    +0.000 C 
ATOM     26  N   UNL     1      -1.938  11.010  18.706  0.00  0.00    +0.000 N 
ATOM     27  C   UNL     1      -2.471  12.195  19.377  0.00  0.00    +0.000 C 
ENDBRANCH  19  26
ENDBRANCH  15  23
ENDBRANCH   1  16
TORSDOF 3
ENDMDL
MODEL 7
REMARK VINA RESULT:      -8.2      3.310      8.009
REMARK  Name = 
REMARK  5 active torsions:
REMARK  status: ('A' for Active; 'I' for Inactive)
REMARK    1  A    between atoms: C_1  and  N_2
REMARK    2  A    between atoms: N_2  and  C_3
REMARK    3  A    between atoms: N_2  and  C_4
REMARK    4  A    between atoms: C_8  and  N_9
REMARK    5  A    between atoms: C_10  and  C_12
REMARK                            x       y       z     vdW  Elec       q    Type
REMARK                         _______ _______ _______ _____ _____    ______ ____
ROOT
ATOM      1  C   UNL     1       2.499   4.605  19.161  0.00  0.00    +0.000 A 
ATOM      2  C   UNL     1       1.632   3.496  19.048  0.00  0.00    +0.000 A 
ATOM      3  C   UNL     1       1.837   2.481  18.099  0.00  0.00    +0.000 A 
ATOM      4  C   UNL     1       2.865   2.594  17.166  0.00  0.00    +0.000 A 
ATOM      5  C   UNL     1       3.727   3.670  17.275  0.00  0.00    +0.000 A 
ATOM      6  C   UNL     1       3.608   4.596  18.334  0.00  0.00    +0.000 A 
ATOM      7  C   UNL     1       4.854   5.401  18.316  0.00  0.00    +0.000 C 
ATOM      8  O   UNL     1       5.209   6.192  19.165  0.00  0.00    +0.000 OA
ATOM      9  C   UNL     1       5.623   4.990  17.117  0.00  0.00    +0.000 A 
ATOM     10  C   UNL     1       6.836   5.444  16.636  0.00  0.00    +0.000 A 
ATOM     11  C   UNL     1       7.233   4.982  15.377  0.00  0.00    +0.000 A 
ATOM     12  C   UNL     1       6.410   4.115  14.636  0.00  0.00    +0.000 A 
ATOM     13  C   UNL     1       5.223   3.613  15.180  0.00  0.00    +0.000 A 
ATOM     14  C   UNL     1       4.865   4.019  16.454  0.00  0.00    +0.000 A 
ENDROOT
BRANCH   1  16
ATOM     15  N   UNL     1       2.171   7.038  19.526  0.00  0.00    +0.000 N 
ATOM     16  C   UNL     1       2.010   5.748  19.988  0.00  0.00    +0.000 C 
ATOM     17  O   UNL     1       1.453   5.433  21.040  0.00  0.00    +0.000 OA
ATOM     18  H   UNL     1       2.714   7.187  18.677  0.00  0.00    +0.000 HD
BRANCH  15  23
ATOM     19  C   UNL     1       0.712  10.478  19.789  0.00  0.00    +0.000 A 
ATOM     20  C   UNL     1       0.561  10.558  21.185  0.00  0.00    +0.000 A 
ATOM     21  C   UNL     1       0.929   9.512  22.035  0.00  0.00    +0.000 A 
ATOM     22  C   UNL     1       1.474   8.354  21.507  0.00  0.00    +0.000 A 
ATOM     23  C   UNL     1       1.642   8.210  20.131  0.00  0.00    +0.000 A 
ATOM     24  C   UNL     1       1.242   9.266  19.291  0.00  0.00    +0.000 A 
BRANCH  19  26
ATOM     25  C   UNL     1       1.058  12.795  18.993  0.00  0.00    +0.000 C 
ATOM     26  N   UNL     1       0.326  11.535  18.961  0.00  0.00    +0.000 N 
ATOM     27  C   UNL     1      -1.056  11.592  18.485  0.00  0.00    +0.000 C 
ENDBRANCH  19  26
ENDBRANCH  15  23
ENDBRANCH   1  16
TORSDOF 3
ENDMDL
MODEL 8
REMARK VINA RESULT:      -8.0      5.902      9.263
REMARK  Name = 
REMARK  5 active torsions:
REMARK  status: ('A' for Active; 'I' for Inactive)
REMARK    1  A    between atoms: C_1  and  N_2
REMARK    2  A    between atoms: N_2  and  C_3
REMARK    3  A    between atoms: N_2  and  C_4
REMARK    4  A    between atoms: C_8  and  N_9
REMARK    5  A    between atoms: C_10  and  C_12
REMARK                            x       y       z     vdW  Elec       q    Type
REMARK                         _______ _______ _______ _____ _____    ______ ____
ROOT
ATOM      1  C   UNL     1       0.371   9.677  19.658  0.00  0.00    +0.000 A 
ATOM      2  C   UNL     1       0.065   9.780  21.033  0.00  0.00    +0.000 A 
ATOM      3  C   UNL     1       0.664   8.953  21.996  0.00  0.00    +0.000 A 
ATOM      4  C   UNL     1       1.521   7.929  21.601  0.00  0.00    +0.000 A 
ATOM      5  C   UNL     1       1.837   7.826  20.259  0.00  0.00    +0.000 A 
ATOM      6  C   UNL     1       1.355   8.766  19.321  0.00  0.00    +0.000 A 
ATOM      7  C   UNL     1       2.132   8.539  18.078  0.00  0.00    +0.000 C 
ATOM      8  O   UNL     1       2.130   9.248  17.093  0.00  0.00    +0.000 OA
ATOM      9  C   UNL     1       2.975   7.340  18.300  0.00  0.00    +0.000 A 
ATOM     10  C   UNL     1       3.862   6.703  17.455  0.00  0.00    +0.000 A 
ATOM     11  C   UNL     1       4.389   5.483  17.889  0.00  0.00    +0.000 A 
ATOM     12  C   UNL     1       4.004   4.931  19.124  0.00  0.00    +0.000 A 
ATOM     13  C   UNL     1       3.162   5.634  19.992  0.00  0.00    +0.000 A 
ATOM     14  C   UNL     1       2.693   6.872  19.589  0.00  0.00    +0.000 A 
ENDROOT
BRANCH   1  16
ATOM     15  N   UNL     1      -1.570   9.699  18.111  0.00  0.00    +0.000 N 
ATOM     16  C   UNL     1      -0.544  10.392  18.719  0.00  0.00    +0.000 C 
ATOM     17  O   UNL     1      -0.319  11.596  18.584  0.00  0.00    +0.000 OA
ATOM     18  H   UNL     1      -1.617   8.689  18.236  0.00  0.00    +0.000 HD
BRANCH  15  23
ATOM     19  C   UNL     1      -4.849  11.283  17.236  0.00  0.00    +0.000 A 
ATOM     20  C   UNL     1      -4.673  11.426  15.848  0.00  0.00    +0.000 A 
ATOM     21  C   UNL     1      -3.507  11.014  15.199  0.00  0.00    +0.000 A 
ATOM     22  C   UNL     1      -2.483  10.430  15.926  0.00  0.00    +0.000 A 
ATOM     23  C   UNL     1      -2.594  10.267  17.305  0.00  0.00    +0.000 A 
ATOM     24  C   UNL     1      -3.767  10.713  17.943  0.00  0.00    +0.000 A 
BRANCH  19  26
ATOM     25  C   UNL     1      -6.796  10.792  18.683  0.00  0.00    +0.000 C 
ATOM     26  N   UNL     1      -6.023  11.714  17.861  0.00  0.00    +0.000 N 
ATOM     27  C   UNL     1      -6.745  12.855  17.297  0.00  0.00    +0.000 C 
ENDBRANCH  19  26
ENDBRANCH  15  23
ENDBRANCH   1  16
TORSDOF 3
ENDMDL
MODEL 9
REMARK VINA RESULT:      -7.9      4.027      8.352
REMARK  Name = 
REMARK  5 active torsions:
REMARK  status: ('A' for Active; 'I' for Inactive)
REMARK    1  A    between atoms: C_1  and  N_2
REMARK    2  A    between atoms: N_2  and  C_3
REMARK    3  A    between atoms: N_2  and  C_4
REMARK    4  A    between atoms: C_8  and  N_9
REMARK    5  A    between atoms: C_10  and  C_12
REMARK                            x       y       z     vdW  Elec       q    Type
REMARK                         _______ _______ _______ _____ _____    ______ ____
ROOT
ATOM      1  C   UNL     1       2.221   6.900  19.794  0.00  0.00    +0.000 A 
ATOM      2  C   UNL     1       1.859   5.927  20.751  0.00  0.00    +0.000 A 
ATOM      3  C   UNL     1       2.266   4.587  20.648  0.00  0.00    +0.000 A 
ATOM      4  C   UNL     1       2.972   4.157  19.527  0.00  0.00    +0.000 A 
ATOM      5  C   UNL     1       3.344   5.102  18.589  0.00  0.00    +0.000 A 
ATOM      6  C   UNL     1       3.068   6.474  18.786  0.00  0.00    +0.000 A 
ATOM      7  C   UNL     1       3.869   7.202  17.771  0.00  0.00    +0.000 C 
ATOM      8  O   UNL     1       4.034   8.403  17.715  0.00  0.00    +0.000 OA
ATOM      9  C   UNL     1       4.499   6.183  16.897  0.00  0.00    +0.000 A 
ATOM     10  C   UNL     1       5.322   6.336  15.798  0.00  0.00    +0.000 A 
ATOM     11  C   UNL     1       5.626   5.184  15.067  0.00  0.00    +0.000 A 
ATOM     12  C   UNL     1       5.090   3.937  15.434  0.00  0.00    +0.000 A 
ATOM     13  C   UNL     1       4.322   3.799  16.595  0.00  0.00    +0.000 A 
ATOM     14  C   UNL     1       4.076   4.930  17.354  0.00  0.00    +0.000 A 
ENDROOT
BRANCH   1  16
ATOM     15  N   UNL     1       1.411   8.988  18.725  0.00  0.00    +0.000 N 
ATOM     16  C   UNL     1       1.484   8.197  19.852  0.00  0.00    +0.000 C 
ATOM     17  O   UNL     1       0.954   8.450  20.935  0.00  0.00    +0.000 OA
ATOM     18  H   UNL     1       1.952   8.718  17.904  0.00  0.00    +0.000 HD
BRANCH  15  23
ATOM     19  C   UNL     1       0.624  12.648  18.608  0.00  0.00    +0.000 A 
ATOM     20  C   UNL     1      -0.750  12.579  18.319  0.00  0.00    +0.000 A 
ATOM     21  C   UNL     1      -1.418  11.362  18.164  0.00  0.00    +0.000 A 
ATOM     22  C   UNL     1      -0.726  10.172  18.310  0.00  0.00    +0.000 A 
ATOM     23  C   UNL     1       0.639  10.173  18.589  0.00  0.00    +0.000 A 
ATOM     24  C   UNL     1       1.298  11.411  18.716  0.00  0.00    +0.000 A 
BRANCH  19  26
ATOM     25  C   UNL     1       2.719  13.965  18.623  0.00  0.00    +0.000 C 
ATOM     26  N   UNL     1       1.269  13.880  18.747  0.00  0.00    +0.000 N 
ATOM     27  C   UNL     1       0.614  14.938  19.515  0.00  0.00    +0.000 C 
ENDBRANCH  19  26
ENDBRANCH  15  23
ENDBRANCH   1  16
TORSDOF 3
ENDMDL
