MODEL 1
REMARK VINA RESULT:      -7.6      0.000      0.000
REMARK  Name = 
REMARK  9 active torsions:
REMARK  status: ('A' for Active; 'I' for Inactive)
REMARK    1  A    between atoms: C_1  and  C_2
REMARK    2  A    between atoms: C_2  and  O_3
REMARK    3  A    between atoms: O_3  and  C_4
REMARK    4  A    between atoms: C_4  and  C_6
REMARK    5  A    between atoms: C_7  and  S_8
REMARK    6  A    between atoms: S_8  and  N_9
REMARK    7  A    between atoms: C_12  and  C_13
REMARK    8  A    between atoms: N_14  and  C_15
REMARK    9  A    between atoms: C_21  and  C_22
REMARK                            x       y       z     vdW  Elec       q    Type
REMARK                         _______ _______ _______ _____ _____    ______ ____
ROOT
ATOM      1  C   UNL     1       4.282   4.797  18.300  0.00  0.00    +0.000 A 
ATOM      2  C   UNL     1       3.442   4.233  19.307  0.00  0.00    +0.000 A 
ATOM      3  C   UNL     1       2.552   5.218  19.725  0.00  0.00    +0.000 A 
ATOM      4  C   UNL     1       1.394   5.087  20.668  0.00  0.00    +0.000 C 
ATOM      5  N   UNL     1       2.820   6.392  19.004  0.00  0.00    +0.000 N 
ATOM      6  C   UNL     1       3.916   6.139  18.170  0.00  0.00    +0.000 A 
ATOM      7  C   UNL     1       4.634   7.177  17.357  0.00  0.00    +0.000 C 
ENDROOT
BRANCH   5   8
ATOM      8  C   UNL     1       2.098   7.633  19.078  0.00  0.00    +0.000 A 
ATOM      9  C   UNL     1       1.783   8.359  17.922  0.00  0.00    +0.000 A 
ATOM     10  C   UNL     1       1.126   9.589  18.007  0.00  0.00    +0.000 A 
ATOM     11  C   UNL     1       0.726  10.085  19.245  0.00  0.00    +0.000 A 
ATOM     12  C   UNL     1       1.000   9.359  20.399  0.00  0.00    +0.000 A 
ATOM     13  C   UNL     1       1.705   8.155  20.320  0.00  0.00    +0.000 A 
ENDBRANCH   5   8
BRANCH   2  14
ATOM     14  S   UNL     1       3.521   2.552  19.772  0.00  0.00    +0.000 S 
ATOM     15  O   UNL     1       2.924   2.472  21.085  0.00  0.00    +0.000 OA
ATOM     16  O   UNL     1       3.005   1.849  18.623  0.00  0.00    +0.000 OA
BRANCH  14  17
ATOM     17  N   UNL     1       5.123   2.125  19.980  0.00  0.00    +0.000 NA
ATOM     18  H   UNL     1       5.529   1.725  19.141  0.00  0.00    +0.000 HD
ATOM     19  H   UNL     1       5.245   1.563  20.831  0.00  0.00    +0.000 HD
ENDBRANCH  14  17
ENDBRANCH   2  14
BRANCH   1  20
ATOM     20  C   UNL     1       5.379   4.153  17.575  0.00  0.00    +0.000 C 
ATOM     21  O   UNL     1       5.231   3.631  16.477  0.00  0.00    +0.000 OA
BRANCH  20  22
ATOM     22  O   UNL     1       6.523   4.110  18.313  0.00  0.00    +0.000 OA
BRANCH  22  24
ATOM     23  C   UNL     1       7.843   6.019  18.919  0.00  0.00    +0.000 C 
ATOM     24  C   UNL     1       7.616   4.931  17.882  0.00  0.00    +0.000 C 
ENDBRANCH  22  24
ENDBRANCH  20  22
ENDBRANCH   1  20
TORSDOF 6
ENDMDL
MODEL 2
REMARK VINA RESULT:      -7.6      0.107      1.032
REMARK  Name = 
REMARK  9 active torsions:
REMARK  status: ('A' for Active; 'I' for Inactive)
REMARK    1  A    between atoms: C_1  and  C_2
REMARK    2  A    between atoms: C_2  and  O_3
REMARK    3  A    between atoms: O_3  and  C_4
REMARK    4  A    between atoms: C_4  and  C_6
REMARK    5  A    between atoms: C_7  and  S_8
REMARK    6  A    between atoms: S_8  and  N_9
REMARK    7  A    between atoms: C_12  and  C_13
REMARK    8  A    between atoms: N_14  and  C_15
REMARK    9  A    between atoms: C_21  and  C_22
REMARK                            x       y       z     vdW  Elec       q    Type
REMARK                         _______ _______ _______ _____ _____    ______ ____
ROOT
ATOM      1  C   UNL     1       4.288   4.805  18.226  0.00  0.00    +0.000 A 
ATOM      2  C   UNL     1       3.429   4.217  19.203  0.00  0.00    +0.000 A 
ATOM      3  C   UNL     1       2.542   5.196  19.640  0.00  0.00    +0.000 A 
ATOM      4  C   UNL     1       1.370   5.046  20.563  0.00  0.00    +0.000 C 
ATOM      5  N   UNL     1       2.829   6.390  18.960  0.00  0.00    +0.000 N 
ATOM      6  C   UNL     1       3.935   6.153  18.133  0.00  0.00    +0.000 A 
ATOM      7  C   UNL     1       4.672   7.210  17.363  0.00  0.00    +0.000 C 
ENDROOT
BRANCH   5   8
ATOM      8  C   UNL     1       2.117   7.634  19.063  0.00  0.00    +0.000 A 
ATOM      9  C   UNL     1       1.733   8.149  20.309  0.00  0.00    +0.000 A 
ATOM     10  C   UNL     1       0.997   9.334  20.395  0.00  0.00    +0.000 A 
ATOM     11  C   UNL     1       0.684  10.050  19.244  0.00  0.00    +0.000 A 
ATOM     12  C   UNL     1       1.088   9.570  18.003  0.00  0.00    +0.000 A 
ATOM     13  C   UNL     1       1.777   8.357  17.910  0.00  0.00    +0.000 A 
ENDBRANCH   5   8
BRANCH   2  14
ATOM     14  S   UNL     1       3.488   2.522  19.617  0.00  0.00    +0.000 S 
ATOM     15  O   UNL     1       2.768   2.388  20.861  0.00  0.00    +0.000 OA
ATOM     16  O   UNL     1       3.097   1.854  18.399  0.00  0.00    +0.000 OA
BRANCH  14  17
ATOM     17  N   UNL     1       5.068   2.107  19.965  0.00  0.00    +0.000 NA
ATOM     18  H   UNL     1       5.716   2.867  19.788  0.00  0.00    +0.000 HD
ATOM     19  H   UNL     1       5.319   1.213  19.525  0.00  0.00    +0.000 HD
ENDBRANCH  14  17
ENDBRANCH   2  14
BRANCH   1  20
ATOM     20  C   UNL     1       5.390   4.174  17.496  0.00  0.00    +0.000 C 
ATOM     21  O   UNL     1       5.255   3.698  16.376  0.00  0.00    +0.000 OA
BRANCH  20  22
ATOM     22  O   UNL     1       6.519   4.085  18.253  0.00  0.00    +0.000 OA
BRANCH  22  24
ATOM     23  C   UNL     1       7.814   5.978  18.956  0.00  0.00    +0.000 C 
ATOM     24  C   UNL     1       7.626   4.917  17.883  0.00  0.00    +0.000 C 
ENDBRANCH  22  24
ENDBRANCH  20  22
ENDBRANCH   1  20
TORSDOF 6
ENDMDL
MODEL 3
REMARK VINA RESULT:      -7.5      1.228      2.001
REMARK  Name = 
REMARK  9 active torsions:
REMARK  status: ('A' for Active; 'I' for Inactive)
REMARK    1  A    between atoms: C_1  and  C_2
REMARK    2  A    between atoms: C_2  and  O_3
REMARK    3  A    between atoms: O_3  and  C_4
REMARK    4  A    between atoms: C_4  and  C_6
REMARK    5  A    between atoms: C_7  and  S_8
REMARK    6  A    between atoms: S_8  and  N_9
REMARK    7  A    between atoms: C_12  and  C_13
REMARK    8  A    between atoms: N_14  and  C_15
REMARK    9  A    between atoms: C_21  and  C_22
REMARK                            x       y       z     vdW  Elec       q    Type
REMARK                         _______ _______ _______ _____ _____    ______ ____
ROOT
ATOM      1  C   UNL     1       4.616   4.790  18.278  0.00  0.00    +0.000 A 
ATOM      2  C   UNL     1       3.683   4.119  19.126  0.00  0.00    +0.000 A 
ATOM      3  C   UNL     1       2.719   5.044  19.518  0.00  0.00    +0.000 A 
ATOM      4  C   UNL     1       1.464   4.804  20.303  0.00  0.00    +0.000 C 
ATOM      5  N   UNL     1       3.030   6.282  18.937  0.00  0.00    +0.000 N 
ATOM      6  C   UNL     1       4.224   6.129  18.220  0.00  0.00    +0.000 A 
ATOM      7  C   UNL     1       4.997   7.250  17.589  0.00  0.00    +0.000 C 
ENDROOT
BRANCH   5   8
ATOM      8  C   UNL     1       2.265   7.496  19.030  0.00  0.00    +0.000 A 
ATOM      9  C   UNL     1       1.817   7.978  20.267  0.00  0.00    +0.000 A 
ATOM     10  C   UNL     1       1.031   9.130  20.342  0.00  0.00    +0.000 A 
ATOM     11  C   UNL     1       0.728   9.848  19.189  0.00  0.00    +0.000 A 
ATOM     12  C   UNL     1       1.195   9.402  17.957  0.00  0.00    +0.000 A 
ATOM     13  C   UNL     1       1.935   8.220  17.875  0.00  0.00    +0.000 A 
ENDBRANCH   5   8
BRANCH   2  14
ATOM     14  S   UNL     1       3.763   2.407  19.453  0.00  0.00    +0.000 S 
ATOM     15  O   UNL     1       4.957   2.204  20.239  0.00  0.00    +0.000 OA
ATOM     16  O   UNL     1       2.439   2.081  19.925  0.00  0.00    +0.000 OA
BRANCH  14  17
ATOM     17  N   UNL     1       4.028   1.596  18.016  0.00  0.00    +0.000 NA
ATOM     18  H   UNL     1       4.736   0.875  18.104  0.00  0.00    +0.000 HD
ATOM     19  H   UNL     1       4.176   2.256  17.244  0.00  0.00    +0.000 HD
ENDBRANCH  14  17
ENDBRANCH   2  14
BRANCH   1  20
ATOM     20  C   UNL     1       5.811   4.237  17.636  0.00  0.00    +0.000 C 
ATOM     21  O   UNL     1       6.915   4.256  18.166  0.00  0.00    +0.000 OA
BRANCH  20  22
ATOM     22  O   UNL     1       5.560   3.819  16.365  0.00  0.00    +0.000 OA
BRANCH  22  24
ATOM     23  C   UNL     1       5.866   4.049  13.997  0.00  0.00    +0.000 C 
ATOM     24  C   UNL     1       6.529   4.148  15.361  0.00  0.00    +0.000 C 
ENDBRANCH  22  24
ENDBRANCH  20  22
ENDBRANCH   1  20
TORSDOF 6
ENDMDL
MODEL 4
REMARK VINA RESULT:      -7.4      1.215      1.721
REMARK  Name = 
REMARK  9 active torsions:
REMARK  status: ('A' for Active; 'I' for Inactive)
REMARK    1  A    between atoms: C_1  and  C_2
REMARK    2  A    between atoms: C_2  and  O_3
REMARK    3  A    between atoms: O_3  and  C_4
REMARK    4  A    between atoms: C_4  and  C_6
REMARK    5  A    between atoms: C_7  and  S_8
REMARK    6  A    between atoms: S_8  and  N_9
REMARK    7  A    between atoms: C_12  and  C_13
REMARK    8  A    between atoms: N_14  and  C_15
REMARK    9  A    between atoms: C_21  and  C_22
REMARK                            x       y       z     vdW  Elec       q    Type
REMARK                         _______ _______ _______ _____ _____    ______ ____
ROOT
ATOM      1  C   UNL     1       4.572   4.795  18.259  0.00  0.00    +0.000 A 
ATOM      2  C   UNL     1       3.664   4.138  19.143  0.00  0.00    +0.000 A 
ATOM      3  C   UNL     1       2.706   5.067  19.541  0.00  0.00    +0.000 A 
ATOM      4  C   UNL     1       1.473   4.837  20.362  0.00  0.00    +0.000 C 
ATOM      5  N   UNL     1       2.997   6.295  18.929  0.00  0.00    +0.000 N 
ATOM      6  C   UNL     1       4.174   6.132  18.185  0.00  0.00    +0.000 A 
ATOM      7  C   UNL     1       4.925   7.244  17.514  0.00  0.00    +0.000 C 
ENDROOT
BRANCH   5   8
ATOM      8  C   UNL     1       2.229   7.507  19.018  0.00  0.00    +0.000 A 
ATOM      9  C   UNL     1       1.912   8.250  17.873  0.00  0.00    +0.000 A 
ATOM     10  C   UNL     1       1.209   9.453  17.975  0.00  0.00    +0.000 A 
ATOM     11  C   UNL     1       0.764   9.902  19.215  0.00  0.00    +0.000 A 
ATOM     12  C   UNL     1       1.041   9.158  20.357  0.00  0.00    +0.000 A 
ATOM     13  C   UNL     1       1.791   7.982  20.263  0.00  0.00    +0.000 A 
ENDBRANCH   5   8
BRANCH   2  14
ATOM     14  S   UNL     1       3.760   2.433  19.501  0.00  0.00    +0.000 S 
ATOM     15  O   UNL     1       4.965   2.252  20.275  0.00  0.00    +0.000 OA
ATOM     16  O   UNL     1       2.444   2.108  19.997  0.00  0.00    +0.000 OA
BRANCH  14  17
ATOM     17  N   UNL     1       4.010   1.596  18.077  0.00  0.00    +0.000 NA
ATOM     18  H   UNL     1       4.982   1.333  17.949  0.00  0.00    +0.000 HD
ATOM     19  H   UNL     1       3.588   2.090  17.282  0.00  0.00    +0.000 HD
ENDBRANCH  14  17
ENDBRANCH   2  14
BRANCH   1  20
ATOM     20  C   UNL     1       5.753   4.235  17.598  0.00  0.00    +0.000 C 
ATOM     21  O   UNL     1       6.864   4.238  18.114  0.00  0.00    +0.000 OA
BRANCH  20  22
ATOM     22  O   UNL     1       5.482   3.829  16.327  0.00  0.00    +0.000 OA
BRANCH  22  24
ATOM     23  C   UNL     1       5.815   4.090  13.966  0.00  0.00    +0.000 C 
ATOM     24  C   UNL     1       6.484   4.071  15.331  0.00  0.00    +0.000 C 
ENDBRANCH  22  24
ENDBRANCH  20  22
ENDBRANCH   1  20
TORSDOF 6
ENDMDL
MODEL 5
REMARK VINA RESULT:      -7.2      0.777      1.457
REMARK  Name = 
REMARK  9 active torsions:
REMARK  status: ('A' for Active; 'I' for Inactive)
REMARK    1  A    between atoms: C_1  and  C_2
REMARK    2  A    between atoms: C_2  and  O_3
REMARK    3  A    between atoms: O_3  and  C_4
REMARK    4  A    between atoms: C_4  and  C_6
REMARK    5  A    between atoms: C_7  and  S_8
REMARK    6  A    between atoms: S_8  and  N_9
REMARK    7  A    between atoms: C_12  and  C_13
REMARK    8  A    between atoms: N_14  and  C_15
REMARK    9  A    between atoms: C_21  and  C_22
REMARK                            x       y       z     vdW  Elec       q    Type
REMARK                         _______ _______ _______ _____ _____    ______ ____
ROOT
ATOM      1  C   UNL     1       4.331   4.791  18.154  0.00  0.00    +0.000 A 
ATOM      2  C   UNL     1       3.468   4.179  19.112  0.00  0.00    +0.000 A 
ATOM      3  C   UNL     1       2.577   5.148  19.567  0.00  0.00    +0.000 A 
ATOM      4  C   UNL     1       1.401   4.975  20.480  0.00  0.00    +0.000 C 
ATOM      5  N   UNL     1       2.867   6.357  18.917  0.00  0.00    +0.000 N 
ATOM      6  C   UNL     1       3.978   6.141  18.090  0.00  0.00    +0.000 A 
ATOM      7  C   UNL     1       4.717   7.216  17.349  0.00  0.00    +0.000 C 
ENDROOT
BRANCH   5   8
ATOM      8  C   UNL     1       2.153   7.598  19.046  0.00  0.00    +0.000 A 
ATOM      9  C   UNL     1       1.763   8.083  20.301  0.00  0.00    +0.000 A 
ATOM     10  C   UNL     1       1.025   9.265  20.411  0.00  0.00    +0.000 A 
ATOM     11  C   UNL     1       0.716  10.007  19.275  0.00  0.00    +0.000 A 
ATOM     12  C   UNL     1       1.128   9.557  18.025  0.00  0.00    +0.000 A 
ATOM     13  C   UNL     1       1.818   8.347  17.908  0.00  0.00    +0.000 A 
ENDBRANCH   5   8
BRANCH   2  14
ATOM     14  S   UNL     1       3.526   2.475  19.486  0.00  0.00    +0.000 S 
ATOM     15  O   UNL     1       3.274   1.783  18.244  0.00  0.00    +0.000 OA
ATOM     16  O   UNL     1       4.747   2.327  20.241  0.00  0.00    +0.000 OA
BRANCH  14  17
ATOM     17  N   UNL     1       2.239   2.097  20.481  0.00  0.00    +0.000 NA
ATOM     18  H   UNL     1       2.282   2.583  21.371  0.00  0.00    +0.000 HD
ATOM     19  H   UNL     1       2.113   1.081  20.549  0.00  0.00    +0.000 HD
ENDBRANCH  14  17
ENDBRANCH   2  14
BRANCH   1  20
ATOM     20  C   UNL     1       5.437   4.179  17.415  0.00  0.00    +0.000 C 
ATOM     21  O   UNL     1       5.307   3.722  16.285  0.00  0.00    +0.000 OA
BRANCH  20  22
ATOM     22  O   UNL     1       6.565   4.081  18.172  0.00  0.00    +0.000 OA
BRANCH  22  24
ATOM     23  C   UNL     1       7.816   5.926  19.059  0.00  0.00    +0.000 C 
ATOM     24  C   UNL     1       7.636   4.987  17.877  0.00  0.00    +0.000 C 
ENDBRANCH  22  24
ENDBRANCH  20  22
ENDBRANCH   1  20
TORSDOF 6
ENDMDL
MODEL 6
REMARK VINA RESULT:      -7.2      0.775      1.031
REMARK  Name = 
REMARK  9 active torsions:
REMARK  status: ('A' for Active; 'I' for Inactive)
REMARK    1  A    between atoms: C_1  and  C_2
REMARK    2  A    between atoms: C_2  and  O_3
REMARK    3  A    between atoms: O_3  and  C_4
REMARK    4  A    between atoms: C_4  and  C_6
REMARK    5  A    between atoms: C_7  and  S_8
REMARK    6  A    between atoms: S_8  and  N_9
REMARK    7  A    between atoms: C_12  and  C_13
REMARK    8  A    between atoms: N_14  and  C_15
REMARK    9  A    between atoms: C_21  and  C_22
REMARK                            x       y       z     vdW  Elec       q    Type
REMARK                         _______ _______ _______ _____ _____    ______ ____
ROOT
ATOM      1  C   UNL     1       4.319   4.783  18.164  0.00  0.00    +0.000 A 
ATOM      2  C   UNL     1       3.455   4.174  19.122  0.00  0.00    +0.000 A 
ATOM      3  C   UNL     1       2.561   5.143  19.570  0.00  0.00    +0.000 A 
ATOM      4  C   UNL     1       1.382   4.973  20.480  0.00  0.00    +0.000 C 
ATOM      5  N   UNL     1       2.850   6.350  18.914  0.00  0.00    +0.000 N 
ATOM      6  C   UNL     1       3.964   6.131  18.092  0.00  0.00    +0.000 A 
ATOM      7  C   UNL     1       4.704   7.204  17.348  0.00  0.00    +0.000 C 
ENDROOT
BRANCH   5   8
ATOM      8  C   UNL     1       2.134   7.591  19.034  0.00  0.00    +0.000 A 
ATOM      9  C   UNL     1       1.812   8.354  17.904  0.00  0.00    +0.000 A 
ATOM     10  C   UNL     1       1.161   9.583  18.035  0.00  0.00    +0.000 A 
ATOM     11  C   UNL     1       0.772  10.040  19.291  0.00  0.00    +0.000 A 
ATOM     12  C   UNL     1       1.052   9.276  20.419  0.00  0.00    +0.000 A 
ATOM     13  C   UNL     1       1.752   8.073  20.295  0.00  0.00    +0.000 A 
ENDBRANCH   5   8
BRANCH   2  14
ATOM     14  S   UNL     1       3.515   2.472  19.505  0.00  0.00    +0.000 S 
ATOM     15  O   UNL     1       3.242   1.774  18.271  0.00  0.00    +0.000 OA
ATOM     16  O   UNL     1       4.746   2.326  20.243  0.00  0.00    +0.000 OA
BRANCH  14  17
ATOM     17  N   UNL     1       2.241   2.103  20.521  0.00  0.00    +0.000 NA
ATOM     18  H   UNL     1       2.547   1.663  21.382  0.00  0.00    +0.000 HD
ATOM     19  H   UNL     1       1.503   1.598  20.016  0.00  0.00    +0.000 HD
ENDBRANCH  14  17
ENDBRANCH   2  14
BRANCH   1  20
ATOM     20  C   UNL     1       5.429   4.168  17.432  0.00  0.00    +0.000 C 
ATOM     21  O   UNL     1       5.301   3.699  16.307  0.00  0.00    +0.000 OA
BRANCH  20  22
ATOM     22  O   UNL     1       6.557   4.085  18.189  0.00  0.00    +0.000 OA
BRANCH  22  24
ATOM     23  C   UNL     1       7.836   5.923  19.052  0.00  0.00    +0.000 C 
ATOM     24  C   UNL     1       7.629   4.983  17.875  0.00  0.00    +0.000 C 
ENDBRANCH  22  24
ENDBRANCH  20  22
ENDBRANCH   1  20
TORSDOF 6
ENDMDL
MODEL 7
REMARK VINA RESULT:      -6.6      1.824      3.671
REMARK  Name = 
REMARK  9 active torsions:
REMARK  status: ('A' for Active; 'I' for Inactive)
REMARK    1  A    between atoms: C_1  and  C_2
REMARK    2  A    between atoms: C_2  and  O_3
REMARK    3  A    between atoms: O_3  and  C_4
REMARK    4  A    between atoms: C_4  and  C_6
REMARK    5  A    between atoms: C_7  and  S_8
REMARK    6  A    between atoms: S_8  and  N_9
REMARK    7  A    between atoms: C_12  and  C_13
REMARK    8  A    between atoms: N_14  and  C_15
REMARK    9  A    between atoms: C_21  and  C_22
REMARK                            x       y       z     vdW  Elec       q    Type
REMARK                         _______ _______ _______ _____ _____    ______ ____
ROOT
ATOM      1  C   UNL     1       4.019   4.499  18.738  0.00  0.00    +0.000 A 
ATOM      2  C   UNL     1       4.761   5.283  17.804  0.00  0.00    +0.000 A 
ATOM      3  C   UNL     1       4.174   6.544  17.741  0.00  0.00    +0.000 A 
ATOM      4  C   UNL     1       4.654   7.759  17.005  0.00  0.00    +0.000 C 
ATOM      5  N   UNL     1       3.075   6.565  18.613  0.00  0.00    +0.000 N 
ATOM      6  C   UNL     1       2.957   5.290  19.182  0.00  0.00    +0.000 A 
ATOM      7  C   UNL     1       1.812   4.835  20.039  0.00  0.00    +0.000 C 
ENDROOT
BRANCH   5   8
ATOM      8  C   UNL     1       2.224   7.688  18.902  0.00  0.00    +0.000 A 
ATOM      9  C   UNL     1       1.755   8.523  17.880  0.00  0.00    +0.000 A 
ATOM     10  C   UNL     1       0.970   9.641  18.175  0.00  0.00    +0.000 A 
ATOM     11  C   UNL     1       0.597   9.907  19.489  0.00  0.00    +0.000 A 
ATOM     12  C   UNL     1       1.025   9.067  20.511  0.00  0.00    +0.000 A 
ATOM     13  C   UNL     1       1.855   7.979  20.223  0.00  0.00    +0.000 A 
ENDBRANCH   5   8
BRANCH   2  14
ATOM     14  S   UNL     1       6.210   4.704  17.023  0.00  0.00    +0.000 S 
ATOM     15  O   UNL     1       6.563   5.703  16.042  0.00  0.00    +0.000 OA
ATOM     16  O   UNL     1       7.071   4.332  18.120  0.00  0.00    +0.000 OA
BRANCH  14  17
ATOM     17  N   UNL     1       5.839   3.329  16.150  0.00  0.00    +0.000 NA
ATOM     18  H   UNL     1       6.663   2.787  15.912  0.00  0.00    +0.000 HD
ATOM     19  H   UNL     1       5.225   3.551  15.358  0.00  0.00    +0.000 HD
ENDBRANCH  14  17
ENDBRANCH   2  14
BRANCH   1  20
ATOM     20  C   UNL     1       4.245   3.105  19.127  0.00  0.00    +0.000 C 
ATOM     21  O   UNL     1       4.756   2.790  20.195  0.00  0.00    +0.000 OA
BRANCH  20  22
ATOM     22  O   UNL     1       3.931   2.238  18.125  0.00  0.00    +0.000 OA
BRANCH  22  24
ATOM     23  C   UNL     1       1.708   1.666  18.824  0.00  0.00    +0.000 C 
ATOM     24  C   UNL     1       2.566   2.203  17.689  0.00  0.00    +0.000 C 
ENDBRANCH  22  24
ENDBRANCH  20  22
ENDBRANCH   1  20
TORSDOF 6
ENDMDL
MODEL 8
REMARK VINA RESULT:      -6.6      1.795      3.813
REMARK  Name = 
REMARK  9 active torsions:
REMARK  status: ('A' for Active; 'I' for Inactive)
REMARK    1  A    between atoms: C_1  and  C_2
REMARK    2  A    between atoms: C_2  and  O_3
REMARK    3  A    between atoms: O_3  and  C_4
REMARK    4  A    between atoms: C_4  and  C_6
REMARK    5  A    between atoms: C_7  and  S_8
REMARK    6  A    between atoms: S_8  and  N_9
REMARK    7  A    between atoms: C_12  and  C_13
REMARK    8  A    between atoms: N_14  and  C_15
REMARK    9  A    between atoms: C_21  and  C_22
REMARK                            x       y       z     vdW  Elec       q    Type
REMARK                         _______ _______ _______ _____ _____    ______ ____
ROOT
ATOM      1  C   UNL     1       3.996   4.457  18.748  0.00  0.00    +0.000 A 
ATOM      2  C   UNL     1       4.750   5.232  17.817  0.00  0.00    +0.000 A 
ATOM      3  C   UNL     1       4.182   6.502  17.757  0.00  0.00    +0.000 A 
ATOM      4  C   UNL     1       4.680   7.711  17.025  0.00  0.00    +0.000 C 
ATOM      5  N   UNL     1       3.082   6.537  18.628  0.00  0.00    +0.000 N 
ATOM      6  C   UNL     1       2.945   5.262  19.193  0.00  0.00    +0.000 A 
ATOM      7  C   UNL     1       1.793   4.822  20.048  0.00  0.00    +0.000 C 
ENDROOT
BRANCH   5   8
ATOM      8  C   UNL     1       2.248   7.671  18.918  0.00  0.00    +0.000 A 
ATOM      9  C   UNL     1       1.872   7.977  20.233  0.00  0.00    +0.000 A 
ATOM     10  C   UNL     1       1.020   9.051  20.500  0.00  0.00    +0.000 A 
ATOM     11  C   UNL     1       0.576   9.868  19.465  0.00  0.00    +0.000 A 
ATOM     12  C   UNL     1       0.969   9.599  18.158  0.00  0.00    +0.000 A 
ATOM     13  C   UNL     1       1.777   8.492  17.883  0.00  0.00    +0.000 A 
ENDBRANCH   5   8
BRANCH   2  14
ATOM     14  S   UNL     1       6.191   4.634  17.036  0.00  0.00    +0.000 S 
ATOM     15  O   UNL     1       6.519   5.595  16.009  0.00  0.00    +0.000 OA
ATOM     16  O   UNL     1       7.074   4.315  18.132  0.00  0.00    +0.000 OA
BRANCH  14  17
ATOM     17  N   UNL     1       5.819   3.220  16.227  0.00  0.00    +0.000 NA
ATOM     18  H   UNL     1       5.813   2.413  16.841  0.00  0.00    +0.000 HD
ATOM     19  H   UNL     1       6.394   3.118  15.383  0.00  0.00    +0.000 HD
ENDBRANCH  14  17
ENDBRANCH   2  14
BRANCH   1  20
ATOM     20  C   UNL     1       4.201   3.059  19.133  0.00  0.00    +0.000 C 
ATOM     21  O   UNL     1       4.730   2.734  20.189  0.00  0.00    +0.000 OA
BRANCH  20  22
ATOM     22  O   UNL     1       3.844   2.198  18.141  0.00  0.00    +0.000 OA
BRANCH  22  24
ATOM     23  C   UNL     1       1.587   1.680  18.769  0.00  0.00    +0.000 C 
ATOM     24  C   UNL     1       2.487   2.248  17.683  0.00  0.00    +0.000 C 
ENDBRANCH  22  24
ENDBRANCH  20  22
ENDBRANCH   1  20
TORSDOF 6
ENDMDL
MODEL 9
REMARK VINA RESULT:      -6.4      1.941      3.473
REMARK  Name = 
REMARK  9 active torsions:
REMARK  status: ('A' for Active; 'I' for Inactive)
REMARK    1  A    between atoms: C_1  and  C_2
REMARK    2  A    between atoms: C_2  and  O_3
REMARK    3  A    between atoms: O_3  and  C_4
REMARK    4  A    between atoms: C_4  and  C_6
REMARK    5  A    between atoms: C_7  and  S_8
REMARK    6  A    between atoms: S_8  and  N_9
REMARK    7  A    between atoms: C_12  and  C_13
REMARK    8  A    between atoms: N_14  and  C_15
REMARK    9  A    between atoms: C_21  and  C_22
REMARK                            x       y       z     vdW  Elec       q    Type
REMARK                         _______ _______ _______ _____ _____    ______ ____
ROOT
ATOM      1  C   UNL     1       4.098   4.390  18.349  0.00  0.00    +0.000 A 
ATOM      2  C   UNL     1       4.987   5.252  17.639  0.00  0.00    +0.000 A 
ATOM      3  C   UNL     1       4.443   6.534  17.655  0.00  0.00    +0.000 A 
ATOM      4  C   UNL     1       5.054   7.810  17.157  0.00  0.00    +0.000 C 
ATOM      5  N   UNL     1       3.229   6.492  18.356  0.00  0.00    +0.000 N 
ATOM      6  C   UNL     1       3.000   5.162  18.733  0.00  0.00    +0.000 A 
ATOM      7  C   UNL     1       1.732   4.652  19.352  0.00  0.00    +0.000 C 
ENDROOT
BRANCH   5   8
ATOM      8  C   UNL     1       2.370   7.604  18.661  0.00  0.00    +0.000 A 
ATOM      9  C   UNL     1       1.905   8.459  17.653  0.00  0.00    +0.000 A 
ATOM     10  C   UNL     1       1.112   9.566  17.966  0.00  0.00    +0.000 A 
ATOM     11  C   UNL     1       0.726   9.802  19.282  0.00  0.00    +0.000 A 
ATOM     12  C   UNL     1       1.150   8.942  20.289  0.00  0.00    +0.000 A 
ATOM     13  C   UNL     1       1.988   7.865  19.985  0.00  0.00    +0.000 A 
ENDBRANCH   5   8
BRANCH   2  14
ATOM     14  S   UNL     1       6.522   4.716  17.006  0.00  0.00    +0.000 S 
ATOM     15  O   UNL     1       7.336   4.386  18.152  0.00  0.00    +0.000 OA
ATOM     16  O   UNL     1       6.163   3.758  15.988  0.00  0.00    +0.000 OA
BRANCH  14  17
ATOM     17  N   UNL     1       7.284   6.009  16.271  0.00  0.00    +0.000 NA
ATOM     18  H   UNL     1       7.531   6.739  16.931  0.00  0.00    +0.000 HD
ATOM     19  H   UNL     1       6.755   6.329  15.451  0.00  0.00    +0.000 HD
ENDBRANCH  14  17
ENDBRANCH   2  14
BRANCH   1  20
ATOM     20  C   UNL     1       4.234   2.950  18.583  0.00  0.00    +0.000 C 
ATOM     21  O   UNL     1       3.706   2.110  17.865  0.00  0.00    +0.000 OA
BRANCH  20  22
ATOM     22  O   UNL     1       4.906   2.682  19.737  0.00  0.00    +0.000 OA
BRANCH  22  24
ATOM     23  C   UNL     1       3.146   2.411  21.343  0.00  0.00    +0.000 C 
ATOM     24  C   UNL     1       4.314   1.740  20.640  0.00  0.00    +0.000 C 
ENDBRANCH  22  24
ENDBRANCH  20  22
ENDBRANCH   1  20
TORSDOF 6
ENDMDL
