MODEL 1
REMARK VINA RESULT:      -8.6      0.000      0.000
REMARK  Name = 
REMARK  5 active torsions:
REMARK  status: ('A' for Active; 'I' for Inactive)
REMARK    1  A    between atoms: C_2  and  C_20
REMARK    2  A    between atoms: N_3  and  C_4
REMARK    3  A    between atoms: C_8  and  N_9
REMARK    4  A    between atoms: C_13  and  C_14
REMARK    5  A    between atoms: C_25  and  N_26
REMARK                            x       y       z     vdW  Elec       q    Type
REMARK                         _______ _______ _______ _____ _____    ______ ____
ROOT
ATOM      1  C   UNL     1       2.507   4.733  18.655  0.00  0.00    +0.000 C 
ATOM      2  C   UNL     1       1.356   3.719  18.736  0.00  0.00    +0.000 C 
ATOM      3  C   UNL     1       1.677   2.805  19.929  0.00  0.00    +0.000 C 
ATOM      4  C   UNL     1       2.911   3.395  20.622  0.00  0.00    +0.000 C 
ATOM      5  C   UNL     1       2.985   4.841  20.129  0.00  0.00    +0.000 C 
ENDROOT
BRANCH   5   6
ATOM      6  N   UNL     1       2.033   5.677  20.905  0.00  0.00    +0.000 N 
ATOM      7  C   UNL     1       1.813   6.976  20.427  0.00  0.00    +0.000 A 
ATOM      8  C   UNL     1       1.025   7.863  21.176  0.00  0.00    +0.000 A 
ATOM      9  N   UNL     1       0.715   9.126  20.785  0.00  0.00    +0.000 NA
ATOM     10  C   UNL     1       1.205   9.501  19.568  0.00  0.00    +0.000 A 
ATOM     11  C   UNL     1       1.979   8.622  18.822  0.00  0.00    +0.000 A 
ATOM     12  N   UNL     1       2.289   7.367  19.230  0.00  0.00    +0.000 NA
ATOM     13  H   UNL     1       2.307   5.734  21.884  0.00  0.00    +0.000 HD
BRANCH  10  14
ATOM     14  C   UNL     1       0.917  10.867  18.992  0.00  0.00    +0.000 C 
ATOM     15  F   UNL     1       1.912  11.375  18.210  0.00  0.00    +0.000 F 
ATOM     16  F   UNL     1      -0.206  10.883  18.218  0.00  0.00    +0.000 F 
ATOM     17  F   UNL     1       0.698  11.802  19.963  0.00  0.00    +0.000 F 
ENDBRANCH  10  14
ENDBRANCH   5   6
BRANCH   1  20
ATOM     18  O   UNL     1       4.164   6.499  16.991  0.00  0.00    +0.000 OA
ATOM     19  C   UNL     1       4.307   5.282  16.953  0.00  0.00    +0.000 C 
ATOM     20  N   UNL     1       3.544   4.380  17.670  0.00  0.00    +0.000 N 
ATOM     21  H   UNL     1       3.645   3.407  17.401  0.00  0.00    +0.000 HD
BRANCH  19  22
ATOM     22  C   UNL     1       5.307   4.716  15.993  0.00  0.00    +0.000 A 
ATOM     23  N   UNL     1       4.753   4.078  14.918  0.00  0.00    +0.000 NA
ATOM     24  C   UNL     1       5.552   3.921  13.840  0.00  0.00    +0.000 A 
ATOM     25  C   UNL     1       6.864   4.368  13.772  0.00  0.00    +0.000 A 
ATOM     26  C   UNL     1       7.424   4.976  14.894  0.00  0.00    +0.000 A 
ATOM     27  C   UNL     1       6.642   5.126  16.042  0.00  0.00    +0.000 A 
BRANCH  27  28
ATOM     28  N   UNL     1       7.200   5.652  17.227  0.00  0.00    +0.000 N 
ATOM     29  C   UNL     1       7.601   6.951  17.462  0.00  0.00    +0.000 A 
ATOM     30  C   UNL     1       8.069   6.993  18.755  0.00  0.00    +0.000 A 
ATOM     31  C   UNL     1       8.011   5.662  19.193  0.00  0.00    +0.000 A 
ATOM     32  N   UNL     1       7.544   4.836  18.257  0.00  0.00    +0.000 NA
ENDBRANCH  27  28
ENDBRANCH  19  22
ENDBRANCH   1  20
TORSDOF 5
ENDMDL
MODEL 2
REMARK VINA RESULT:      -7.9      3.925      7.789
REMARK  Name = 
REMARK  5 active torsions:
REMARK  status: ('A' for Active; 'I' for Inactive)
REMARK    1  A    between atoms: C_2  and  C_20
REMARK    2  A    between atoms: N_3  and  C_4
REMARK    3  A    between atoms: C_8  and  N_9
REMARK    4  A    between atoms: C_13  and  C_14
REMARK    5  A    between atoms: C_25  and  N_26
REMARK                            x       y       z     vdW  Elec       q    Type
REMARK                         _______ _______ _______ _____ _____    ______ ____
ROOT
ATOM      1  C   UNL     1       5.729   5.622  17.178  0.00  0.00    +0.000 C 
ATOM      2  C   UNL     1       6.312   7.025  17.398  0.00  0.00    +0.000 C 
ATOM      3  C   UNL     1       7.677   6.819  18.073  0.00  0.00    +0.000 C 
ATOM      4  C   UNL     1       7.943   5.309  18.085  0.00  0.00    +0.000 C 
ATOM      5  C   UNL     1       6.996   4.734  17.031  0.00  0.00    +0.000 C 
ENDROOT
BRANCH   5   6
ATOM      6  N   UNL     1       7.586   4.922  15.681  0.00  0.00    +0.000 N 
ATOM      7  C   UNL     1       6.839   4.433  14.601  0.00  0.00    +0.000 A 
ATOM      8  C   UNL     1       7.389   4.462  13.311  0.00  0.00    +0.000 A 
ATOM      9  N   UNL     1       6.736   4.053  12.192  0.00  0.00    +0.000 NA
ATOM     10  C   UNL     1       5.458   3.617  12.386  0.00  0.00    +0.000 A 
ATOM     11  C   UNL     1       4.910   3.594  13.661  0.00  0.00    +0.000 A 
ATOM     12  N   UNL     1       5.577   3.995  14.770  0.00  0.00    +0.000 NA
ATOM     13  H   UNL     1       8.524   4.528  15.631  0.00  0.00    +0.000 HD
BRANCH  10  14
ATOM     14  C   UNL     1       4.602   3.158  11.229  0.00  0.00    +0.000 C 
ATOM     15  F   UNL     1       4.443   4.082  10.239  0.00  0.00    +0.000 F 
ATOM     16  F   UNL     1       5.100   2.044  10.618  0.00  0.00    +0.000 F 
ATOM     17  F   UNL     1       3.339   2.819  11.622  0.00  0.00    +0.000 F 
ENDBRANCH  10  14
ENDBRANCH   5   6
BRANCH   1  20
ATOM     18  O   UNL     1       3.448   3.782  16.968  0.00  0.00    +0.000 OA
ATOM     19  C   UNL     1       3.743   4.299  18.039  0.00  0.00    +0.000 C 
ATOM     20  N   UNL     1       4.772   5.204  18.217  0.00  0.00    +0.000 N 
ATOM     21  H   UNL     1       4.781   5.690  19.107  0.00  0.00    +0.000 HD
BRANCH  19  22
ATOM     22  C   UNL     1       2.875   4.015  19.225  0.00  0.00    +0.000 A 
ATOM     23  N   UNL     1       2.907   2.714  19.644  0.00  0.00    +0.000 NA
ATOM     24  C   UNL     1       2.500   2.483  20.912  0.00  0.00    +0.000 A 
ATOM     25  C   UNL     1       2.071   3.475  21.784  0.00  0.00    +0.000 A 
ATOM     26  C   UNL     1       2.003   4.788  21.324  0.00  0.00    +0.000 A 
ATOM     27  C   UNL     1       2.382   5.064  20.007  0.00  0.00    +0.000 A 
BRANCH  27  28
ATOM     28  N   UNL     1       2.240   6.364  19.477  0.00  0.00    +0.000 N 
ATOM     29  C   UNL     1       1.975   7.528  20.167  0.00  0.00    +0.000 A 
ATOM     30  C   UNL     1       1.938   8.541  19.237  0.00  0.00    +0.000 A 
ATOM     31  C   UNL     1       2.088   7.890  18.003  0.00  0.00    +0.000 A 
ATOM     32  N   UNL     1       2.211   6.569  18.135  0.00  0.00    +0.000 NA
ENDBRANCH  27  28
ENDBRANCH  19  22
ENDBRANCH   1  20
TORSDOF 5
ENDMDL
MODEL 3
REMARK VINA RESULT:      -7.6      3.948      7.857
REMARK  Name = 
REMARK  5 active torsions:
REMARK  status: ('A' for Active; 'I' for Inactive)
REMARK    1  A    between atoms: C_2  and  C_20
REMARK    2  A    between atoms: N_3  and  C_4
REMARK    3  A    between atoms: C_8  and  N_9
REMARK    4  A    between atoms: C_13  and  C_14
REMARK    5  A    between atoms: C_25  and  N_26
REMARK                            x       y       z     vdW  Elec       q    Type
REMARK                         _______ _______ _______ _____ _____    ______ ____
ROOT
ATOM      1  C   UNL     1       5.995   6.840  17.275  0.00  0.00    +0.000 C 
ATOM      2  C   UNL     1       6.944   8.026  17.497  0.00  0.00    +0.000 C 
ATOM      3  C   UNL     1       8.203   7.446  18.159  0.00  0.00    +0.000 C 
ATOM      4  C   UNL     1       8.042   5.921  18.161  0.00  0.00    +0.000 C 
ATOM      5  C   UNL     1       6.966   5.638  17.113  0.00  0.00    +0.000 C 
ENDROOT
BRANCH   5   6
ATOM      6  N   UNL     1       7.576   5.666  15.758  0.00  0.00    +0.000 N 
ATOM      7  C   UNL     1       6.888   4.976  14.751  0.00  0.00    +0.000 A 
ATOM      8  C   UNL     1       7.467   4.852  13.479  0.00  0.00    +0.000 A 
ATOM      9  N   UNL     1       6.868   4.242  12.424  0.00  0.00    +0.000 NA
ATOM     10  C   UNL     1       5.616   3.756  12.660  0.00  0.00    +0.000 A 
ATOM     11  C   UNL     1       5.039   3.883  13.916  0.00  0.00    +0.000 A 
ATOM     12  N   UNL     1       5.652   4.485  14.964  0.00  0.00    +0.000 NA
ATOM     13  H   UNL     1       8.537   5.331  15.781  0.00  0.00    +0.000 HD
BRANCH  10  14
ATOM     14  C   UNL     1       4.819   3.078  11.571  0.00  0.00    +0.000 C 
ATOM     15  F   UNL     1       5.324   1.880  11.159  0.00  0.00    +0.000 F 
ATOM     16  F   UNL     1       3.530   2.827  11.943  0.00  0.00    +0.000 F 
ATOM     17  F   UNL     1       4.725   3.844  10.444  0.00  0.00    +0.000 F 
ENDBRANCH  10  14
ENDBRANCH   5   6
BRANCH   1  20
ATOM     18  O   UNL     1       3.461   5.355  17.192  0.00  0.00    +0.000 OA
ATOM     19  C   UNL     1       3.813   5.943  18.209  0.00  0.00    +0.000 C 
ATOM     20  N   UNL     1       4.966   6.695  18.320  0.00  0.00    +0.000 N 
ATOM     21  H   UNL     1       5.036   7.274  19.150  0.00  0.00    +0.000 HD
BRANCH  19  22
ATOM     22  C   UNL     1       2.891   5.932  19.388  0.00  0.00    +0.000 A 
ATOM     23  N   UNL     1       2.498   7.175  19.803  0.00  0.00    +0.000 NA
ATOM     24  C   UNL     1       1.379   7.226  20.559  0.00  0.00    +0.000 A 
ATOM     25  C   UNL     1       0.630   6.114  20.918  0.00  0.00    +0.000 A 
ATOM     26  C   UNL     1       1.072   4.853  20.522  0.00  0.00    +0.000 A 
ATOM     27  C   UNL     1       2.245   4.753  19.769  0.00  0.00    +0.000 A 
BRANCH  27  28
ATOM     28  N   UNL     1       2.774   3.490  19.429  0.00  0.00    +0.000 N 
ATOM     29  C   UNL     1       2.212   2.537  18.605  0.00  0.00    +0.000 A 
ATOM     30  C   UNL     1       3.091   1.480  18.564  0.00  0.00    +0.000 A 
ATOM     31  C   UNL     1       4.105   1.830  19.468  0.00  0.00    +0.000 A 
ATOM     32  N   UNL     1       3.891   3.015  20.040  0.00  0.00    +0.000 NA
ENDBRANCH  27  28
ENDBRANCH  19  22
ENDBRANCH   1  20
TORSDOF 5
ENDMDL
MODEL 4
REMARK VINA RESULT:      -7.5      5.071     10.498
REMARK  Name = 
REMARK  5 active torsions:
REMARK  status: ('A' for Active; 'I' for Inactive)
REMARK    1  A    between atoms: C_2  and  C_20
REMARK    2  A    between atoms: N_3  and  C_4
REMARK    3  A    between atoms: C_8  and  N_9
REMARK    4  A    between atoms: C_13  and  C_14
REMARK    5  A    between atoms: C_25  and  N_26
REMARK                            x       y       z     vdW  Elec       q    Type
REMARK                         _______ _______ _______ _____ _____    ______ ____
ROOT
ATOM      1  C   UNL     1      -0.988  12.472  18.531  0.00  0.00    +0.000 C 
ATOM      2  C   UNL     1      -0.070  13.651  18.178  0.00  0.00    +0.000 C 
ATOM      3  C   UNL     1       1.036  13.664  19.244  0.00  0.00    +0.000 C 
ATOM      4  C   UNL     1       0.845  12.404  20.098  0.00  0.00    +0.000 C 
ATOM      5  C   UNL     1      -0.029  11.482  19.248  0.00  0.00    +0.000 C 
ENDROOT
BRANCH   5   6
ATOM      6  N   UNL     1       0.816  10.787  18.243  0.00  0.00    +0.000 N 
ATOM      7  C   UNL     1       1.378   9.566  18.640  0.00  0.00    +0.000 A 
ATOM      8  C   UNL     1       2.288   8.916  17.792  0.00  0.00    +0.000 A 
ATOM      9  N   UNL     1       2.857   7.713  18.061  0.00  0.00    +0.000 NA
ATOM     10  C   UNL     1       2.469   7.128  19.231  0.00  0.00    +0.000 A 
ATOM     11  C   UNL     1       1.564   7.767  20.068  0.00  0.00    +0.000 A 
ATOM     12  N   UNL     1       1.012   8.974  19.792  0.00  0.00    +0.000 NA
ATOM     13  H   UNL     1       1.562  11.394  17.908  0.00  0.00    +0.000 HD
BRANCH  10  14
ATOM     14  C   UNL     1       2.998   5.776  19.646  0.00  0.00    +0.000 C 
ATOM     15  F   UNL     1       2.521   5.322  20.840  0.00  0.00    +0.000 F 
ATOM     16  F   UNL     1       2.711   4.800  18.738  0.00  0.00    +0.000 F 
ATOM     17  F   UNL     1       4.359   5.767  19.766  0.00  0.00    +0.000 F 
ENDBRANCH  10  14
ENDBRANCH   5   6
BRANCH   1  20
ATOM     18  O   UNL     1      -3.648  11.223  18.553  0.00  0.00    +0.000 OA
ATOM     19  C   UNL     1      -3.400  12.189  19.266  0.00  0.00    +0.000 C 
ATOM     20  N   UNL     1      -2.192  12.859  19.287  0.00  0.00    +0.000 N 
ATOM     21  H   UNL     1      -2.189  13.746  19.781  0.00  0.00    +0.000 HD
BRANCH  19  22
ATOM     22  C   UNL     1      -4.504  12.751  20.106  0.00  0.00    +0.000 A 
ATOM     23  N   UNL     1      -5.719  12.794  19.480  0.00  0.00    +0.000 NA
ATOM     24  C   UNL     1      -6.803  12.887  20.281  0.00  0.00    +0.000 A 
ATOM     25  C   UNL     1      -6.743  12.934  21.668  0.00  0.00    +0.000 A 
ATOM     26  C   UNL     1      -5.494  12.934  22.285  0.00  0.00    +0.000 A 
ATOM     27  C   UNL     1      -4.346  12.874  21.489  0.00  0.00    +0.000 A 
BRANCH  27  28
ATOM     28  N   UNL     1      -3.064  12.966  22.072  0.00  0.00    +0.000 N 
ATOM     29  C   UNL     1      -2.391  11.993  22.780  0.00  0.00    +0.000 A 
ATOM     30  C   UNL     1      -1.178  12.531  23.139  0.00  0.00    +0.000 A 
ATOM     31  C   UNL     1      -1.239  13.862  22.699  0.00  0.00    +0.000 A 
ATOM     32  N   UNL     1      -2.398  14.150  22.107  0.00  0.00    +0.000 NA
ENDBRANCH  27  28
ENDBRANCH  19  22
ENDBRANCH   1  20
TORSDOF 5
ENDMDL
MODEL 5
REMARK VINA RESULT:      -7.4      4.725      9.266
REMARK  Name = 
REMARK  5 active torsions:
REMARK  status: ('A' for Active; 'I' for Inactive)
REMARK    1  A    between atoms: C_2  and  C_20
REMARK    2  A    between atoms: N_3  and  C_4
REMARK    3  A    between atoms: C_8  and  N_9
REMARK    4  A    between atoms: C_13  and  C_14
REMARK    5  A    between atoms: C_25  and  N_26
REMARK                            x       y       z     vdW  Elec       q    Type
REMARK                         _______ _______ _______ _____ _____    ______ ____
ROOT
ATOM      1  C   UNL     1       1.212  11.107  19.877  0.00  0.00    +0.000 C 
ATOM      2  C   UNL     1      -0.251  10.984  20.325  0.00  0.00    +0.000 C 
ATOM      3  C   UNL     1      -1.013  10.386  19.132  0.00  0.00    +0.000 C 
ATOM      4  C   UNL     1       0.035  10.017  18.075  0.00  0.00    +0.000 C 
ATOM      5  C   UNL     1       1.360   9.963  18.837  0.00  0.00    +0.000 C 
ENDROOT
BRANCH   5   6
ATOM      6  N   UNL     1       1.472   8.658  19.540  0.00  0.00    +0.000 N 
ATOM      7  C   UNL     1       2.281   7.691  18.929  0.00  0.00    +0.000 A 
ATOM      8  C   UNL     1       2.335   6.396  19.468  0.00  0.00    +0.000 A 
ATOM      9  N   UNL     1       3.116   5.398  18.980  0.00  0.00    +0.000 NA
ATOM     10  C   UNL     1       3.898   5.732  17.913  0.00  0.00    +0.000 A 
ATOM     11  C   UNL     1       3.851   7.014  17.383  0.00  0.00    +0.000 A 
ATOM     12  N   UNL     1       3.058   7.998  17.873  0.00  0.00    +0.000 NA
ATOM     13  H   UNL     1       0.554   8.253  19.711  0.00  0.00    +0.000 HD
BRANCH  10  14
ATOM     14  C   UNL     1       4.838   4.731  17.285  0.00  0.00    +0.000 C 
ATOM     15  F   UNL     1       6.052   4.629  17.898  0.00  0.00    +0.000 F 
ATOM     16  F   UNL     1       4.324   3.466  17.271  0.00  0.00    +0.000 F 
ATOM     17  F   UNL     1       5.108   5.023  15.978  0.00  0.00    +0.000 F 
ENDBRANCH  10  14
ENDBRANCH   5   6
BRANCH   1  20
ATOM     18  O   UNL     1       2.648  13.245  21.291  0.00  0.00    +0.000 OA
ATOM     19  C   UNL     1       2.292  13.390  20.127  0.00  0.00    +0.000 C 
ATOM     20  N   UNL     1       1.579  12.454  19.403  0.00  0.00    +0.000 N 
ATOM     21  H   UNL     1       1.192  12.779  18.524  0.00  0.00    +0.000 HD
BRANCH  19  22
ATOM     22  C   UNL     1       2.556  14.705  19.463  0.00  0.00    +0.000 A 
ATOM     23  N   UNL     1       3.767  14.781  18.832  0.00  0.00    +0.000 NA
ATOM     24  C   UNL     1       3.891  15.743  17.890  0.00  0.00    +0.000 A 
ATOM     25  C   UNL     1       2.878  16.625  17.541  0.00  0.00    +0.000 A 
ATOM     26  C   UNL     1       1.667  16.560  18.227  0.00  0.00    +0.000 A 
ATOM     27  C   UNL     1       1.510  15.602  19.233  0.00  0.00    +0.000 A 
BRANCH  27  28
ATOM     28  N   UNL     1       0.334  15.567  20.012  0.00  0.00    +0.000 N 
ATOM     29  C   UNL     1       0.122  16.155  21.241  0.00  0.00    +0.000 A 
ATOM     30  C   UNL     1      -1.171  15.861  21.604  0.00  0.00    +0.000 A 
ATOM     31  C   UNL     1      -1.636  15.009  20.591  0.00  0.00    +0.000 A 
ATOM     32  N   UNL     1      -0.713  14.778  19.657  0.00  0.00    +0.000 NA
ENDBRANCH  27  28
ENDBRANCH  19  22
ENDBRANCH   1  20
TORSDOF 5
ENDMDL
MODEL 6
REMARK VINA RESULT:      -7.3      1.081      1.239
REMARK  Name = 
REMARK  5 active torsions:
REMARK  status: ('A' for Active; 'I' for Inactive)
REMARK    1  A    between atoms: C_2  and  C_20
REMARK    2  A    between atoms: N_3  and  C_4
REMARK    3  A    between atoms: C_8  and  N_9
REMARK    4  A    between atoms: C_13  and  C_14
REMARK    5  A    between atoms: C_25  and  N_26
REMARK                            x       y       z     vdW  Elec       q    Type
REMARK                         _______ _______ _______ _____ _____    ______ ____
ROOT
ATOM      1  C   UNL     1       3.108   5.294  17.981  0.00  0.00    +0.000 C 
ATOM      2  C   UNL     1       2.085   4.149  18.001  0.00  0.00    +0.000 C 
ATOM      3  C   UNL     1       2.559   3.173  19.089  0.00  0.00    +0.000 C 
ATOM      4  C   UNL     1       3.746   3.838  19.796  0.00  0.00    +0.000 C 
ATOM      5  C   UNL     1       3.634   5.321  19.443  0.00  0.00    +0.000 C 
ENDROOT
BRANCH   5   6
ATOM      6  N   UNL     1       2.627   5.965  20.326  0.00  0.00    +0.000 N 
ATOM      7  C   UNL     1       2.181   7.235  19.938  0.00  0.00    +0.000 A 
ATOM      8  C   UNL     1       1.327   7.956  20.787  0.00  0.00    +0.000 A 
ATOM      9  N   UNL     1       0.804   9.174  20.489  0.00  0.00    +0.000 NA
ATOM     10  C   UNL     1       1.142   9.675  19.266  0.00  0.00    +0.000 A 
ATOM     11  C   UNL     1       1.981   8.960  18.422  0.00  0.00    +0.000 A 
ATOM     12  N   UNL     1       2.505   7.749  18.737  0.00  0.00    +0.000 NA
ATOM     13  H   UNL     1       2.961   6.018  21.286  0.00  0.00    +0.000 HD
BRANCH  10  14
ATOM     14  C   UNL     1       0.611  11.006  18.789  0.00  0.00    +0.000 C 
ATOM     15  F   UNL     1       1.532  11.793  18.163  0.00  0.00    +0.000 F 
ATOM     16  F   UNL     1      -0.422  10.873  17.908  0.00  0.00    +0.000 F 
ATOM     17  F   UNL     1       0.116  11.763  19.813  0.00  0.00    +0.000 F 
ENDBRANCH  10  14
ENDBRANCH   5   6
BRANCH   1  20
ATOM     18  O   UNL     1       4.499   2.879  17.048  0.00  0.00    +0.000 OA
ATOM     19  C   UNL     1       4.714   3.970  16.530  0.00  0.00    +0.000 C 
ATOM     20  N   UNL     1       4.135   5.157  16.934  0.00  0.00    +0.000 N 
ATOM     21  H   UNL     1       4.543   6.001  16.544  0.00  0.00    +0.000 HD
BRANCH  19  22
ATOM     22  C   UNL     1       5.747   4.049  15.449  0.00  0.00    +0.000 A 
ATOM     23  N   UNL     1       5.391   3.422  14.287  0.00  0.00    +0.000 NA
ATOM     24  C   UNL     1       6.060   3.800  13.175  0.00  0.00    +0.000 A 
ATOM     25  C   UNL     1       7.055   4.768  13.157  0.00  0.00    +0.000 A 
ATOM     26  C   UNL     1       7.433   5.363  14.358  0.00  0.00    +0.000 A 
ATOM     27  C   UNL     1       6.790   4.975  15.537  0.00  0.00    +0.000 A 
BRANCH  27  28
ATOM     28  N   UNL     1       7.209   5.486  16.784  0.00  0.00    +0.000 N 
ATOM     29  C   UNL     1       7.592   4.771  17.899  0.00  0.00    +0.000 A 
ATOM     30  C   UNL     1       7.925   5.692  18.865  0.00  0.00    +0.000 A 
ATOM     31  C   UNL     1       7.618   6.933  18.288  0.00  0.00    +0.000 A 
ATOM     32  N   UNL     1       7.128   6.815  17.054  0.00  0.00    +0.000 NA
ENDBRANCH  27  28
ENDBRANCH  19  22
ENDBRANCH   1  20
TORSDOF 5
ENDMDL
MODEL 7
REMARK VINA RESULT:      -7.2      2.966      5.331
REMARK  Name = 
REMARK  5 active torsions:
REMARK  status: ('A' for Active; 'I' for Inactive)
REMARK    1  A    between atoms: C_2  and  C_20
REMARK    2  A    between atoms: N_3  and  C_4
REMARK    3  A    between atoms: C_8  and  N_9
REMARK    4  A    between atoms: C_13  and  C_14
REMARK    5  A    between atoms: C_25  and  N_26
REMARK                            x       y       z     vdW  Elec       q    Type
REMARK                         _______ _______ _______ _____ _____    ______ ____
ROOT
ATOM      1  C   UNL     1       0.846   8.609  20.275  0.00  0.00    +0.000 C 
ATOM      2  C   UNL     1       0.400   8.177  21.679  0.00  0.00    +0.000 C 
ATOM      3  C   UNL     1       1.065   9.157  22.658  0.00  0.00    +0.000 C 
ATOM      4  C   UNL     1       1.747  10.238  21.810  0.00  0.00    +0.000 C 
ATOM      5  C   UNL     1       1.085  10.136  20.436  0.00  0.00    +0.000 C 
ENDROOT
BRANCH   5   6
ATOM      6  N   UNL     1      -0.220  10.847  20.462  0.00  0.00    +0.000 N 
ATOM      7  C   UNL     1      -0.981  10.793  19.287  0.00  0.00    +0.000 A 
ATOM      8  C   UNL     1      -2.163  11.544  19.194  0.00  0.00    +0.000 A 
ATOM      9  N   UNL     1      -2.994  11.531  18.120  0.00  0.00    +0.000 NA
ATOM     10  C   UNL     1      -2.625  10.702  17.102  0.00  0.00    +0.000 A 
ATOM     11  C   UNL     1      -1.460   9.953  17.194  0.00  0.00    +0.000 A 
ATOM     12  N   UNL     1      -0.633   9.984  18.269  0.00  0.00    +0.000 NA
ATOM     13  H   UNL     1      -0.101  11.823  20.727  0.00  0.00    +0.000 HD
BRANCH  10  14
ATOM     14  C   UNL     1      -3.468  10.565  15.857  0.00  0.00    +0.000 C 
ATOM     15  F   UNL     1      -4.772  10.933  16.011  0.00  0.00    +0.000 F 
ATOM     16  F   UNL     1      -2.994  11.311  14.818  0.00  0.00    +0.000 F 
ATOM     17  F   UNL     1      -3.501   9.281  15.393  0.00  0.00    +0.000 F 
ENDBRANCH  10  14
ENDBRANCH   5   6
BRANCH   1  20
ATOM     18  O   UNL     1       1.527   7.980  17.486  0.00  0.00    +0.000 OA
ATOM     19  C   UNL     1       2.250   7.618  18.408  0.00  0.00    +0.000 C 
ATOM     20  N   UNL     1       1.983   7.836  19.746  0.00  0.00    +0.000 N 
ATOM     21  H   UNL     1       2.565   7.322  20.400  0.00  0.00    +0.000 HD
BRANCH  19  22
ATOM     22  C   UNL     1       3.458   6.797  18.080  0.00  0.00    +0.000 A 
ATOM     23  N   UNL     1       4.405   7.460  17.350  0.00  0.00    +0.000 NA
ATOM     24  C   UNL     1       5.653   6.943  17.380  0.00  0.00    +0.000 A 
ATOM     25  C   UNL     1       6.009   5.810  18.098  0.00  0.00    +0.000 A 
ATOM     26  C   UNL     1       5.020   5.123  18.800  0.00  0.00    +0.000 A 
ATOM     27  C   UNL     1       3.709   5.605  18.766  0.00  0.00    +0.000 A 
BRANCH  27  28
ATOM     28  N   UNL     1       2.664   4.887  19.386  0.00  0.00    +0.000 N 
ATOM     29  C   UNL     1       1.661   4.166  18.772  0.00  0.00    +0.000 A 
ATOM     30  C   UNL     1       0.886   3.632  19.776  0.00  0.00    +0.000 A 
ATOM     31  C   UNL     1       1.427   4.161  20.957  0.00  0.00    +0.000 A 
ATOM     32  N   UNL     1       2.464   4.967  20.727  0.00  0.00    +0.000 NA
ENDBRANCH  27  28
ENDBRANCH  19  22
ENDBRANCH   1  20
TORSDOF 5
ENDMDL
MODEL 8
REMARK VINA RESULT:      -7.1      4.878      9.659
REMARK  Name = 
REMARK  5 active torsions:
REMARK  status: ('A' for Active; 'I' for Inactive)
REMARK    1  A    between atoms: C_2  and  C_20
REMARK    2  A    between atoms: N_3  and  C_4
REMARK    3  A    between atoms: C_8  and  N_9
REMARK    4  A    between atoms: C_13  and  C_14
REMARK    5  A    between atoms: C_25  and  N_26
REMARK                            x       y       z     vdW  Elec       q    Type
REMARK                         _______ _______ _______ _____ _____    ______ ____
ROOT
ATOM      1  C   UNL     1       0.313  10.612  18.959  0.00  0.00    +0.000 C 
ATOM      2  C   UNL     1       1.129  11.346  20.032  0.00  0.00    +0.000 C 
ATOM      3  C   UNL     1       1.444  10.302  21.115  0.00  0.00    +0.000 C 
ATOM      4  C   UNL     1       0.957   8.949  20.584  0.00  0.00    +0.000 C 
ATOM      5  C   UNL     1       0.816   9.146  19.074  0.00  0.00    +0.000 C 
ENDROOT
BRANCH   5   6
ATOM      6  N   UNL     1       2.151   9.023  18.433  0.00  0.00    +0.000 N 
ATOM      7  C   UNL     1       2.607   7.720  18.190  0.00  0.00    +0.000 A 
ATOM      8  C   UNL     1       3.909   7.523  17.705  0.00  0.00    +0.000 A 
ATOM      9  N   UNL     1       4.433   6.309  17.397  0.00  0.00    +0.000 NA
ATOM     10  C   UNL     1       3.594   5.247  17.565  0.00  0.00    +0.000 A 
ATOM     11  C   UNL     1       2.304   5.441  18.039  0.00  0.00    +0.000 A 
ATOM     12  N   UNL     1       1.796   6.658  18.353  0.00  0.00    +0.000 NA
ATOM     13  H   UNL     1       2.862   9.521  18.966  0.00  0.00    +0.000 HD
BRANCH  10  14
ATOM     14  C   UNL     1       4.032   3.840  17.236  0.00  0.00    +0.000 C 
ATOM     15  F   UNL     1       4.937   3.750  16.220  0.00  0.00    +0.000 F 
ATOM     16  F   UNL     1       4.608   3.208  18.300  0.00  0.00    +0.000 F 
ATOM     17  F   UNL     1       2.985   3.044  16.868  0.00  0.00    +0.000 F 
ENDBRANCH  10  14
ENDBRANCH   5   6
BRANCH   1  20
ATOM     18  O   UNL     1      -1.270  13.073  18.693  0.00  0.00    +0.000 OA
ATOM     19  C   UNL     1      -1.814  11.995  18.907  0.00  0.00    +0.000 C 
ATOM     20  N   UNL     1      -1.143  10.800  19.084  0.00  0.00    +0.000 N 
ATOM     21  H   UNL     1      -1.702  10.030  19.436  0.00  0.00    +0.000 HD
BRANCH  19  22
ATOM     22  C   UNL     1      -3.300  11.974  19.086  0.00  0.00    +0.000 A 
ATOM     23  N   UNL     1      -3.733  12.559  20.243  0.00  0.00    +0.000 NA
ATOM     24  C   UNL     1      -5.029  12.941  20.271  0.00  0.00    +0.000 A 
ATOM     25  C   UNL     1      -5.911  12.779  19.212  0.00  0.00    +0.000 A 
ATOM     26  C   UNL     1      -5.462  12.140  18.057  0.00  0.00    +0.000 A 
ATOM     27  C   UNL     1      -4.137  11.698  18.002  0.00  0.00    +0.000 A 
BRANCH  27  28
ATOM     28  N   UNL     1      -3.672  10.966  16.888  0.00  0.00    +0.000 N 
ATOM     29  C   UNL     1      -3.802  11.292  15.555  0.00  0.00    +0.000 A 
ATOM     30  C   UNL     1      -3.187  10.291  14.840  0.00  0.00    +0.000 A 
ATOM     31  C   UNL     1      -2.803   9.352  15.809  0.00  0.00    +0.000 A 
ATOM     32  N   UNL     1      -3.145   9.724  17.042  0.00  0.00    +0.000 NA
ENDBRANCH  27  28
ENDBRANCH  19  22
ENDBRANCH   1  20
TORSDOF 5
ENDMDL
MODEL 9
REMARK VINA RESULT:      -7.1      3.229      5.635
REMARK  Name = 
REMARK  5 active torsions:
REMARK  status: ('A' for Active; 'I' for Inactive)
REMARK    1  A    between atoms: C_2  and  C_20
REMARK    2  A    between atoms: N_3  and  C_4
REMARK    3  A    between atoms: C_8  and  N_9
REMARK    4  A    between atoms: C_13  and  C_14
REMARK    5  A    between atoms: C_25  and  N_26
REMARK                            x       y       z     vdW  Elec       q    Type
REMARK                         _______ _______ _______ _____ _____    ______ ____
ROOT
ATOM      1  C   UNL     1       1.829   9.052  19.693  0.00  0.00    +0.000 C 
ATOM      2  C   UNL     1       1.627   9.385  18.208  0.00  0.00    +0.000 C 
ATOM      3  C   UNL     1       0.125   9.656  18.033  0.00  0.00    +0.000 C 
ATOM      4  C   UNL     1      -0.496   9.643  19.435  0.00  0.00    +0.000 C 
ATOM      5  C   UNL     1       0.683   9.837  20.389  0.00  0.00    +0.000 C 
ENDROOT
BRANCH   5   6
ATOM      6  N   UNL     1       1.033  11.280  20.455  0.00  0.00    +0.000 N 
ATOM      7  C   UNL     1       0.266  12.066  21.326  0.00  0.00    +0.000 A 
ATOM      8  C   UNL     1       0.455  13.457  21.348  0.00  0.00    +0.000 A 
ATOM      9  N   UNL     1      -0.203  14.304  22.181  0.00  0.00    +0.000 NA
ATOM     10  C   UNL     1      -1.075  13.714  23.049  0.00  0.00    +0.000 A 
ATOM     11  C   UNL     1      -1.257  12.338  23.034  0.00  0.00    +0.000 A 
ATOM     12  N   UNL     1      -0.601  11.505  22.189  0.00  0.00    +0.000 NA
ATOM     13  H   UNL     1       1.011  11.706  19.531  0.00  0.00    +0.000 HD
BRANCH  10  14
ATOM     14  C   UNL     1      -1.855  14.530  24.053  0.00  0.00    +0.000 C 
ATOM     15  F   UNL     1      -2.416  15.665  23.549  0.00  0.00    +0.000 F 
ATOM     16  F   UNL     1      -2.882  13.828  24.613  0.00  0.00    +0.000 F 
ATOM     17  F   UNL     1      -1.082  14.936  25.103  0.00  0.00    +0.000 F 
ENDBRANCH  10  14
ENDBRANCH   5   6
BRANCH   1  20
ATOM     18  O   UNL     1       3.177   6.911  18.200  0.00  0.00    +0.000 OA
ATOM     19  C   UNL     1       2.574   6.669  19.239  0.00  0.00    +0.000 C 
ATOM     20  N   UNL     1       1.881   7.608  19.979  0.00  0.00    +0.000 N 
ATOM     21  H   UNL     1       1.278   7.237  20.706  0.00  0.00    +0.000 HD
BRANCH  19  22
ATOM     22  C   UNL     1       2.492   5.246  19.697  0.00  0.00    +0.000 A 
ATOM     23  N   UNL     1       1.295   4.909  20.266  0.00  0.00    +0.000 NA
ATOM     24  C   UNL     1       1.007   3.589  20.313  0.00  0.00    +0.000 A 
ATOM     25  C   UNL     1       1.839   2.593  19.821  0.00  0.00    +0.000 A 
ATOM     26  C   UNL     1       3.073   2.955  19.285  0.00  0.00    +0.000 A 
ATOM     27  C   UNL     1       3.425   4.307  19.250  0.00  0.00    +0.000 A 
BRANCH  27  28
ATOM     28  N   UNL     1       4.702   4.704  18.801  0.00  0.00    +0.000 N 
ATOM     29  C   UNL     1       5.230   4.560  17.535  0.00  0.00    +0.000 A 
ATOM     30  C   UNL     1       6.494   5.102  17.568  0.00  0.00    +0.000 A 
ATOM     31  C   UNL     1       6.689   5.457  18.911  0.00  0.00    +0.000 A 
ATOM     32  N   UNL     1       5.635   5.165  19.674  0.00  0.00    +0.000 NA
ENDBRANCH  27  28
ENDBRANCH  19  22
ENDBRANCH   1  20
TORSDOF 5
ENDMDL
