MODEL 1
REMARK VINA RESULT:      -7.5      0.000      0.000
REMARK  Name = 
REMARK  7 active torsions:
REMARK  status: ('A' for Active; 'I' for Inactive)
REMARK    1  A    between atoms: C_1  and  C_2
REMARK    2  A    between atoms: C_2  and  O_3
REMARK    3  A    between atoms: O_3  and  C_4
REMARK    4  A    between atoms: C_7  and  N_8
REMARK    5  A    between atoms: N_14  and  C_15
REMARK    6  A    between atoms: C_15  and  C_16
REMARK    7  A    between atoms: C_21  and  C_22
REMARK                            x       y       z     vdW  Elec       q    Type
REMARK                         _______ _______ _______ _____ _____    ______ ____
ROOT
ATOM      1  N   UNL     1       1.862   8.374  19.134  0.00  0.00    +0.000 N 
ATOM      2  C   UNL     1       1.629   9.169  17.953  0.00  0.00    +0.000 C 
ATOM      3  C   UNL     1       1.355  10.567  18.483  0.00  0.00    +0.000 C 
ATOM      4  C   UNL     1       0.698  10.323  19.847  0.00  0.00    +0.000 C 
ATOM      5  C   UNL     1       1.020  11.411  20.887  0.00  0.00    +0.000 C 
ATOM      6  C   UNL     1       0.136  12.658  20.770  0.00  0.00    +0.000 C 
ATOM      7  N   UNL     1      -1.311  12.387  20.661  0.00  0.00    +0.000 NA
ATOM      8  C   UNL     1      -1.552  11.449  19.558  0.00  0.00    +0.000 C 
ATOM      9  C   UNL     1      -0.820  10.117  19.716  0.00  0.00    +0.000 C 
ATOM     10  C   UNL     1       1.339   9.003  20.272  0.00  0.00    +0.000 C 
ATOM     11  O   UNL     1       1.332   8.605  21.432  0.00  0.00    +0.000 OA
ENDROOT
BRANCH   1  15
ATOM     12  C   UNL     1       3.749   4.555  19.024  0.00  0.00    +0.000 A 
ATOM     13  C   UNL     1       2.841   4.862  20.029  0.00  0.00    +0.000 A 
ATOM     14  C   UNL     1       2.214   6.113  20.063  0.00  0.00    +0.000 A 
ATOM     15  C   UNL     1       2.485   7.093  19.099  0.00  0.00    +0.000 A 
ATOM     16  C   UNL     1       3.413   6.768  18.098  0.00  0.00    +0.000 A 
ATOM     17  C   UNL     1       4.046   5.517  18.064  0.00  0.00    +0.000 A 
BRANCH  12  18
ATOM     18  O   UNL     1       4.311   3.314  19.104  0.00  0.00    +0.000 OA
BRANCH  18  20
ATOM     19  C   UNL     1       2.742   2.113  17.783  0.00  0.00    +0.000 C 
ATOM     20  C   UNL     1       3.393   2.223  19.148  0.00  0.00    +0.000 C 
ENDBRANCH  18  20
ENDBRANCH  12  18
ENDBRANCH   1  15
BRANCH   7  21
ATOM     21  C   UNL     1      -1.874  11.927  21.955  0.00  0.00    +0.000 C 
BRANCH  21  22
ATOM     22  C   UNL     1      -2.952  12.797  22.598  0.00  0.00    +0.000 A 
ATOM     23  N   UNL     1      -4.229  12.445  22.268  0.00  0.00    +0.000 NA
ATOM     24  C   UNL     1      -5.253  13.128  22.826  0.00  0.00    +0.000 A 
ATOM     25  C   UNL     1      -5.082  14.158  23.718  0.00  0.00    +0.000 A 
ATOM     26  C   UNL     1      -3.783  14.528  24.045  0.00  0.00    +0.000 A 
ATOM     27  C   UNL     1      -2.685  13.860  23.473  0.00  0.00    +0.000 A 
ATOM     28  C   UNL     1      -1.301  14.313  23.828  0.00  0.00    +0.000 C 
ENDBRANCH  21  22
ENDBRANCH   7  21
TORSDOF 5
ENDMDL
MODEL 2
REMARK VINA RESULT:      -7.4      2.800      4.183
REMARK  Name = 
REMARK  7 active torsions:
REMARK  status: ('A' for Active; 'I' for Inactive)
REMARK    1  A    between atoms: C_1  and  C_2
REMARK    2  A    between atoms: C_2  and  O_3
REMARK    3  A    between atoms: O_3  and  C_4
REMARK    4  A    between atoms: C_7  and  N_8
REMARK    5  A    between atoms: N_14  and  C_15
REMARK    6  A    between atoms: C_15  and  C_16
REMARK    7  A    between atoms: C_21  and  C_22
REMARK                            x       y       z     vdW  Elec       q    Type
REMARK                         _______ _______ _______ _____ _____    ______ ____
ROOT
ATOM      1  N   UNL     1       1.793   8.228  19.404  0.00  0.00    +0.000 N 
ATOM      2  C   UNL     1       1.374   8.333  20.779  0.00  0.00    +0.000 C 
ATOM      3  C   UNL     1       0.156   9.241  20.738  0.00  0.00    +0.000 C 
ATOM      4  C   UNL     1       0.429  10.172  19.550  0.00  0.00    +0.000 C 
ATOM      5  C   UNL     1      -0.847  10.611  18.809  0.00  0.00    +0.000 C 
ATOM      6  C   UNL     1      -1.568  11.792  19.468  0.00  0.00    +0.000 C 
ATOM      7  N   UNL     1      -0.699  12.930  19.827  0.00  0.00    +0.000 NA
ATOM      8  C   UNL     1       0.418  12.452  20.650  0.00  0.00    +0.000 C 
ATOM      9  C   UNL     1       1.273  11.387  19.963  0.00  0.00    +0.000 C 
ATOM     10  C   UNL     1       1.268   9.278  18.638  0.00  0.00    +0.000 C 
ATOM     11  O   UNL     1       1.437   9.516  17.448  0.00  0.00    +0.000 OA
ENDROOT
BRANCH   1  15
ATOM     12  C   UNL     1       4.464   5.219  18.002  0.00  0.00    +0.000 A 
ATOM     13  C   UNL     1       3.722   5.017  19.157  0.00  0.00    +0.000 A 
ATOM     14  C   UNL     1       2.838   6.000  19.615  0.00  0.00    +0.000 A 
ATOM     15  C   UNL     1       2.680   7.215  18.936  0.00  0.00    +0.000 A 
ATOM     16  C   UNL     1       3.448   7.406  17.777  0.00  0.00    +0.000 A 
ATOM     17  C   UNL     1       4.337   6.423  17.318  0.00  0.00    +0.000 A 
BRANCH  12  18
ATOM     18  O   UNL     1       5.307   4.199  17.663  0.00  0.00    +0.000 OA
BRANCH  18  20
ATOM     19  C   UNL     1       7.635   4.670  17.755  0.00  0.00    +0.000 C 
ATOM     20  C   UNL     1       6.421   4.564  16.851  0.00  0.00    +0.000 C 
ENDBRANCH  18  20
ENDBRANCH  12  18
ENDBRANCH   1  15
BRANCH   7  21
ATOM     21  C   UNL     1      -0.262  13.678  18.622  0.00  0.00    +0.000 C 
BRANCH  21  22
ATOM     22  C   UNL     1       0.352  15.060  18.840  0.00  0.00    +0.000 A 
ATOM     23  N   UNL     1      -0.542  16.019  19.219  0.00  0.00    +0.000 NA
ATOM     24  C   UNL     1      -0.084  17.262  19.482  0.00  0.00    +0.000 A 
ATOM     25  C   UNL     1       1.240  17.618  19.396  0.00  0.00    +0.000 A 
ATOM     26  C   UNL     1       2.150  16.647  18.997  0.00  0.00    +0.000 A 
ATOM     27  C   UNL     1       1.718  15.344  18.692  0.00  0.00    +0.000 A 
ATOM     28  C   UNL     1       2.729  14.338  18.234  0.00  0.00    +0.000 C 
ENDBRANCH  21  22
ENDBRANCH   7  21
TORSDOF 5
ENDMDL
MODEL 3
REMARK VINA RESULT:      -7.3      1.220      1.408
REMARK  Name = 
REMARK  7 active torsions:
REMARK  status: ('A' for Active; 'I' for Inactive)
REMARK    1  A    between atoms: C_1  and  C_2
REMARK    2  A    between atoms: C_2  and  O_3
REMARK    3  A    between atoms: O_3  and  C_4
REMARK    4  A    between atoms: C_7  and  N_8
REMARK    5  A    between atoms: N_14  and  C_15
REMARK    6  A    between atoms: C_15  and  C_16
REMARK    7  A    between atoms: C_21  and  C_22
REMARK                            x       y       z     vdW  Elec       q    Type
REMARK                         _______ _______ _______ _____ _____    ______ ____
ROOT
ATOM      1  N   UNL     1       1.822   8.422  19.062  0.00  0.00    +0.000 N 
ATOM      2  C   UNL     1       2.105   9.170  17.863  0.00  0.00    +0.000 C 
ATOM      3  C   UNL     1       1.778  10.609  18.226  0.00  0.00    +0.000 C 
ATOM      4  C   UNL     1       0.650  10.483  19.257  0.00  0.00    +0.000 C 
ATOM      5  C   UNL     1       0.663  11.597  20.320  0.00  0.00    +0.000 C 
ATOM      6  C   UNL     1      -0.006  12.896  19.861  0.00  0.00    +0.000 C 
ATOM      7  N   UNL     1      -1.331  12.726  19.233  0.00  0.00    +0.000 NA
ATOM      8  C   UNL     1      -1.233  11.753  18.139  0.00  0.00    +0.000 C 
ATOM      9  C   UNL     1      -0.727  10.381  18.582  0.00  0.00    +0.000 C 
ATOM     10  C   UNL     1       0.976   9.143  19.915  0.00  0.00    +0.000 C 
ATOM     11  O   UNL     1       0.513   8.807  20.999  0.00  0.00    +0.000 OA
ENDROOT
BRANCH   1  15
ATOM     12  C   UNL     1       3.282   4.473  19.722  0.00  0.00    +0.000 A 
ATOM     13  C   UNL     1       2.369   5.040  20.600  0.00  0.00    +0.000 A 
ATOM     14  C   UNL     1       1.881   6.334  20.381  0.00  0.00    +0.000 A 
ATOM     15  C   UNL     1       2.302   7.099  19.285  0.00  0.00    +0.000 A 
ATOM     16  C   UNL     1       3.235   6.512  18.415  0.00  0.00    +0.000 A 
ATOM     17  C   UNL     1       3.728   5.217  18.635  0.00  0.00    +0.000 A 
BRANCH  12  18
ATOM     18  O   UNL     1       3.702   3.215  20.048  0.00  0.00    +0.000 OA
BRANCH  18  20
ATOM     19  C   UNL     1       2.061   1.906  18.931  0.00  0.00    +0.000 C 
ATOM     20  C   UNL     1       3.540   2.229  19.030  0.00  0.00    +0.000 C 
ENDBRANCH  18  20
ENDBRANCH  12  18
ENDBRANCH   1  15
BRANCH   7  21
ATOM     21  C   UNL     1      -2.365  12.374  20.239  0.00  0.00    +0.000 C 
BRANCH  21  22
ATOM     22  C   UNL     1      -2.494  13.286  21.458  0.00  0.00    +0.000 A 
ATOM     23  N   UNL     1      -2.915  14.552  21.172  0.00  0.00    +0.000 NA
ATOM     24  C   UNL     1      -3.105  15.417  22.192  0.00  0.00    +0.000 A 
ATOM     25  C   UNL     1      -2.904  15.091  23.511  0.00  0.00    +0.000 A 
ATOM     26  C   UNL     1      -2.460  13.808  23.804  0.00  0.00    +0.000 A 
ATOM     27  C   UNL     1      -2.228  12.879  22.774  0.00  0.00    +0.000 A 
ATOM     28  C   UNL     1      -1.719  11.516  23.134  0.00  0.00    +0.000 C 
ENDBRANCH  21  22
ENDBRANCH   7  21
TORSDOF 5
ENDMDL
MODEL 4
REMARK VINA RESULT:      -7.2      2.521      4.070
REMARK  Name = 
REMARK  7 active torsions:
REMARK  status: ('A' for Active; 'I' for Inactive)
REMARK    1  A    between atoms: C_1  and  C_2
REMARK    2  A    between atoms: C_2  and  O_3
REMARK    3  A    between atoms: O_3  and  C_4
REMARK    4  A    between atoms: C_7  and  N_8
REMARK    5  A    between atoms: N_14  and  C_15
REMARK    6  A    between atoms: C_15  and  C_16
REMARK    7  A    between atoms: C_21  and  C_22
REMARK                            x       y       z     vdW  Elec       q    Type
REMARK                         _______ _______ _______ _____ _____    ______ ____
ROOT
ATOM      1  N   UNL     1       1.435   8.249  19.992  0.00  0.00    +0.000 N 
ATOM      2  C   UNL     1       1.085   8.539  21.360  0.00  0.00    +0.000 C 
ATOM      3  C   UNL     1      -0.051   9.543  21.258  0.00  0.00    +0.000 C 
ATOM      4  C   UNL     1       0.251  10.312  19.966  0.00  0.00    +0.000 C 
ATOM      5  C   UNL     1      -1.013  10.783  19.223  0.00  0.00    +0.000 C 
ATOM      6  C   UNL     1      -1.601  12.088  19.771  0.00  0.00    +0.000 C 
ATOM      7  N   UNL     1      -0.623  13.174  19.973  0.00  0.00    +0.000 NA
ATOM      8  C   UNL     1       0.483  12.689  20.807  0.00  0.00    +0.000 C 
ATOM      9  C   UNL     1       1.213  11.484  20.215  0.00  0.00    +0.000 C 
ATOM     10  C   UNL     1       0.970   9.253  19.132  0.00  0.00    +0.000 C 
ATOM     11  O   UNL     1       1.108   9.346  17.918  0.00  0.00    +0.000 OA
ENDROOT
BRANCH   1  15
ATOM     12  C   UNL     1       3.776   4.877  18.848  0.00  0.00    +0.000 A 
ATOM     13  C   UNL     1       2.973   4.824  19.979  0.00  0.00    +0.000 A 
ATOM     14  C   UNL     1       2.197   5.927  20.352  0.00  0.00    +0.000 A 
ATOM     15  C   UNL     1       2.210   7.116  19.611  0.00  0.00    +0.000 A 
ATOM     16  C   UNL     1       3.037   7.154  18.477  0.00  0.00    +0.000 A 
ATOM     17  C   UNL     1       3.819   6.051  18.103  0.00  0.00    +0.000 A 
BRANCH  12  18
ATOM     18  O   UNL     1       4.503   3.749  18.594  0.00  0.00    +0.000 OA
BRANCH  18  20
ATOM     19  C   UNL     1       3.395   1.684  18.194  0.00  0.00    +0.000 C 
ATOM     20  C   UNL     1       4.048   2.564  19.243  0.00  0.00    +0.000 C 
ENDBRANCH  18  20
ENDBRANCH  12  18
ENDBRANCH   1  15
BRANCH   7  21
ATOM     21  C   UNL     1      -0.175  13.746  18.679  0.00  0.00    +0.000 C 
BRANCH  21  22
ATOM     22  C   UNL     1       0.492  15.120  18.714  0.00  0.00    +0.000 A 
ATOM     23  N   UNL     1      -0.369  16.157  18.929  0.00  0.00    +0.000 NA
ATOM     24  C   UNL     1       0.136  17.407  19.024  0.00  0.00    +0.000 A 
ATOM     25  C   UNL     1       1.475  17.695  18.923  0.00  0.00    +0.000 A 
ATOM     26  C   UNL     1       2.352  16.642  18.689  0.00  0.00    +0.000 A 
ATOM     27  C   UNL     1       1.871  15.328  18.562  0.00  0.00    +0.000 A 
ATOM     28  C   UNL     1       2.848  14.227  18.277  0.00  0.00    +0.000 C 
ENDBRANCH  21  22
ENDBRANCH   7  21
TORSDOF 5
ENDMDL
MODEL 5
REMARK VINA RESULT:      -7.2      1.061      1.259
REMARK  Name = 
REMARK  7 active torsions:
REMARK  status: ('A' for Active; 'I' for Inactive)
REMARK    1  A    between atoms: C_1  and  C_2
REMARK    2  A    between atoms: C_2  and  O_3
REMARK    3  A    between atoms: O_3  and  C_4
REMARK    4  A    between atoms: C_7  and  N_8
REMARK    5  A    between atoms: N_14  and  C_15
REMARK    6  A    between atoms: C_15  and  C_16
REMARK    7  A    between atoms: C_21  and  C_22
REMARK                            x       y       z     vdW  Elec       q    Type
REMARK                         _______ _______ _______ _____ _____    ______ ____
ROOT
ATOM      1  N   UNL     1       1.766   8.262  19.307  0.00  0.00    +0.000 N 
ATOM      2  C   UNL     1       1.719   8.956  18.044  0.00  0.00    +0.000 C 
ATOM      3  C   UNL     1       1.477  10.409  18.417  0.00  0.00    +0.000 C 
ATOM      4  C   UNL     1       0.655  10.327  19.710  0.00  0.00    +0.000 C 
ATOM      5  C   UNL     1       0.927  11.488  20.684  0.00  0.00    +0.000 C 
ATOM      6  C   UNL     1       0.142  12.763  20.359  0.00  0.00    +0.000 C 
ATOM      7  N   UNL     1      -1.297  12.561  20.104  0.00  0.00    +0.000 NA
ATOM      8  C   UNL     1      -1.471  11.540  19.064  0.00  0.00    +0.000 C 
ATOM      9  C   UNL     1      -0.848  10.191  19.419  0.00  0.00    +0.000 C 
ATOM     10  C   UNL     1       1.159   9.019  20.318  0.00  0.00    +0.000 C 
ATOM     11  O   UNL     1       0.997   8.731  21.498  0.00  0.00    +0.000 OA
ENDROOT
BRANCH   1  15
ATOM     12  C   UNL     1       3.407   4.354  19.745  0.00  0.00    +0.000 A 
ATOM     13  C   UNL     1       2.400   4.793  20.594  0.00  0.00    +0.000 A 
ATOM     14  C   UNL     1       1.854   6.073  20.448  0.00  0.00    +0.000 A 
ATOM     15  C   UNL     1       2.306   6.952  19.455  0.00  0.00    +0.000 A 
ATOM     16  C   UNL     1       3.333   6.494  18.613  0.00  0.00    +0.000 A 
ATOM     17  C   UNL     1       3.884   5.213  18.761  0.00  0.00    +0.000 A 
BRANCH  12  18
ATOM     18  O   UNL     1       3.875   3.096  19.996  0.00  0.00    +0.000 OA
BRANCH  18  20
ATOM     19  C   UNL     1       2.305   1.899  18.671  0.00  0.00    +0.000 C 
ATOM     20  C   UNL     1       3.777   2.175  18.911  0.00  0.00    +0.000 C 
ENDBRANCH  18  20
ENDBRANCH  12  18
ENDBRANCH   1  15
BRANCH   7  21
ATOM     21  C   UNL     1      -2.030  12.252  21.357  0.00  0.00    +0.000 C 
BRANCH  21  22
ATOM     22  C   UNL     1      -3.445  12.810  21.495  0.00  0.00    +0.000 A 
ATOM     23  N   UNL     1      -3.983  13.275  20.330  0.00  0.00    +0.000 NA
ATOM     24  C   UNL     1      -5.250  13.744  20.344  0.00  0.00    +0.000 A 
ATOM     25  C   UNL     1      -6.036  13.774  21.470  0.00  0.00    +0.000 A 
ATOM     26  C   UNL     1      -5.486  13.316  22.661  0.00  0.00    +0.000 A 
ATOM     27  C   UNL     1      -4.164  12.838  22.699  0.00  0.00    +0.000 A 
ATOM     28  C   UNL     1      -3.600  12.384  24.012  0.00  0.00    +0.000 C 
ENDBRANCH  21  22
ENDBRANCH   7  21
TORSDOF 5
ENDMDL
MODEL 6
REMARK VINA RESULT:      -7.2      0.805      1.731
REMARK  Name = 
REMARK  7 active torsions:
REMARK  status: ('A' for Active; 'I' for Inactive)
REMARK    1  A    between atoms: C_1  and  C_2
REMARK    2  A    between atoms: C_2  and  O_3
REMARK    3  A    between atoms: O_3  and  C_4
REMARK    4  A    between atoms: C_7  and  N_8
REMARK    5  A    between atoms: N_14  and  C_15
REMARK    6  A    between atoms: C_15  and  C_16
REMARK    7  A    between atoms: C_21  and  C_22
REMARK                            x       y       z     vdW  Elec       q    Type
REMARK                         _______ _______ _______ _____ _____    ______ ____
ROOT
ATOM      1  N   UNL     1       1.817   8.412  19.155  0.00  0.00    +0.000 N 
ATOM      2  C   UNL     1       1.491   9.165  17.970  0.00  0.00    +0.000 C 
ATOM      3  C   UNL     1       1.281  10.586  18.467  0.00  0.00    +0.000 C 
ATOM      4  C   UNL     1       0.743  10.403  19.891  0.00  0.00    +0.000 C 
ATOM      5  C   UNL     1       1.168  11.525  20.856  0.00  0.00    +0.000 C 
ATOM      6  C   UNL     1       0.292  12.779  20.769  0.00  0.00    +0.000 C 
ATOM      7  N   UNL     1      -1.162  12.526  20.798  0.00  0.00    +0.000 NA
ATOM      8  C   UNL     1      -1.510  11.551  19.757  0.00  0.00    +0.000 C 
ATOM      9  C   UNL     1      -0.782  10.215  19.902  0.00  0.00    +0.000 C 
ATOM     10  C   UNL     1       1.403   9.090  20.309  0.00  0.00    +0.000 C 
ATOM     11  O   UNL     1       1.495   8.737  21.480  0.00  0.00    +0.000 OA
ENDROOT
BRANCH   1  15
ATOM     12  C   UNL     1       3.593   4.540  19.041  0.00  0.00    +0.000 A 
ATOM     13  C   UNL     1       3.901   5.484  18.070  0.00  0.00    +0.000 A 
ATOM     14  C   UNL     1       3.325   6.759  18.110  0.00  0.00    +0.000 A 
ATOM     15  C   UNL     1       2.419   7.121  19.115  0.00  0.00    +0.000 A 
ATOM     16  C   UNL     1       2.112   6.150  20.081  0.00  0.00    +0.000 A 
ATOM     17  C   UNL     1       2.685   4.870  20.041  0.00  0.00    +0.000 A 
BRANCH  12  18
ATOM     18  O   UNL     1       4.199   3.326  18.889  0.00  0.00    +0.000 OA
BRANCH  18  20
ATOM     19  C   UNL     1       2.564   2.059  17.718  0.00  0.00    +0.000 C 
ATOM     20  C   UNL     1       3.345   2.191  19.012  0.00  0.00    +0.000 C 
ENDBRANCH  18  20
ENDBRANCH  12  18
ENDBRANCH   1  15
BRANCH   7  21
ATOM     21  C   UNL     1      -1.614  12.123  22.153  0.00  0.00    +0.000 C 
BRANCH  21  22
ATOM     22  C   UNL     1      -2.067  13.235  23.098  0.00  0.00    +0.000 A 
ATOM     23  N   UNL     1      -1.050  13.860  23.761  0.00  0.00    +0.000 NA
ATOM     24  C   UNL     1      -1.350  14.888  24.583  0.00  0.00    +0.000 A 
ATOM     25  C   UNL     1      -2.628  15.349  24.788  0.00  0.00    +0.000 A 
ATOM     26  C   UNL     1      -3.667  14.705  24.127  0.00  0.00    +0.000 A 
ATOM     27  C   UNL     1      -3.405  13.616  23.277  0.00  0.00    +0.000 A 
ATOM     28  C   UNL     1      -4.558  12.930  22.609  0.00  0.00    +0.000 C 
ENDBRANCH  21  22
ENDBRANCH   7  21
TORSDOF 5
ENDMDL
MODEL 7
REMARK VINA RESULT:      -7.2      0.717      1.309
REMARK  Name = 
REMARK  7 active torsions:
REMARK  status: ('A' for Active; 'I' for Inactive)
REMARK    1  A    between atoms: C_1  and  C_2
REMARK    2  A    between atoms: C_2  and  O_3
REMARK    3  A    between atoms: O_3  and  C_4
REMARK    4  A    between atoms: C_7  and  N_8
REMARK    5  A    between atoms: N_14  and  C_15
REMARK    6  A    between atoms: C_15  and  C_16
REMARK    7  A    between atoms: C_21  and  C_22
REMARK                            x       y       z     vdW  Elec       q    Type
REMARK                         _______ _______ _______ _____ _____    ______ ____
ROOT
ATOM      1  N   UNL     1       1.852   8.432  19.105  0.00  0.00    +0.000 N 
ATOM      2  C   UNL     1       1.701   9.261  17.935  0.00  0.00    +0.000 C 
ATOM      3  C   UNL     1       1.428  10.651  18.486  0.00  0.00    +0.000 C 
ATOM      4  C   UNL     1       0.692  10.387  19.805  0.00  0.00    +0.000 C 
ATOM      5  C   UNL     1       0.980  11.442  20.890  0.00  0.00    +0.000 C 
ATOM      6  C   UNL     1       0.130  12.710  20.758  0.00  0.00    +0.000 C 
ATOM      7  N   UNL     1      -1.314  12.475  20.564  0.00  0.00    +0.000 NA
ATOM      8  C   UNL     1      -1.514  11.571  19.425  0.00  0.00    +0.000 C 
ATOM      9  C   UNL     1      -0.820  10.219  19.587  0.00  0.00    +0.000 C 
ATOM     10  C   UNL     1       1.281   9.043  20.229  0.00  0.00    +0.000 C 
ATOM     11  O   UNL     1       1.202   8.616  21.375  0.00  0.00    +0.000 OA
ENDROOT
BRANCH   1  15
ATOM     12  C   UNL     1       3.661   4.575  18.992  0.00  0.00    +0.000 A 
ATOM     13  C   UNL     1       2.800   4.918  20.026  0.00  0.00    +0.000 A 
ATOM     14  C   UNL     1       2.198   6.181  20.061  0.00  0.00    +0.000 A 
ATOM     15  C   UNL     1       2.449   7.139  19.069  0.00  0.00    +0.000 A 
ATOM     16  C   UNL     1       3.331   6.777  18.039  0.00  0.00    +0.000 A 
ATOM     17  C   UNL     1       3.938   5.513  18.004  0.00  0.00    +0.000 A 
BRANCH  12  18
ATOM     18  O   UNL     1       4.202   3.325  19.074  0.00  0.00    +0.000 OA
BRANCH  18  20
ATOM     19  C   UNL     1       2.646   2.127  17.734  0.00  0.00    +0.000 C 
ATOM     20  C   UNL     1       3.267   2.249  19.113  0.00  0.00    +0.000 C 
ENDBRANCH  18  20
ENDBRANCH  12  18
ENDBRANCH   1  15
BRANCH   7  21
ATOM     21  C   UNL     1      -1.957  11.995  21.813  0.00  0.00    +0.000 C 
BRANCH  21  22
ATOM     22  C   UNL     1      -2.883  12.966  22.542  0.00  0.00    +0.000 A 
ATOM     23  N   UNL     1      -2.329  13.552  23.644  0.00  0.00    +0.000 NA
ATOM     24  C   UNL     1      -3.056  14.463  24.326  0.00  0.00    +0.000 A 
ATOM     25  C   UNL     1      -4.328  14.842  23.969  0.00  0.00    +0.000 A 
ATOM     26  C   UNL     1      -4.900  14.236  22.857  0.00  0.00    +0.000 A 
ATOM     27  C   UNL     1      -4.189  13.267  22.127  0.00  0.00    +0.000 A 
ATOM     28  C   UNL     1      -4.856  12.615  20.954  0.00  0.00    +0.000 C 
ENDBRANCH  21  22
ENDBRANCH   7  21
TORSDOF 5
ENDMDL
MODEL 8
REMARK VINA RESULT:      -7.1      1.009      1.494
REMARK  Name = 
REMARK  7 active torsions:
REMARK  status: ('A' for Active; 'I' for Inactive)
REMARK    1  A    between atoms: C_1  and  C_2
REMARK    2  A    between atoms: C_2  and  O_3
REMARK    3  A    between atoms: O_3  and  C_4
REMARK    4  A    between atoms: C_7  and  N_8
REMARK    5  A    between atoms: N_14  and  C_15
REMARK    6  A    between atoms: C_15  and  C_16
REMARK    7  A    between atoms: C_21  and  C_22
REMARK                            x       y       z     vdW  Elec       q    Type
REMARK                         _______ _______ _______ _____ _____    ______ ____
ROOT
ATOM      1  N   UNL     1       1.821   8.600  19.035  0.00  0.00    +0.000 N 
ATOM      2  C   UNL     1       1.839   9.448  17.868  0.00  0.00    +0.000 C 
ATOM      3  C   UNL     1       1.505  10.833  18.399  0.00  0.00    +0.000 C 
ATOM      4  C   UNL     1       0.593  10.557  19.601  0.00  0.00    +0.000 C 
ATOM      5  C   UNL     1       0.738  11.592  20.731  0.00  0.00    +0.000 C 
ATOM      6  C   UNL     1      -0.075  12.871  20.505  0.00  0.00    +0.000 C 
ATOM      7  N   UNL     1      -1.481  12.654  20.112  0.00  0.00    +0.000 NA
ATOM      8  C   UNL     1      -1.531  11.769  18.942  0.00  0.00    +0.000 C 
ATOM      9  C   UNL     1      -0.877  10.408  19.176  0.00  0.00    +0.000 C 
ATOM     10  C   UNL     1       1.106   9.200  20.080  0.00  0.00    +0.000 C 
ATOM     11  O   UNL     1       0.869   8.758  21.198  0.00  0.00    +0.000 OA
ENDROOT
BRANCH   1  15
ATOM     12  C   UNL     1       3.546   4.705  19.118  0.00  0.00    +0.000 A 
ATOM     13  C   UNL     1       3.846   5.584  18.087  0.00  0.00    +0.000 A 
ATOM     14  C   UNL     1       3.287   6.867  18.061  0.00  0.00    +0.000 A 
ATOM     15  C   UNL     1       2.406   7.301  19.060  0.00  0.00    +0.000 A 
ATOM     16  C   UNL     1       2.106   6.394  20.089  0.00  0.00    +0.000 A 
ATOM     17  C   UNL     1       2.662   5.106  20.114  0.00  0.00    +0.000 A 
BRANCH  12  18
ATOM     18  O   UNL     1       4.133   3.475  19.027  0.00  0.00    +0.000 OA
BRANCH  18  20
ATOM     19  C   UNL     1       2.600   2.124  17.813  0.00  0.00    +0.000 C 
ATOM     20  C   UNL     1       3.254   2.361  19.161  0.00  0.00    +0.000 C 
ENDBRANCH  18  20
ENDBRANCH  12  18
ENDBRANCH   1  15
BRANCH   7  21
ATOM     21  C   UNL     1      -2.292  12.162  21.254  0.00  0.00    +0.000 C 
BRANCH  21  22
ATOM     22  C   UNL     1      -3.631  12.852  21.510  0.00  0.00    +0.000 A 
ATOM     23  N   UNL     1      -4.202  13.402  20.398  0.00  0.00    +0.000 NA
ATOM     24  C   UNL     1      -5.411  13.992  20.517  0.00  0.00    +0.000 A 
ATOM     25  C   UNL     1      -6.107  14.067  21.699  0.00  0.00    +0.000 A 
ATOM     26  C   UNL     1      -5.521  13.522  22.835  0.00  0.00    +0.000 A 
ATOM     27  C   UNL     1      -4.255  12.915  22.764  0.00  0.00    +0.000 A 
ATOM     28  C   UNL     1      -3.646  12.370  24.020  0.00  0.00    +0.000 C 
ENDBRANCH  21  22
ENDBRANCH   7  21
TORSDOF 5
ENDMDL
MODEL 9
REMARK VINA RESULT:      -7.1      2.769      4.367
REMARK  Name = 
REMARK  7 active torsions:
REMARK  status: ('A' for Active; 'I' for Inactive)
REMARK    1  A    between atoms: C_1  and  C_2
REMARK    2  A    between atoms: C_2  and  O_3
REMARK    3  A    between atoms: O_3  and  C_4
REMARK    4  A    between atoms: C_7  and  N_8
REMARK    5  A    between atoms: N_14  and  C_15
REMARK    6  A    between atoms: C_15  and  C_16
REMARK    7  A    between atoms: C_21  and  C_22
REMARK                            x       y       z     vdW  Elec       q    Type
REMARK                         _______ _______ _______ _____ _____    ______ ____
ROOT
ATOM      1  N   UNL     1       1.831   8.177  19.396  0.00  0.00    +0.000 N 
ATOM      2  C   UNL     1       1.429   8.285  20.776  0.00  0.00    +0.000 C 
ATOM      3  C   UNL     1       0.211   9.194  20.748  0.00  0.00    +0.000 C 
ATOM      4  C   UNL     1       0.471  10.122  19.556  0.00  0.00    +0.000 C 
ATOM      5  C   UNL     1      -0.814  10.562  18.830  0.00  0.00    +0.000 C 
ATOM      6  C   UNL     1      -1.526  11.744  19.496  0.00  0.00    +0.000 C 
ATOM      7  N   UNL     1      -0.652  12.882  19.843  0.00  0.00    +0.000 NA
ATOM      8  C   UNL     1       0.475  12.404  20.652  0.00  0.00    +0.000 C 
ATOM      9  C   UNL     1       1.321  11.338  19.957  0.00  0.00    +0.000 C 
ATOM     10  C   UNL     1       1.297   9.226  18.635  0.00  0.00    +0.000 C 
ATOM     11  O   UNL     1       1.452   9.463  17.442  0.00  0.00    +0.000 OA
ENDROOT
BRANCH   1  15
ATOM     12  C   UNL     1       4.443   5.125  17.975  0.00  0.00    +0.000 A 
ATOM     13  C   UNL     1       4.338   6.332  17.297  0.00  0.00    +0.000 A 
ATOM     14  C   UNL     1       3.487   7.339  17.766  0.00  0.00    +0.000 A 
ATOM     15  C   UNL     1       2.711   7.163  18.919  0.00  0.00    +0.000 A 
ATOM     16  C   UNL     1       2.823   5.932  19.584  0.00  0.00    +0.000 A 
ATOM     17  C   UNL     1       3.672   4.919  19.114  0.00  0.00    +0.000 A 
BRANCH  12  18
ATOM     18  O   UNL     1       5.289   4.212  17.413  0.00  0.00    +0.000 OA
BRANCH  18  20
ATOM     19  C   UNL     1       7.604   4.649  17.730  0.00  0.00    +0.000 C 
ATOM     20  C   UNL     1       6.438   4.753  16.765  0.00  0.00    +0.000 C 
ENDBRANCH  18  20
ENDBRANCH  12  18
ENDBRANCH   1  15
BRANCH   7  21
ATOM     21  C   UNL     1      -0.229  13.627  18.631  0.00  0.00    +0.000 C 
BRANCH  21  22
ATOM     22  C   UNL     1       0.675  14.842  18.836  0.00  0.00    +0.000 A 
ATOM     23  N   UNL     1       1.978  14.639  18.484  0.00  0.00    +0.000 NA
ATOM     24  C   UNL     1       2.844  15.671  18.585  0.00  0.00    +0.000 A 
ATOM     25  C   UNL     1       2.484  16.923  19.020  0.00  0.00    +0.000 A 
ATOM     26  C   UNL     1       1.162  17.128  19.394  0.00  0.00    +0.000 A 
ATOM     27  C   UNL     1       0.229  16.079  19.325  0.00  0.00    +0.000 A 
ATOM     28  C   UNL     1      -1.179  16.335  19.769  0.00  0.00    +0.000 C 
ENDBRANCH  21  22
ENDBRANCH   7  21
TORSDOF 5
ENDMDL
