MODEL 1
REMARK VINA RESULT:      -7.3      0.000      0.000
REMARK  Name = 
REMARK  9 active torsions:
REMARK  status: ('A' for Active; 'I' for Inactive)
REMARK    1  A    between atoms: C_1  and  C_2
REMARK    2  A    between atoms: C_2  and  O_3
REMARK    3  A    between atoms: O_3  and  C_4
REMARK    4  A    between atoms: C_4  and  C_5
REMARK    5  A    between atoms: C_4  and  N_6
REMARK    6  A    between atoms: C_7  and  C_8
REMARK    7  A    between atoms: C_8  and  C_9
REMARK    8  A    between atoms: C_15  and  C_16
REMARK    9  A    between atoms: C_16  and  C_17
REMARK                            x       y       z     vdW  Elec       q    Type
REMARK                         _______ _______ _______ _____ _____    ______ ____
ROOT
ATOM      1  N   UNL     1       3.659   4.122  18.941  0.00  0.00    +0.000 N 
ATOM      2  C   UNL     1       3.825   5.320  18.200  0.00  0.00    +0.000 A 
ATOM      3  C   UNL     1       5.060   5.674  17.764  0.00  0.00    +0.000 A 
ATOM      4  C   UNL     1       6.212   4.785  18.059  0.00  0.00    +0.000 A 
ATOM      5  O   UNL     1       7.332   4.987  17.596  0.00  0.00    +0.000 OA
ATOM      6  N   UNL     1       5.961   3.706  18.842  0.00  0.00    +0.000 N 
ATOM      7  C   UNL     1       4.731   3.273  19.221  0.00  0.00    +0.000 A 
ATOM      8  O   UNL     1       4.632   2.169  19.762  0.00  0.00    +0.000 OA
ATOM      9  H   UNL     1       6.729   3.081  19.008  0.00  0.00    +0.000 HD
ENDROOT
BRANCH   1  10
ATOM     10  C   UNL     1       2.363   3.630  19.432  0.00  0.00    +0.000 C 
ATOM     11  C   UNL     1       1.322   3.528  18.310  0.00  0.00    +0.000 C 
BRANCH  10  12
ATOM     12  O   UNL     1       1.957   4.419  20.544  0.00  0.00    +0.000 OA
BRANCH  12  14
ATOM     13  C   UNL     1       1.639   2.405  21.805  0.00  0.00    +0.000 C 
ATOM     14  C   UNL     1       2.191   3.821  21.815  0.00  0.00    +0.000 C 
ENDBRANCH  12  14
ENDBRANCH  10  12
ENDBRANCH   1  10
BRANCH   3  15
ATOM     15  C   UNL     1       5.416   6.939  17.013  0.00  0.00    +0.000 C 
ATOM     16  C   UNL     1       5.213   6.837  15.507  0.00  0.00    +0.000 C 
ENDBRANCH   3  15
BRANCH   2  17
ATOM     17  C   UNL     1       2.607   6.142  17.756  0.00  0.00    +0.000 C 
BRANCH  17  18
ATOM     18  C   UNL     1       2.205   7.404  18.495  0.00  0.00    +0.000 A 
ATOM     19  C   UNL     1       1.980   7.471  19.873  0.00  0.00    +0.000 A 
ATOM     20  C   UNL     1       1.424   8.622  20.443  0.00  0.00    +0.000 A 
ATOM     21  C   UNL     1       1.102   9.723  19.649  0.00  0.00    +0.000 A 
ATOM     22  C   UNL     1       1.388   9.699  18.288  0.00  0.00    +0.000 A 
ATOM     23  C   UNL     1       1.945   8.554  17.720  0.00  0.00    +0.000 A 
ENDBRANCH  17  18
ENDBRANCH   2  17
TORSDOF 6
ENDMDL
MODEL 2
REMARK VINA RESULT:      -7.3      1.247      4.189
REMARK  Name = 
REMARK  9 active torsions:
REMARK  status: ('A' for Active; 'I' for Inactive)
REMARK    1  A    between atoms: C_1  and  C_2
REMARK    2  A    between atoms: C_2  and  O_3
REMARK    3  A    between atoms: O_3  and  C_4
REMARK    4  A    between atoms: C_4  and  C_5
REMARK    5  A    between atoms: C_4  and  N_6
REMARK    6  A    between atoms: C_7  and  C_8
REMARK    7  A    between atoms: C_8  and  C_9
REMARK    8  A    between atoms: C_15  and  C_16
REMARK    9  A    between atoms: C_16  and  C_17
REMARK                            x       y       z     vdW  Elec       q    Type
REMARK                         _______ _______ _______ _____ _____    ______ ____
ROOT
ATOM      1  N   UNL     1       4.811   5.076  18.023  0.00  0.00    +0.000 N 
ATOM      2  C   UNL     1       3.436   4.927  18.339  0.00  0.00    +0.000 A 
ATOM      3  C   UNL     1       3.047   3.961  19.207  0.00  0.00    +0.000 A 
ATOM      4  C   UNL     1       4.078   3.087  19.823  0.00  0.00    +0.000 A 
ATOM      5  O   UNL     1       3.807   2.271  20.701  0.00  0.00    +0.000 OA
ATOM      6  N   UNL     1       5.353   3.256  19.394  0.00  0.00    +0.000 N 
ATOM      7  C   UNL     1       5.792   4.267  18.598  0.00  0.00    +0.000 A 
ATOM      8  O   UNL     1       7.007   4.418  18.449  0.00  0.00    +0.000 OA
ATOM      9  H   UNL     1       6.058   2.696  19.839  0.00  0.00    +0.000 HD
ENDROOT
BRANCH   1  10
ATOM     10  C   UNL     1       5.342   6.109  17.121  0.00  0.00    +0.000 C 
ATOM     11  C   UNL     1       5.949   5.507  15.848  0.00  0.00    +0.000 C 
BRANCH  10  12
ATOM     12  O   UNL     1       6.221   6.957  17.851  0.00  0.00    +0.000 OA
BRANCH  12  14
ATOM     13  C   UNL     1       8.041   8.517  17.876  0.00  0.00    +0.000 C 
ATOM     14  C   UNL     1       7.385   7.362  17.139  0.00  0.00    +0.000 C 
ENDBRANCH  12  14
ENDBRANCH  10  12
ENDBRANCH   1  10
BRANCH   3  15
ATOM     15  C   UNL     1       1.625   3.636  19.607  0.00  0.00    +0.000 C 
ATOM     16  C   UNL     1       0.969   2.574  18.735  0.00  0.00    +0.000 C 
ENDBRANCH   3  15
BRANCH   2  17
ATOM     17  C   UNL     1       2.402   5.942  17.830  0.00  0.00    +0.000 C 
BRANCH  17  18
ATOM     18  C   UNL     1       2.121   7.220  18.596  0.00  0.00    +0.000 A 
ATOM     19  C   UNL     1       1.937   7.284  19.980  0.00  0.00    +0.000 A 
ATOM     20  C   UNL     1       1.489   8.467  20.579  0.00  0.00    +0.000 A 
ATOM     21  C   UNL     1       1.235   9.602  19.808  0.00  0.00    +0.000 A 
ATOM     22  C   UNL     1       1.483   9.575  18.440  0.00  0.00    +0.000 A 
ATOM     23  C   UNL     1       1.933   8.398  17.842  0.00  0.00    +0.000 A 
ENDBRANCH  17  18
ENDBRANCH   2  17
TORSDOF 6
ENDMDL
MODEL 3
REMARK VINA RESULT:      -7.3      1.564      4.445
REMARK  Name = 
REMARK  9 active torsions:
REMARK  status: ('A' for Active; 'I' for Inactive)
REMARK    1  A    between atoms: C_1  and  C_2
REMARK    2  A    between atoms: C_2  and  O_3
REMARK    3  A    between atoms: O_3  and  C_4
REMARK    4  A    between atoms: C_4  and  C_5
REMARK    5  A    between atoms: C_4  and  N_6
REMARK    6  A    between atoms: C_7  and  C_8
REMARK    7  A    between atoms: C_8  and  C_9
REMARK    8  A    between atoms: C_15  and  C_16
REMARK    9  A    between atoms: C_16  and  C_17
REMARK                            x       y       z     vdW  Elec       q    Type
REMARK                         _______ _______ _______ _____ _____    ______ ____
ROOT
ATOM      1  N   UNL     1       4.015   5.059  17.840  0.00  0.00    +0.000 N 
ATOM      2  C   UNL     1       3.011   5.133  18.839  0.00  0.00    +0.000 A 
ATOM      3  C   UNL     1       2.191   4.074  19.048  0.00  0.00    +0.000 A 
ATOM      4  C   UNL     1       2.376   2.846  18.232  0.00  0.00    +0.000 A 
ATOM      5  O   UNL     1       1.746   1.814  18.447  0.00  0.00    +0.000 OA
ATOM      6  N   UNL     1       3.309   2.906  17.249  0.00  0.00    +0.000 N 
ATOM      7  C   UNL     1       4.205   3.911  17.069  0.00  0.00    +0.000 A 
ATOM      8  O   UNL     1       5.127   3.747  16.266  0.00  0.00    +0.000 OA
ATOM      9  H   UNL     1       3.466   2.065  16.724  0.00  0.00    +0.000 HD
ENDROOT
BRANCH   1  10
ATOM     10  C   UNL     1       4.975   6.136  17.555  0.00  0.00    +0.000 C 
ATOM     11  C   UNL     1       4.982   6.525  16.071  0.00  0.00    +0.000 C 
BRANCH  10  12
ATOM     12  O   UNL     1       6.248   5.775  18.077  0.00  0.00    +0.000 OA
BRANCH  12  14
ATOM     13  C   UNL     1       7.935   7.478  18.114  0.00  0.00    +0.000 C 
ATOM     14  C   UNL     1       7.358   6.297  17.353  0.00  0.00    +0.000 C 
ENDBRANCH  12  14
ENDBRANCH  10  12
ENDBRANCH   1  10
BRANCH   3  15
ATOM     15  C   UNL     1       1.042   4.009  20.030  0.00  0.00    +0.000 C 
ATOM     16  C   UNL     1       1.403   3.350  21.355  0.00  0.00    +0.000 C 
ENDBRANCH   3  15
BRANCH   2  17
ATOM     17  C   UNL     1       2.939   6.338  19.789  0.00  0.00    +0.000 C 
BRANCH  17  18
ATOM     18  C   UNL     1       2.129   7.568  19.429  0.00  0.00    +0.000 A 
ATOM     19  C   UNL     1       2.105   8.150  18.158  0.00  0.00    +0.000 A 
ATOM     20  C   UNL     1       1.489   9.392  17.962  0.00  0.00    +0.000 A 
ATOM     21  C   UNL     1       0.878  10.057  19.024  0.00  0.00    +0.000 A 
ATOM     22  C   UNL     1       0.830   9.457  20.278  0.00  0.00    +0.000 A 
ATOM     23  C   UNL     1       1.440   8.219  20.474  0.00  0.00    +0.000 A 
ENDBRANCH  17  18
ENDBRANCH   2  17
TORSDOF 6
ENDMDL
MODEL 4
REMARK VINA RESULT:      -7.2      0.752      1.403
REMARK  Name = 
REMARK  9 active torsions:
REMARK  status: ('A' for Active; 'I' for Inactive)
REMARK    1  A    between atoms: C_1  and  C_2
REMARK    2  A    between atoms: C_2  and  O_3
REMARK    3  A    between atoms: O_3  and  C_4
REMARK    4  A    between atoms: C_4  and  C_5
REMARK    5  A    between atoms: C_4  and  N_6
REMARK    6  A    between atoms: C_7  and  C_8
REMARK    7  A    between atoms: C_8  and  C_9
REMARK    8  A    between atoms: C_15  and  C_16
REMARK    9  A    between atoms: C_16  and  C_17
REMARK                            x       y       z     vdW  Elec       q    Type
REMARK                         _______ _______ _______ _____ _____    ______ ____
ROOT
ATOM      1  N   UNL     1       3.777   4.184  19.309  0.00  0.00    +0.000 N 
ATOM      2  C   UNL     1       3.826   5.307  18.444  0.00  0.00    +0.000 A 
ATOM      3  C   UNL     1       4.999   5.655  17.860  0.00  0.00    +0.000 A 
ATOM      4  C   UNL     1       6.210   4.837  18.128  0.00  0.00    +0.000 A 
ATOM      5  O   UNL     1       7.273   5.028  17.544  0.00  0.00    +0.000 OA
ATOM      6  N   UNL     1       6.076   3.834  19.032  0.00  0.00    +0.000 N 
ATOM      7  C   UNL     1       4.904   3.402  19.566  0.00  0.00    +0.000 A 
ATOM      8  O   UNL     1       4.901   2.354  20.218  0.00  0.00    +0.000 OA
ATOM      9  H   UNL     1       6.881   3.253  19.184  0.00  0.00    +0.000 HD
ENDROOT
BRANCH   1  10
ATOM     10  C   UNL     1       2.553   3.702  19.966  0.00  0.00    +0.000 C 
ATOM     11  C   UNL     1       2.461   4.165  21.425  0.00  0.00    +0.000 C 
BRANCH  10  12
ATOM     12  O   UNL     1       2.450   2.296  19.784  0.00  0.00    +0.000 OA
BRANCH  12  14
ATOM     13  C   UNL     1       0.416   2.898  18.666  0.00  0.00    +0.000 C 
ATOM     14  C   UNL     1       1.552   1.893  18.755  0.00  0.00    +0.000 C 
ENDBRANCH  12  14
ENDBRANCH  10  12
ENDBRANCH   1  10
BRANCH   3  15
ATOM     15  C   UNL     1       5.233   6.849  16.961  0.00  0.00    +0.000 C 
ATOM     16  C   UNL     1       5.119   6.531  15.475  0.00  0.00    +0.000 C 
ENDBRANCH   3  15
BRANCH   2  17
ATOM     17  C   UNL     1       2.539   6.041  18.040  0.00  0.00    +0.000 C 
BRANCH  17  18
ATOM     18  C   UNL     1       2.148   7.349  18.700  0.00  0.00    +0.000 A 
ATOM     19  C   UNL     1       1.873   7.492  20.062  0.00  0.00    +0.000 A 
ATOM     20  C   UNL     1       1.330   8.687  20.552  0.00  0.00    +0.000 A 
ATOM     21  C   UNL     1       1.072   9.754  19.693  0.00  0.00    +0.000 A 
ATOM     22  C   UNL     1       1.409   9.653  18.347  0.00  0.00    +0.000 A 
ATOM     23  C   UNL     1       1.952   8.465  17.859  0.00  0.00    +0.000 A 
ENDBRANCH  17  18
ENDBRANCH   2  17
TORSDOF 6
ENDMDL
MODEL 5
REMARK VINA RESULT:      -7.2      1.537      4.372
REMARK  Name = 
REMARK  9 active torsions:
REMARK  status: ('A' for Active; 'I' for Inactive)
REMARK    1  A    between atoms: C_1  and  C_2
REMARK    2  A    between atoms: C_2  and  O_3
REMARK    3  A    between atoms: O_3  and  C_4
REMARK    4  A    between atoms: C_4  and  C_5
REMARK    5  A    between atoms: C_4  and  N_6
REMARK    6  A    between atoms: C_7  and  C_8
REMARK    7  A    between atoms: C_8  and  C_9
REMARK    8  A    between atoms: C_15  and  C_16
REMARK    9  A    between atoms: C_16  and  C_17
REMARK                            x       y       z     vdW  Elec       q    Type
REMARK                         _______ _______ _______ _____ _____    ______ ____
ROOT
ATOM      1  N   UNL     1       4.837   4.897  17.457  0.00  0.00    +0.000 N 
ATOM      2  C   UNL     1       3.984   4.901  18.590  0.00  0.00    +0.000 A 
ATOM      3  C   UNL     1       3.388   3.749  18.986  0.00  0.00    +0.000 A 
ATOM      4  C   UNL     1       3.657   2.500  18.229  0.00  0.00    +0.000 A 
ATOM      5  O   UNL     1       3.242   1.405  18.601  0.00  0.00    +0.000 OA
ATOM      6  N   UNL     1       4.421   2.618  17.114  0.00  0.00    +0.000 N 
ATOM      7  C   UNL     1       5.105   3.731  16.739  0.00  0.00    +0.000 A 
ATOM      8  O   UNL     1       5.919   3.642  15.816  0.00  0.00    +0.000 OA
ATOM      9  H   UNL     1       4.639   1.770  16.624  0.00  0.00    +0.000 HD
ENDROOT
BRANCH   1  10
ATOM     10  C   UNL     1       5.557   6.081  16.963  0.00  0.00    +0.000 C 
ATOM     11  C   UNL     1       5.115   6.477  15.549  0.00  0.00    +0.000 C 
BRANCH  10  12
ATOM     12  O   UNL     1       6.956   5.868  17.107  0.00  0.00    +0.000 OA
BRANCH  12  14
ATOM     13  C   UNL     1       7.795   8.043  17.667  0.00  0.00    +0.000 C 
ATOM     14  C   UNL     1       7.568   6.621  18.150  0.00  0.00    +0.000 C 
ENDBRANCH  12  14
ENDBRANCH  10  12
ENDBRANCH   1  10
BRANCH   3  15
ATOM     15  C   UNL     1       2.414   3.593  20.133  0.00  0.00    +0.000 C 
ATOM     16  C   UNL     1       0.958   3.790  19.734  0.00  0.00    +0.000 C 
ENDBRANCH   3  15
BRANCH   2  17
ATOM     17  C   UNL     1       3.848   6.157  19.464  0.00  0.00    +0.000 C 
BRANCH  17  18
ATOM     18  C   UNL     1       2.792   7.203  19.166  0.00  0.00    +0.000 A 
ATOM     19  C   UNL     1       2.648   7.848  17.935  0.00  0.00    +0.000 A 
ATOM     20  C   UNL     1       1.777   8.937  17.805  0.00  0.00    +0.000 A 
ATOM     21  C   UNL     1       1.031   9.383  18.896  0.00  0.00    +0.000 A 
ATOM     22  C   UNL     1       1.108   8.705  20.108  0.00  0.00    +0.000 A 
ATOM     23  C   UNL     1       1.972   7.618  20.237  0.00  0.00    +0.000 A 
ENDBRANCH  17  18
ENDBRANCH   2  17
TORSDOF 6
ENDMDL
MODEL 6
REMARK VINA RESULT:      -7.1      1.611      4.390
REMARK  Name = 
REMARK  9 active torsions:
REMARK  status: ('A' for Active; 'I' for Inactive)
REMARK    1  A    between atoms: C_1  and  C_2
REMARK    2  A    between atoms: C_2  and  O_3
REMARK    3  A    between atoms: O_3  and  C_4
REMARK    4  A    between atoms: C_4  and  C_5
REMARK    5  A    between atoms: C_4  and  N_6
REMARK    6  A    between atoms: C_7  and  C_8
REMARK    7  A    between atoms: C_8  and  C_9
REMARK    8  A    between atoms: C_15  and  C_16
REMARK    9  A    between atoms: C_16  and  C_17
REMARK                            x       y       z     vdW  Elec       q    Type
REMARK                         _______ _______ _______ _____ _____    ______ ____
ROOT
ATOM      1  N   UNL     1       3.928   5.204  17.767  0.00  0.00    +0.000 N 
ATOM      2  C   UNL     1       2.976   5.253  18.817  0.00  0.00    +0.000 A 
ATOM      3  C   UNL     1       2.127   4.213  19.003  0.00  0.00    +0.000 A 
ATOM      4  C   UNL     1       2.225   3.031  18.108  0.00  0.00    +0.000 A 
ATOM      5  O   UNL     1       1.566   2.011  18.293  0.00  0.00    +0.000 OA
ATOM      6  N   UNL     1       3.113   3.117  17.085  0.00  0.00    +0.000 N 
ATOM      7  C   UNL     1       4.037   4.098  16.921  0.00  0.00    +0.000 A 
ATOM      8  O   UNL     1       4.913   3.950  16.065  0.00  0.00    +0.000 OA
ATOM      9  H   UNL     1       3.211   2.304  16.504  0.00  0.00    +0.000 HD
ENDROOT
BRANCH   1  10
ATOM     10  C   UNL     1       4.915   6.261  17.498  0.00  0.00    +0.000 C 
ATOM     11  C   UNL     1       4.931   6.674  16.022  0.00  0.00    +0.000 C 
BRANCH  10  12
ATOM     12  O   UNL     1       6.178   5.859  18.014  0.00  0.00    +0.000 OA
BRANCH  12  14
ATOM     13  C   UNL     1       7.834   7.592  17.935  0.00  0.00    +0.000 C 
ATOM     14  C   UNL     1       7.300   6.332  17.275  0.00  0.00    +0.000 C 
ENDBRANCH  12  14
ENDBRANCH  10  12
ENDBRANCH   1  10
BRANCH   3  15
ATOM     15  C   UNL     1       1.023   4.130  20.035  0.00  0.00    +0.000 C 
ATOM     16  C   UNL     1       1.424   3.391  21.305  0.00  0.00    +0.000 C 
ENDBRANCH   3  15
BRANCH   2  17
ATOM     17  C   UNL     1       2.996   6.399  19.838  0.00  0.00    +0.000 C 
BRANCH  17  18
ATOM     18  C   UNL     1       2.200   7.668  19.602  0.00  0.00    +0.000 A 
ATOM     19  C   UNL     1       1.426   8.305  20.577  0.00  0.00    +0.000 A 
ATOM     20  C   UNL     1       0.571   9.355  20.225  0.00  0.00    +0.000 A 
ATOM     21  C   UNL     1       0.491   9.793  18.903  0.00  0.00    +0.000 A 
ATOM     22  C   UNL     1       1.308   9.219  17.935  0.00  0.00    +0.000 A 
ATOM     23  C   UNL     1       2.163   8.174  18.285  0.00  0.00    +0.000 A 
ENDBRANCH  17  18
ENDBRANCH   2  17
TORSDOF 6
ENDMDL
MODEL 7
REMARK VINA RESULT:      -6.9      1.277      4.085
REMARK  Name = 
REMARK  9 active torsions:
REMARK  status: ('A' for Active; 'I' for Inactive)
REMARK    1  A    between atoms: C_1  and  C_2
REMARK    2  A    between atoms: C_2  and  O_3
REMARK    3  A    between atoms: O_3  and  C_4
REMARK    4  A    between atoms: C_4  and  C_5
REMARK    5  A    between atoms: C_4  and  N_6
REMARK    6  A    between atoms: C_7  and  C_8
REMARK    7  A    between atoms: C_8  and  C_9
REMARK    8  A    between atoms: C_15  and  C_16
REMARK    9  A    between atoms: C_16  and  C_17
REMARK                            x       y       z     vdW  Elec       q    Type
REMARK                         _______ _______ _______ _____ _____    ______ ____
ROOT
ATOM      1  N   UNL     1       4.976   5.045  17.958  0.00  0.00    +0.000 N 
ATOM      2  C   UNL     1       3.589   4.973  18.247  0.00  0.00    +0.000 A 
ATOM      3  C   UNL     1       3.134   4.055  19.135  0.00  0.00    +0.000 A 
ATOM      4  C   UNL     1       4.107   3.151  19.801  0.00  0.00    +0.000 A 
ATOM      5  O   UNL     1       3.777   2.378  20.697  0.00  0.00    +0.000 OA
ATOM      6  N   UNL     1       5.398   3.245  19.396  0.00  0.00    +0.000 N 
ATOM      7  C   UNL     1       5.903   4.207  18.580  0.00  0.00    +0.000 A 
ATOM      8  O   UNL     1       7.127   4.294  18.453  0.00  0.00    +0.000 OA
ATOM      9  H   UNL     1       6.065   2.665  19.873  0.00  0.00    +0.000 HD
ENDROOT
BRANCH   1  10
ATOM     10  C   UNL     1       5.576   6.022  17.037  0.00  0.00    +0.000 C 
ATOM     11  C   UNL     1       5.452   7.459  17.560  0.00  0.00    +0.000 C 
BRANCH  10  12
ATOM     12  O   UNL     1       5.047   5.819  15.733  0.00  0.00    +0.000 OA
BRANCH  12  14
ATOM     13  C   UNL     1       5.980   3.811  14.814  0.00  0.00    +0.000 C 
ATOM     14  C   UNL     1       5.984   5.330  14.780  0.00  0.00    +0.000 C 
ENDBRANCH  12  14
ENDBRANCH  10  12
ENDBRANCH   1  10
BRANCH   3  15
ATOM     15  C   UNL     1       1.689   3.812  19.512  0.00  0.00    +0.000 C 
ATOM     16  C   UNL     1       1.001   2.753  18.661  0.00  0.00    +0.000 C 
ENDBRANCH   3  15
BRANCH   2  17
ATOM     17  C   UNL     1       2.617   6.020  17.684  0.00  0.00    +0.000 C 
BRANCH  17  18
ATOM     18  C   UNL     1       2.226   7.239  18.498  0.00  0.00    +0.000 A 
ATOM     19  C   UNL     1       2.082   7.244  19.888  0.00  0.00    +0.000 A 
ATOM     20  C   UNL     1       1.530   8.354  20.537  0.00  0.00    +0.000 A 
ATOM     21  C   UNL     1       1.130   9.476  19.810  0.00  0.00    +0.000 A 
ATOM     22  C   UNL     1       1.334   9.515  18.435  0.00  0.00    +0.000 A 
ATOM     23  C   UNL     1       1.887   8.410  17.787  0.00  0.00    +0.000 A 
ENDBRANCH  17  18
ENDBRANCH   2  17
TORSDOF 6
ENDMDL
MODEL 8
REMARK VINA RESULT:      -6.8      0.207      1.047
REMARK  Name = 
REMARK  9 active torsions:
REMARK  status: ('A' for Active; 'I' for Inactive)
REMARK    1  A    between atoms: C_1  and  C_2
REMARK    2  A    between atoms: C_2  and  O_3
REMARK    3  A    between atoms: O_3  and  C_4
REMARK    4  A    between atoms: C_4  and  C_5
REMARK    5  A    between atoms: C_4  and  N_6
REMARK    6  A    between atoms: C_7  and  C_8
REMARK    7  A    between atoms: C_8  and  C_9
REMARK    8  A    between atoms: C_15  and  C_16
REMARK    9  A    between atoms: C_16  and  C_17
REMARK                            x       y       z     vdW  Elec       q    Type
REMARK                         _______ _______ _______ _____ _____    ______ ____
ROOT
ATOM      1  N   UNL     1       3.665   4.044  18.971  0.00  0.00    +0.000 N 
ATOM      2  C   UNL     1       3.774   5.236  18.209  0.00  0.00    +0.000 A 
ATOM      3  C   UNL     1       4.997   5.670  17.815  0.00  0.00    +0.000 A 
ATOM      4  C   UNL     1       6.198   4.875  18.175  0.00  0.00    +0.000 A 
ATOM      5  O   UNL     1       7.318   5.149  17.753  0.00  0.00    +0.000 OA
ATOM      6  N   UNL     1       5.994   3.796  18.973  0.00  0.00    +0.000 N 
ATOM      7  C   UNL     1       4.783   3.282  19.313  0.00  0.00    +0.000 A 
ATOM      8  O   UNL     1       4.742   2.184  19.875  0.00  0.00    +0.000 OA
ATOM      9  H   UNL     1       6.797   3.232  19.184  0.00  0.00    +0.000 HD
ENDROOT
BRANCH   1  10
ATOM     10  C   UNL     1       2.389   3.468  19.422  0.00  0.00    +0.000 C 
ATOM     11  C   UNL     1       1.403   3.273  18.263  0.00  0.00    +0.000 C 
BRANCH  10  12
ATOM     12  O   UNL     1       1.885   4.243  20.502  0.00  0.00    +0.000 OA
BRANCH  12  14
ATOM     13  C   UNL     1       1.466   2.355  21.919  0.00  0.00    +0.000 C 
ATOM     14  C   UNL     1       2.150   3.706  21.794  0.00  0.00    +0.000 C 
ENDBRANCH  12  14
ENDBRANCH  10  12
ENDBRANCH   1  10
BRANCH   3  15
ATOM     15  C   UNL     1       5.291   6.942  17.049  0.00  0.00    +0.000 C 
ATOM     16  C   UNL     1       5.188   6.787  15.537  0.00  0.00    +0.000 C 
ENDBRANCH   3  15
BRANCH   2  17
ATOM     17  C   UNL     1       2.519   5.956  17.698  0.00  0.00    +0.000 C 
BRANCH  17  18
ATOM     18  C   UNL     1       2.028   7.231  18.357  0.00  0.00    +0.000 A 
ATOM     19  C   UNL     1       1.806   8.432  17.679  0.00  0.00    +0.000 A 
ATOM     20  C   UNL     1       1.544   9.608  18.391  0.00  0.00    +0.000 A 
ATOM     21  C   UNL     1       1.484   9.595  19.785  0.00  0.00    +0.000 A 
ATOM     22  C   UNL     1       1.630   8.394  20.471  0.00  0.00    +0.000 A 
ATOM     23  C   UNL     1       1.888   7.222  19.761  0.00  0.00    +0.000 A 
ENDBRANCH  17  18
ENDBRANCH   2  17
TORSDOF 6
ENDMDL
MODEL 9
REMARK VINA RESULT:      -6.7      2.072      4.680
REMARK  Name = 
REMARK  9 active torsions:
REMARK  status: ('A' for Active; 'I' for Inactive)
REMARK    1  A    between atoms: C_1  and  C_2
REMARK    2  A    between atoms: C_2  and  O_3
REMARK    3  A    between atoms: O_3  and  C_4
REMARK    4  A    between atoms: C_4  and  C_5
REMARK    5  A    between atoms: C_4  and  N_6
REMARK    6  A    between atoms: C_7  and  C_8
REMARK    7  A    between atoms: C_8  and  C_9
REMARK    8  A    between atoms: C_15  and  C_16
REMARK    9  A    between atoms: C_16  and  C_17
REMARK                            x       y       z     vdW  Elec       q    Type
REMARK                         _______ _______ _______ _____ _____    ______ ____
ROOT
ATOM      1  N   UNL     1       2.083   4.415  19.361  0.00  0.00    +0.000 N 
ATOM      2  C   UNL     1       2.537   5.447  18.501  0.00  0.00    +0.000 A 
ATOM      3  C   UNL     1       2.480   6.738  18.912  0.00  0.00    +0.000 A 
ATOM      4  C   UNL     1       1.957   7.041  20.269  0.00  0.00    +0.000 A 
ATOM      5  O   UNL     1       1.986   8.173  20.746  0.00  0.00    +0.000 OA
ATOM      6  N   UNL     1       1.473   5.992  20.981  0.00  0.00    +0.000 N 
ATOM      7  C   UNL     1       1.594   4.682  20.641  0.00  0.00    +0.000 A 
ATOM      8  O   UNL     1       1.289   3.824  21.472  0.00  0.00    +0.000 OA
ATOM      9  H   UNL     1       1.158   6.187  21.914  0.00  0.00    +0.000 HD
ENDROOT
BRANCH   1  10
ATOM     10  C   UNL     1       2.130   2.983  19.027  0.00  0.00    +0.000 C 
ATOM     11  C   UNL     1       0.730   2.396  18.807  0.00  0.00    +0.000 C 
BRANCH  10  12
ATOM     12  O   UNL     1       2.910   2.303  20.003  0.00  0.00    +0.000 OA
BRANCH  12  14
ATOM     13  C   UNL     1       4.115   1.260  18.212  0.00  0.00    +0.000 C 
ATOM     14  C   UNL     1       4.215   1.934  19.570  0.00  0.00    +0.000 C 
ENDBRANCH  12  14
ENDBRANCH  10  12
ENDBRANCH   1  10
BRANCH   3  15
ATOM     15  C   UNL     1       2.871   7.954  18.102  0.00  0.00    +0.000 C 
ATOM     16  C   UNL     1       1.687   8.804  17.660  0.00  0.00    +0.000 C 
ENDBRANCH   3  15
BRANCH   2  17
ATOM     17  C   UNL     1       3.232   5.111  17.173  0.00  0.00    +0.000 C 
BRANCH  17  18
ATOM     18  C   UNL     1       4.717   4.811  17.124  0.00  0.00    +0.000 A 
ATOM     19  C   UNL     1       5.594   4.998  18.196  0.00  0.00    +0.000 A 
ATOM     20  C   UNL     1       6.976   4.884  18.007  0.00  0.00    +0.000 A 
ATOM     21  C   UNL     1       7.497   4.567  16.752  0.00  0.00    +0.000 A 
ATOM     22  C   UNL     1       6.634   4.305  15.693  0.00  0.00    +0.000 A 
ATOM     23  C   UNL     1       5.257   4.416  15.881  0.00  0.00    +0.000 A 
ENDBRANCH  17  18
ENDBRANCH   2  17
TORSDOF 6
ENDMDL
