MODEL 1
REMARK VINA RESULT:      -7.2      0.000      0.000
REMARK  Name = 
REMARK  4 active torsions:
REMARK  status: ('A' for Active; 'I' for Inactive)
REMARK    1  A    between atoms: C_1  and  C_2
REMARK    2  A    between atoms: C_2  and  C_3
REMARK    3  A    between atoms: N_5  and  C_6
REMARK    4  A    between atoms: C_9  and  N_10
REMARK                            x       y       z     vdW  Elec       q    Type
REMARK                         _______ _______ _______ _____ _____    ______ ____
ROOT
ATOM      1  C   UNL     1       2.423   7.449  18.879  0.00  0.00    +0.000 A 
ATOM      2  C   UNL     1       2.241   8.407  17.886  0.00  0.00    +0.000 A 
ATOM      3  C   UNL     1       1.523   9.581  18.138  0.00  0.00    +0.000 A 
ATOM      4  C   UNL     1       0.962   9.847  19.388  0.00  0.00    +0.000 A 
ATOM      5  C   UNL     1       1.150   8.875  20.383  0.00  0.00    +0.000 A 
ATOM      6  C   UNL     1       1.852   7.684  20.132  0.00  0.00    +0.000 A 
ENDROOT
BRANCH   4   7
ATOM      7  N   UNL     1       0.207  10.981  19.634  0.00  0.00    +0.000 N 
ATOM      8  C   UNL     1      -1.210  11.067  19.239  0.00  0.00    +0.000 C 
ATOM      9  C   UNL     1      -1.405  12.010  18.044  0.00  0.00    +0.000 C 
ATOM     10  O   UNL     1      -0.836  13.302  18.302  0.00  0.00    +0.000 OA
ATOM     11  C   UNL     1       0.576  13.178  18.538  0.00  0.00    +0.000 C 
ATOM     12  C   UNL     1       0.881  12.286  19.757  0.00  0.00    +0.000 C 
ENDBRANCH   4   7
BRANCH   1  15
ATOM     13  C   UNL     1       2.605   5.092  18.126  0.00  0.00    +0.000 C 
ATOM     14  O   UNL     1       1.465   4.927  17.717  0.00  0.00    +0.000 OA
ATOM     15  N   UNL     1       3.137   6.252  18.663  0.00  0.00    +0.000 N 
ATOM     16  H   UNL     1       4.140   6.289  18.803  0.00  0.00    +0.000 HD
BRANCH  13  18
ATOM     17  C   UNL     1       4.342   3.811  16.806  0.00  0.00    +0.000 C 
ATOM     18  C   UNL     1       3.526   3.910  18.078  0.00  0.00    +0.000 C 
ATOM     19  C   UNL     1       4.299   3.642  19.369  0.00  0.00    +0.000 C 
ATOM     20  C   UNL     1       3.251   2.673  18.919  0.00  0.00    +0.000 C 
ATOM     21 CL   UNL     1       1.794   2.553  19.905  0.00  0.00    +0.000 Cl
ATOM     22 CL   UNL     1       3.793   1.090  18.356  0.00  0.00    +0.000 Cl
ENDBRANCH  13  18
ENDBRANCH   1  15
TORSDOF 3
ENDMDL
MODEL 2
REMARK VINA RESULT:      -7.1      0.115      1.048
REMARK  Name = 
REMARK  4 active torsions:
REMARK  status: ('A' for Active; 'I' for Inactive)
REMARK    1  A    between atoms: C_1  and  C_2
REMARK    2  A    between atoms: C_2  and  C_3
REMARK    3  A    between atoms: N_5  and  C_6
REMARK    4  A    between atoms: C_9  and  N_10
REMARK                            x       y       z     vdW  Elec       q    Type
REMARK                         _______ _______ _______ _____ _____    ______ ____
ROOT
ATOM      1  C   UNL     1       2.358   7.399  19.031  0.00  0.00    +0.000 A 
ATOM      2  C   UNL     1       1.815   7.693  20.278  0.00  0.00    +0.000 A 
ATOM      3  C   UNL     1       1.095   8.874  20.493  0.00  0.00    +0.000 A 
ATOM      4  C   UNL     1       0.887   9.804  19.473  0.00  0.00    +0.000 A 
ATOM      5  C   UNL     1       1.438   9.500  18.220  0.00  0.00    +0.000 A 
ATOM      6  C   UNL     1       2.179   8.325  18.001  0.00  0.00    +0.000 A 
ENDROOT
BRANCH   4   7
ATOM      7  N   UNL     1       0.221  11.000  19.687  0.00  0.00    +0.000 N 
ATOM      8  C   UNL     1      -1.188  11.180  19.294  0.00  0.00    +0.000 C 
ATOM      9  C   UNL     1      -1.319  12.097  18.071  0.00  0.00    +0.000 C 
ATOM     10  O   UNL     1      -0.652  13.350  18.287  0.00  0.00    +0.000 OA
ATOM     11  C   UNL     1       0.748  13.126  18.520  0.00  0.00    +0.000 C 
ATOM     12  C   UNL     1       0.992  12.253  19.766  0.00  0.00    +0.000 C 
ENDBRANCH   4   7
BRANCH   1  15
ATOM     13  C   UNL     1       2.583   5.079  18.181  0.00  0.00    +0.000 C 
ATOM     14  O   UNL     1       1.453   4.919  17.743  0.00  0.00    +0.000 OA
ATOM     15  N   UNL     1       3.091   6.221  18.777  0.00  0.00    +0.000 N 
ATOM     16  H   UNL     1       4.090   6.264  18.938  0.00  0.00    +0.000 HD
BRANCH  13  18
ATOM     17  C   UNL     1       4.322   3.846  16.816  0.00  0.00    +0.000 C 
ATOM     18  C   UNL     1       3.520   3.911  18.100  0.00  0.00    +0.000 C 
ATOM     19  C   UNL     1       4.313   3.631  19.377  0.00  0.00    +0.000 C 
ATOM     20  C   UNL     1       3.273   2.655  18.922  0.00  0.00    +0.000 C 
ATOM     21 CL   UNL     1       1.830   2.498  19.923  0.00  0.00    +0.000 Cl
ATOM     22 CL   UNL     1       3.829   1.091  18.324  0.00  0.00    +0.000 Cl
ENDBRANCH  13  18
ENDBRANCH   1  15
TORSDOF 3
ENDMDL
MODEL 3
REMARK VINA RESULT:      -6.9      0.843      1.692
REMARK  Name = 
REMARK  4 active torsions:
REMARK  status: ('A' for Active; 'I' for Inactive)
REMARK    1  A    between atoms: C_1  and  C_2
REMARK    2  A    between atoms: C_2  and  C_3
REMARK    3  A    between atoms: N_5  and  C_6
REMARK    4  A    between atoms: C_9  and  N_10
REMARK                            x       y       z     vdW  Elec       q    Type
REMARK                         _______ _______ _______ _____ _____    ______ ____
ROOT
ATOM      1  C   UNL     1       2.402   7.480  18.889  0.00  0.00    +0.000 A 
ATOM      2  C   UNL     1       1.783   7.800  20.094  0.00  0.00    +0.000 A 
ATOM      3  C   UNL     1       1.089   9.006  20.251  0.00  0.00    +0.000 A 
ATOM      4  C   UNL     1       0.985   9.935  19.215  0.00  0.00    +0.000 A 
ATOM      5  C   UNL     1       1.612   9.604  18.005  0.00  0.00    +0.000 A 
ATOM      6  C   UNL     1       2.328   8.404  17.845  0.00  0.00    +0.000 A 
ENDROOT
BRANCH   4   7
ATOM      7  N   UNL     1       0.345  11.153  19.375  0.00  0.00    +0.000 N 
ATOM      8  C   UNL     1       0.247  11.808  20.691  0.00  0.00    +0.000 C 
ATOM      9  C   UNL     1      -1.181  11.742  21.248  0.00  0.00    +0.000 C 
ATOM     10  O   UNL     1      -2.131  12.269  20.309  0.00  0.00    +0.000 OA
ATOM     11  C   UNL     1      -2.097  11.502  19.094  0.00  0.00    +0.000 C 
ATOM     12  C   UNL     1      -0.711  11.546  18.423  0.00  0.00    +0.000 C 
ENDBRANCH   4   7
BRANCH   1  15
ATOM     13  C   UNL     1       2.589   5.125  18.132  0.00  0.00    +0.000 C 
ATOM     14  O   UNL     1       1.464   4.974  17.679  0.00  0.00    +0.000 OA
ATOM     15  N   UNL     1       3.112   6.277  18.694  0.00  0.00    +0.000 N 
ATOM     16  H   UNL     1       4.109   6.303  18.872  0.00  0.00    +0.000 HD
BRANCH  13  18
ATOM     17  C   UNL     1       4.291   3.778  16.830  0.00  0.00    +0.000 C 
ATOM     18  C   UNL     1       3.500   3.934  18.113  0.00  0.00    +0.000 C 
ATOM     19  C   UNL     1       4.295   3.709  19.399  0.00  0.00    +0.000 C 
ATOM     20  C   UNL     1       3.230   2.732  19.006  0.00  0.00    +0.000 C 
ATOM     21 CL   UNL     1       1.791   2.664  20.022  0.00  0.00    +0.000 Cl
ATOM     22 CL   UNL     1       3.748   1.125  18.495  0.00  0.00    +0.000 Cl
ENDBRANCH  13  18
ENDBRANCH   1  15
TORSDOF 3
ENDMDL
MODEL 4
REMARK VINA RESULT:      -6.9      1.935      2.536
REMARK  Name = 
REMARK  4 active torsions:
REMARK  status: ('A' for Active; 'I' for Inactive)
REMARK    1  A    between atoms: C_1  and  C_2
REMARK    2  A    between atoms: C_2  and  C_3
REMARK    3  A    between atoms: N_5  and  C_6
REMARK    4  A    between atoms: C_9  and  N_10
REMARK                            x       y       z     vdW  Elec       q    Type
REMARK                         _______ _______ _______ _____ _____    ______ ____
ROOT
ATOM      1  C   UNL     1       2.396   7.803  18.778  0.00  0.00    +0.000 A 
ATOM      2  C   UNL     1       1.874   7.959  20.059  0.00  0.00    +0.000 A 
ATOM      3  C   UNL     1       0.902   8.928  20.330  0.00  0.00    +0.000 A 
ATOM      4  C   UNL     1       0.411   9.776  19.336  0.00  0.00    +0.000 A 
ATOM      5  C   UNL     1       0.943   9.613  18.049  0.00  0.00    +0.000 A 
ATOM      6  C   UNL     1       1.935   8.655  17.772  0.00  0.00    +0.000 A 
ENDROOT
BRANCH   4   7
ATOM      7  N   UNL     1      -0.513  10.773  19.603  0.00  0.00    +0.000 N 
ATOM      8  C   UNL     1      -1.124  11.569  18.524  0.00  0.00    +0.000 C 
ATOM      9  C   UNL     1      -0.581  13.003  18.505  0.00  0.00    +0.000 C 
ATOM     10  O   UNL     1      -0.723  13.631  19.788  0.00  0.00    +0.000 OA
ATOM     11  C   UNL     1       0.014  12.895  20.778  0.00  0.00    +0.000 C 
ATOM     12  C   UNL     1      -0.492  11.446  20.914  0.00  0.00    +0.000 C 
ENDBRANCH   4   7
BRANCH   1  15
ATOM     13  C   UNL     1       3.121   5.535  18.084  0.00  0.00    +0.000 C 
ATOM     14  O   UNL     1       2.025   5.022  17.909  0.00  0.00    +0.000 OA
ATOM     15  N   UNL     1       3.378   6.840  18.468  0.00  0.00    +0.000 N 
ATOM     16  H   UNL     1       4.335   7.168  18.410  0.00  0.00    +0.000 HD
BRANCH  13  18
ATOM     17  C   UNL     1       4.741   3.904  19.143  0.00  0.00    +0.000 C 
ATOM     18  C   UNL     1       4.324   4.658  17.898  0.00  0.00    +0.000 C 
ATOM     19  C   UNL     1       4.330   3.838  16.608  0.00  0.00    +0.000 C 
ATOM     20  C   UNL     1       5.328   4.938  16.790  0.00  0.00    +0.000 C 
ATOM     21 CL   UNL     1       5.161   6.353  15.752  0.00  0.00    +0.000 Cl
ATOM     22 CL   UNL     1       7.019   4.477  17.001  0.00  0.00    +0.000 Cl
ENDBRANCH  13  18
ENDBRANCH   1  15
TORSDOF 3
ENDMDL
MODEL 5
REMARK VINA RESULT:      -6.9      1.964      2.351
REMARK  Name = 
REMARK  4 active torsions:
REMARK  status: ('A' for Active; 'I' for Inactive)
REMARK    1  A    between atoms: C_1  and  C_2
REMARK    2  A    between atoms: C_2  and  C_3
REMARK    3  A    between atoms: N_5  and  C_6
REMARK    4  A    between atoms: C_9  and  N_10
REMARK                            x       y       z     vdW  Elec       q    Type
REMARK                         _______ _______ _______ _____ _____    ______ ____
ROOT
ATOM      1  C   UNL     1       2.396   7.834  18.757  0.00  0.00    +0.000 A 
ATOM      2  C   UNL     1       1.881   8.696  17.794  0.00  0.00    +0.000 A 
ATOM      3  C   UNL     1       0.907   9.646  18.122  0.00  0.00    +0.000 A 
ATOM      4  C   UNL     1       0.414   9.776  19.421  0.00  0.00    +0.000 A 
ATOM      5  C   UNL     1       0.939   8.902  20.385  0.00  0.00    +0.000 A 
ATOM      6  C   UNL     1       1.902   7.931  20.060  0.00  0.00    +0.000 A 
ENDROOT
BRANCH   4   7
ATOM      7  N   UNL     1      -0.587  10.677  19.747  0.00  0.00    +0.000 N 
ATOM      8  C   UNL     1      -1.254  11.495  18.719  0.00  0.00    +0.000 C 
ATOM      9  C   UNL     1      -0.824  12.965  18.802  0.00  0.00    +0.000 C 
ATOM     10  O   UNL     1      -1.019  13.491  20.124  0.00  0.00    +0.000 OA
ATOM     11  C   UNL     1      -0.231  12.749  21.068  0.00  0.00    +0.000 C 
ATOM     12  C   UNL     1      -0.622  11.259  21.101  0.00  0.00    +0.000 C 
ENDBRANCH   4   7
BRANCH   1  15
ATOM     13  C   UNL     1       3.114   5.563  18.064  0.00  0.00    +0.000 C 
ATOM     14  O   UNL     1       2.017   5.064  17.857  0.00  0.00    +0.000 OA
ATOM     15  N   UNL     1       3.376   6.862  18.464  0.00  0.00    +0.000 N 
ATOM     16  H   UNL     1       4.337   7.180  18.434  0.00  0.00    +0.000 HD
BRANCH  13  18
ATOM     17  C   UNL     1       4.715   3.941  19.165  0.00  0.00    +0.000 C 
ATOM     18  C   UNL     1       4.311   4.674  17.902  0.00  0.00    +0.000 C 
ATOM     19  C   UNL     1       4.318   3.828  16.629  0.00  0.00    +0.000 C 
ATOM     20  C   UNL     1       5.324   4.924  16.796  0.00  0.00    +0.000 C 
ATOM     21 CL   UNL     1       5.173   6.320  15.729  0.00  0.00    +0.000 Cl
ATOM     22 CL   UNL     1       7.010   4.456  17.025  0.00  0.00    +0.000 Cl
ENDBRANCH  13  18
ENDBRANCH   1  15
TORSDOF 3
ENDMDL
MODEL 6
REMARK VINA RESULT:      -6.9      0.986      1.518
REMARK  Name = 
REMARK  4 active torsions:
REMARK  status: ('A' for Active; 'I' for Inactive)
REMARK    1  A    between atoms: C_1  and  C_2
REMARK    2  A    between atoms: C_2  and  C_3
REMARK    3  A    between atoms: N_5  and  C_6
REMARK    4  A    between atoms: C_9  and  N_10
REMARK                            x       y       z     vdW  Elec       q    Type
REMARK                         _______ _______ _______ _____ _____    ______ ____
ROOT
ATOM      1  C   UNL     1       2.467   7.427  18.847  0.00  0.00    +0.000 A 
ATOM      2  C   UNL     1       2.297   8.375  17.842  0.00  0.00    +0.000 A 
ATOM      3  C   UNL     1       1.585   9.557  18.078  0.00  0.00    +0.000 A 
ATOM      4  C   UNL     1       1.019   9.839  19.322  0.00  0.00    +0.000 A 
ATOM      5  C   UNL     1       1.195   8.878  20.328  0.00  0.00    +0.000 A 
ATOM      6  C   UNL     1       1.892   7.679  20.094  0.00  0.00    +0.000 A 
ENDROOT
BRANCH   4   7
ATOM      7  N   UNL     1       0.269  10.981  19.552  0.00  0.00    +0.000 N 
ATOM      8  C   UNL     1       0.788  12.323  19.237  0.00  0.00    +0.000 C 
ATOM      9  C   UNL     1       1.138  13.105  20.510  0.00  0.00    +0.000 C 
ATOM     10  O   UNL     1       0.023  13.153  21.414  0.00  0.00    +0.000 OA
ATOM     11  C   UNL     1      -0.350  11.822  21.804  0.00  0.00    +0.000 C 
ATOM     12  C   UNL     1      -0.772  10.964  20.596  0.00  0.00    +0.000 C 
ENDBRANCH   4   7
BRANCH   1  15
ATOM     13  C   UNL     1       2.642   5.065  18.110  0.00  0.00    +0.000 C 
ATOM     14  O   UNL     1       1.506   4.906  17.686  0.00  0.00    +0.000 OA
ATOM     15  N   UNL     1       3.176   6.224  18.647  0.00  0.00    +0.000 N 
ATOM     16  H   UNL     1       4.177   6.255  18.800  0.00  0.00    +0.000 HD
BRANCH  13  18
ATOM     17  C   UNL     1       4.379   3.756  16.815  0.00  0.00    +0.000 C 
ATOM     18  C   UNL     1       3.555   3.876  18.081  0.00  0.00    +0.000 C 
ATOM     19  C   UNL     1       4.318   3.617  19.380  0.00  0.00    +0.000 C 
ATOM     20  C   UNL     1       3.266   2.650  18.934  0.00  0.00    +0.000 C 
ATOM     21 CL   UNL     1       1.801   2.552  19.911  0.00  0.00    +0.000 Cl
ATOM     22 CL   UNL     1       3.800   1.057  18.393  0.00  0.00    +0.000 Cl
ENDBRANCH  13  18
ENDBRANCH   1  15
TORSDOF 3
ENDMDL
MODEL 7
REMARK VINA RESULT:      -6.8      3.800      8.125
REMARK  Name = 
REMARK  4 active torsions:
REMARK  status: ('A' for Active; 'I' for Inactive)
REMARK    1  A    between atoms: C_1  and  C_2
REMARK    2  A    between atoms: C_2  and  C_3
REMARK    3  A    between atoms: N_5  and  C_6
REMARK    4  A    between atoms: C_9  and  N_10
REMARK                            x       y       z     vdW  Elec       q    Type
REMARK                         _______ _______ _______ _____ _____    ______ ____
ROOT
ATOM      1  C   UNL     1       1.803   7.744  20.018  0.00  0.00    +0.000 A 
ATOM      2  C   UNL     1       1.860   6.543  20.721  0.00  0.00    +0.000 A 
ATOM      3  C   UNL     1       2.443   5.403  20.156  0.00  0.00    +0.000 A 
ATOM      4  C   UNL     1       2.992   5.416  18.874  0.00  0.00    +0.000 A 
ATOM      5  C   UNL     1       2.930   6.630  18.173  0.00  0.00    +0.000 A 
ATOM      6  C   UNL     1       2.328   7.775  18.725  0.00  0.00    +0.000 A 
ENDROOT
BRANCH   4   7
ATOM      7  N   UNL     1       3.526   4.281  18.285  0.00  0.00    +0.000 N 
ATOM      8  C   UNL     1       2.746   3.463  17.339  0.00  0.00    +0.000 C 
ATOM      9  C   UNL     1       2.325   2.127  17.966  0.00  0.00    +0.000 C 
ATOM     10  O   UNL     1       3.457   1.418  18.491  0.00  0.00    +0.000 OA
ATOM     11  C   UNL     1       4.095   2.200  19.513  0.00  0.00    +0.000 C 
ATOM     12  C   UNL     1       4.606   3.550  18.972  0.00  0.00    +0.000 C 
ENDBRANCH   4   7
BRANCH   1  15
ATOM     13  C   UNL     1       0.036   8.958  21.267  0.00  0.00    +0.000 C 
ATOM     14  O   UNL     1      -0.666   8.010  21.587  0.00  0.00    +0.000 OA
ATOM     15  N   UNL     1       1.221   8.912  20.553  0.00  0.00    +0.000 N 
ATOM     16  H   UNL     1       1.777   9.758  20.507  0.00  0.00    +0.000 HD
BRANCH  13  18
ATOM     17  C   UNL     1      -0.865  10.447  23.104  0.00  0.00    +0.000 C 
ATOM     18  C   UNL     1      -0.443  10.325  21.654  0.00  0.00    +0.000 C 
ATOM     19  C   UNL     1       0.408  11.480  21.126  0.00  0.00    +0.000 C 
ATOM     20  C   UNL     1      -0.983  11.287  20.608  0.00  0.00    +0.000 C 
ATOM     21 CL   UNL     1      -1.151  10.793  18.924  0.00  0.00    +0.000 Cl
ATOM     22 CL   UNL     1      -2.195  12.487  21.061  0.00  0.00    +0.000 Cl
ENDBRANCH  13  18
ENDBRANCH   1  15
TORSDOF 3
ENDMDL
MODEL 8
REMARK VINA RESULT:      -6.7      3.835      8.061
REMARK  Name = 
REMARK  4 active torsions:
REMARK  status: ('A' for Active; 'I' for Inactive)
REMARK    1  A    between atoms: C_1  and  C_2
REMARK    2  A    between atoms: C_2  and  C_3
REMARK    3  A    between atoms: N_5  and  C_6
REMARK    4  A    between atoms: C_9  and  N_10
REMARK                            x       y       z     vdW  Elec       q    Type
REMARK                         _______ _______ _______ _____ _____    ______ ____
ROOT
ATOM      1  C   UNL     1       1.791   7.796  19.963  0.00  0.00    +0.000 A 
ATOM      2  C   UNL     1       2.338   7.815  18.683  0.00  0.00    +0.000 A 
ATOM      3  C   UNL     1       2.904   6.664  18.123  0.00  0.00    +0.000 A 
ATOM      4  C   UNL     1       2.944   5.452  18.814  0.00  0.00    +0.000 A 
ATOM      5  C   UNL     1       2.392   5.443  20.103  0.00  0.00    +0.000 A 
ATOM      6  C   UNL     1       1.839   6.599  20.682  0.00  0.00    +0.000 A 
ENDROOT
BRANCH   4   7
ATOM      7  N   UNL     1       3.547   4.321  18.289  0.00  0.00    +0.000 N 
ATOM      8  C   UNL     1       2.860   3.464  17.307  0.00  0.00    +0.000 C 
ATOM      9  C   UNL     1       2.428   2.130  17.929  0.00  0.00    +0.000 C 
ATOM     10  O   UNL     1       3.536   1.461  18.550  0.00  0.00    +0.000 OA
ATOM     11  C   UNL     1       4.077   2.280  19.600  0.00  0.00    +0.000 C 
ATOM     12  C   UNL     1       4.592   3.631  19.069  0.00  0.00    +0.000 C 
ENDBRANCH   4   7
BRANCH   1  15
ATOM     13  C   UNL     1       0.022   8.949  21.265  0.00  0.00    +0.000 C 
ATOM     14  O   UNL     1      -0.694   7.990  21.517  0.00  0.00    +0.000 OA
ATOM     15  N   UNL     1       1.215   8.935  20.563  0.00  0.00    +0.000 N 
ATOM     16  H   UNL     1       1.779   9.776  20.577  0.00  0.00    +0.000 HD
BRANCH  13  18
ATOM     17  C   UNL     1      -0.824  10.345  23.198  0.00  0.00    +0.000 C 
ATOM     18  C   UNL     1      -0.448  10.294  21.732  0.00  0.00    +0.000 C 
ATOM     19  C   UNL     1       0.382  11.476  21.232  0.00  0.00    +0.000 C 
ATOM     20  C   UNL     1      -1.024  11.302  20.750  0.00  0.00    +0.000 C 
ATOM     21 CL   UNL     1      -1.244  10.888  19.050  0.00  0.00    +0.000 Cl
ATOM     22 CL   UNL     1      -2.224  12.475  21.297  0.00  0.00    +0.000 Cl
ENDBRANCH  13  18
ENDBRANCH   1  15
TORSDOF 3
ENDMDL
MODEL 9
REMARK VINA RESULT:      -6.7      4.125      8.184
REMARK  Name = 
REMARK  4 active torsions:
REMARK  status: ('A' for Active; 'I' for Inactive)
REMARK    1  A    between atoms: C_1  and  C_2
REMARK    2  A    between atoms: C_2  and  C_3
REMARK    3  A    between atoms: N_5  and  C_6
REMARK    4  A    between atoms: C_9  and  N_10
REMARK                            x       y       z     vdW  Elec       q    Type
REMARK                         _______ _______ _______ _____ _____    ______ ____
ROOT
ATOM      1  C   UNL     1       2.364   7.827  17.806  0.00  0.00    +0.000 A 
ATOM      2  C   UNL     1       2.016   6.521  18.139  0.00  0.00    +0.000 A 
ATOM      3  C   UNL     1       2.954   5.484  18.074  0.00  0.00    +0.000 A 
ATOM      4  C   UNL     1       4.273   5.710  17.678  0.00  0.00    +0.000 A 
ATOM      5  C   UNL     1       4.615   7.028  17.343  0.00  0.00    +0.000 A 
ATOM      6  C   UNL     1       3.674   8.072  17.387  0.00  0.00    +0.000 A 
ENDROOT
BRANCH   4   7
ATOM      7  N   UNL     1       5.197   4.683  17.560  0.00  0.00    +0.000 N 
ATOM      8  C   UNL     1       6.269   4.492  18.552  0.00  0.00    +0.000 C 
ATOM      9  C   UNL     1       7.638   4.889  17.985  0.00  0.00    +0.000 C 
ATOM     10  O   UNL     1       7.911   4.204  16.753  0.00  0.00    +0.000 OA
ATOM     11  C   UNL     1       6.915   4.541  15.774  0.00  0.00    +0.000 C 
ATOM     12  C   UNL     1       5.500   4.133  16.227  0.00  0.00    +0.000 C 
ENDBRANCH   4   7
BRANCH   1  15
ATOM     13  C   UNL     1       0.947   9.463  19.016  0.00  0.00    +0.000 C 
ATOM     14  O   UNL     1       1.244   9.171  20.165  0.00  0.00    +0.000 OA
ATOM     15  N   UNL     1       1.447   8.896  17.856  0.00  0.00    +0.000 N 
ATOM     16  H   UNL     1       1.233   9.354  16.978  0.00  0.00    +0.000 HD
BRANCH  13  18
ATOM     17  C   UNL     1      -1.249  10.115  17.940  0.00  0.00    +0.000 C 
ATOM     18  C   UNL     1      -0.094  10.527  18.830  0.00  0.00    +0.000 C 
ATOM     19  C   UNL     1      -0.488  11.274  20.103  0.00  0.00    +0.000 C 
ATOM     20  C   UNL     1       0.250  11.996  19.020  0.00  0.00    +0.000 C 
ATOM     21 CL   UNL     1       1.902  12.501  19.374  0.00  0.00    +0.000 Cl
ATOM     22 CL   UNL     1      -0.631  13.229  18.116  0.00  0.00    +0.000 Cl
ENDBRANCH  13  18
ENDBRANCH   1  15
TORSDOF 3
ENDMDL
