MODEL 1
REMARK VINA RESULT:      -7.1      0.000      0.000
REMARK  Name = 
REMARK  7 active torsions:
REMARK  status: ('A' for Active; 'I' for Inactive)
REMARK    1  A    between atoms: C_2  and  C_3
REMARK    2  A    between atoms: N_5  and  C_6
REMARK    3  A    between atoms: N_5  and  C_16
REMARK    4  A    between atoms: C_16  and  C_17
REMARK    5  A    between atoms: C_16  and  C_27
REMARK    6  A    between atoms: N_19  and  C_20
REMARK    7  A    between atoms: C_20  and  C_21
REMARK                            x       y       z     vdW  Elec       q    Type
REMARK                         _______ _______ _______ _____ _____    ______ ____
ROOT
ATOM      1  C   UNL     1      -1.455  11.477  19.577  0.00  0.00    +0.000 C 
ENDROOT
BRANCH   1   2
ATOM      2  C   UNL     1      -0.322  10.446  19.740  0.00  0.00    +0.000 A 
ATOM      3  C   UNL     1       0.545  10.097  18.694  0.00  0.00    +0.000 A 
ATOM      4  C   UNL     1       1.461   9.050  18.841  0.00  0.00    +0.000 A 
ATOM      5  C   UNL     1       1.571   8.377  20.056  0.00  0.00    +0.000 A 
ATOM      6  C   UNL     1       0.799   8.780  21.138  0.00  0.00    +0.000 A 
ATOM      7  C   UNL     1      -0.128   9.815  20.987  0.00  0.00    +0.000 A 
ENDBRANCH   1   2
BRANCH   1   8
ATOM      8  C   UNL     1      -1.366  12.219  18.193  0.00  0.00    +0.000 C 
ATOM      9  O   UNL     1      -0.594  13.157  17.970  0.00  0.00    +0.000 OA
ATOM     10  N   UNL     1      -2.185  11.879  17.157  0.00  0.00    +0.000 N 
ATOM     11  H   UNL     1      -2.002  12.416  16.317  0.00  0.00    +0.000 HD
BRANCH  10  12
ATOM     12  C   UNL     1      -3.129  10.797  17.081  0.00  0.00    +0.000 C 
BRANCH  12  13
ATOM     13  C   UNL     1      -4.521  11.182  17.485  0.00  0.00    +0.000 A 
ATOM     14  C   UNL     1      -5.136  10.481  18.535  0.00  0.00    +0.000 A 
ATOM     15  C   UNL     1      -6.417  10.820  18.958  0.00  0.00    +0.000 A 
ATOM     16  C   UNL     1      -7.093  11.867  18.339  0.00  0.00    +0.000 A 
ATOM     17  C   UNL     1      -6.490  12.574  17.299  0.00  0.00    +0.000 A 
ATOM     18  C   UNL     1      -5.206  12.237  16.874  0.00  0.00    +0.000 A 
ENDBRANCH  12  13
ENDBRANCH  10  12
ENDBRANCH   1   8
BRANCH   1  21
ATOM     19  C   UNL     1      -0.554  13.316  21.113  0.00  0.00    +0.000 C 
ATOM     20  O   UNL     1      -0.716  14.214  21.932  0.00  0.00    +0.000 OA
ATOM     21  N   UNL     1      -1.592  12.484  20.671  0.00  0.00    +0.000 N 
BRANCH  21  22
ATOM     22  C   UNL     1      -2.909  12.785  21.141  0.00  0.00    +0.000 A 
ATOM     23  C   UNL     1      -3.787  13.525  20.322  0.00  0.00    +0.000 A 
ATOM     24  C   UNL     1      -5.077  13.863  20.748  0.00  0.00    +0.000 A 
ATOM     25  C   UNL     1      -5.450  13.514  22.032  0.00  0.00    +0.000 A 
ATOM     26  C   UNL     1      -4.577  12.818  22.847  0.00  0.00    +0.000 A 
ATOM     27  C   UNL     1      -3.306  12.432  22.434  0.00  0.00    +0.000 A 
ATOM     28  C   UNL     1      -5.229  12.607  24.135  0.00  0.00    +0.000 C 
ATOM     29  O   UNL     1      -4.771  12.013  25.090  0.00  0.00    +0.000 OA
ATOM     30  O   UNL     1      -6.465  13.186  24.055  0.00  0.00    +0.000 OA
ATOM     31  C   UNL     1      -6.693  13.807  22.773  0.00  0.00    +0.000 C 
ENDBRANCH  21  22
BRANCH  19  33
ATOM     32  C   UNL     1       1.903  12.923  20.207  0.00  0.00    +0.000 C 
ATOM     33  C   UNL     1       0.791  13.121  20.616  0.00  0.00    +0.000 C 
ENDBRANCH  19  33
ENDBRANCH   1  21
TORSDOF 7
ENDMDL
MODEL 2
REMARK VINA RESULT:      -7.1      0.374      1.260
REMARK  Name = 
REMARK  7 active torsions:
REMARK  status: ('A' for Active; 'I' for Inactive)
REMARK    1  A    between atoms: C_2  and  C_3
REMARK    2  A    between atoms: N_5  and  C_6
REMARK    3  A    between atoms: N_5  and  C_16
REMARK    4  A    between atoms: C_16  and  C_17
REMARK    5  A    between atoms: C_16  and  C_27
REMARK    6  A    between atoms: N_19  and  C_20
REMARK    7  A    between atoms: C_20  and  C_21
REMARK                            x       y       z     vdW  Elec       q    Type
REMARK                         _______ _______ _______ _____ _____    ______ ____
ROOT
ATOM      1  C   UNL     1      -1.691  11.466  19.573  0.00  0.00    +0.000 C 
ENDROOT
BRANCH   1   2
ATOM      2  C   UNL     1      -0.592  10.398  19.723  0.00  0.00    +0.000 A 
ATOM      3  C   UNL     1      -0.329   9.741  20.935  0.00  0.00    +0.000 A 
ATOM      4  C   UNL     1       0.773   8.890  21.064  0.00  0.00    +0.000 A 
ATOM      5  C   UNL     1       1.594   8.629  19.969  0.00  0.00    +0.000 A 
ATOM      6  C   UNL     1       1.286   9.182  18.732  0.00  0.00    +0.000 A 
ATOM      7  C   UNL     1       0.195  10.046  18.606  0.00  0.00    +0.000 A 
ENDBRANCH   1   2
BRANCH   1   8
ATOM      8  C   UNL     1      -1.641  12.151  18.158  0.00  0.00    +0.000 C 
ATOM      9  O   UNL     1      -0.804  13.001  17.839  0.00  0.00    +0.000 OA
ATOM     10  N   UNL     1      -2.568  11.860  17.201  0.00  0.00    +0.000 N 
ATOM     11  H   UNL     1      -2.401  12.349  16.329  0.00  0.00    +0.000 HD
BRANCH  10  12
ATOM     12  C   UNL     1      -3.614  10.874  17.239  0.00  0.00    +0.000 C 
BRANCH  12  13
ATOM     13  C   UNL     1      -4.922  11.402  17.748  0.00  0.00    +0.000 A 
ATOM     14  C   UNL     1      -5.565  12.421  17.027  0.00  0.00    +0.000 A 
ATOM     15  C   UNL     1      -6.791  12.923  17.450  0.00  0.00    +0.000 A 
ATOM     16  C   UNL     1      -7.390  12.407  18.595  0.00  0.00    +0.000 A 
ATOM     17  C   UNL     1      -6.763  11.390  19.316  0.00  0.00    +0.000 A 
ATOM     18  C   UNL     1      -5.535  10.884  18.893  0.00  0.00    +0.000 A 
ENDBRANCH  12  13
ENDBRANCH  10  12
ENDBRANCH   1   8
BRANCH   1  21
ATOM     19  C   UNL     1      -0.632  13.286  21.028  0.00  0.00    +0.000 C 
ATOM     20  O   UNL     1      -0.713  14.222  21.816  0.00  0.00    +0.000 OA
ATOM     21  N   UNL     1      -1.735  12.519  20.631  0.00  0.00    +0.000 N 
BRANCH  21  22
ATOM     22  C   UNL     1      -3.018  12.935  21.106  0.00  0.00    +0.000 A 
ATOM     23  C   UNL     1      -3.770  13.864  20.356  0.00  0.00    +0.000 A 
ATOM     24  C   UNL     1      -5.021  14.317  20.793  0.00  0.00    +0.000 A 
ATOM     25  C   UNL     1      -5.475  13.885  22.024  0.00  0.00    +0.000 A 
ATOM     26  C   UNL     1      -4.723  13.000  22.774  0.00  0.00    +0.000 A 
ATOM     27  C   UNL     1      -3.499  12.501  22.346  0.00  0.00    +0.000 A 
ATOM     28  C   UNL     1      -5.438  12.740  24.020  0.00  0.00    +0.000 C 
ATOM     29  O   UNL     1      -5.088  11.995  24.913  0.00  0.00    +0.000 OA
ATOM     30  O   UNL     1      -6.589  13.478  23.980  0.00  0.00    +0.000 OA
ATOM     31  C   UNL     1      -6.696  14.255  22.770  0.00  0.00    +0.000 C 
ENDBRANCH  21  22
BRANCH  19  33
ATOM     32  C   UNL     1       1.790  12.749  20.102  0.00  0.00    +0.000 C 
ATOM     33  C   UNL     1       0.688  12.973  20.522  0.00  0.00    +0.000 C 
ENDBRANCH  19  33
ENDBRANCH   1  21
TORSDOF 7
ENDMDL
MODEL 3
REMARK VINA RESULT:      -7.0      2.331      3.858
REMARK  Name = 
REMARK  7 active torsions:
REMARK  status: ('A' for Active; 'I' for Inactive)
REMARK    1  A    between atoms: C_2  and  C_3
REMARK    2  A    between atoms: N_5  and  C_6
REMARK    3  A    between atoms: N_5  and  C_16
REMARK    4  A    between atoms: C_16  and  C_17
REMARK    5  A    between atoms: C_16  and  C_27
REMARK    6  A    between atoms: N_19  and  C_20
REMARK    7  A    between atoms: C_20  and  C_21
REMARK                            x       y       z     vdW  Elec       q    Type
REMARK                         _______ _______ _______ _____ _____    ______ ____
ROOT
ATOM      1  C   UNL     1      -0.881  12.240  20.390  0.00  0.00    +0.000 C 
ENDROOT
BRANCH   1   2
ATOM      2  C   UNL     1       0.536  12.690  19.988  0.00  0.00    +0.000 A 
ATOM      3  C   UNL     1       1.448  13.240  20.901  0.00  0.00    +0.000 A 
ATOM      4  C   UNL     1       2.665  13.772  20.465  0.00  0.00    +0.000 A 
ATOM      5  C   UNL     1       3.021  13.706  19.120  0.00  0.00    +0.000 A 
ATOM      6  C   UNL     1       2.182  13.066  18.217  0.00  0.00    +0.000 A 
ATOM      7  C   UNL     1       0.957  12.550  18.648  0.00  0.00    +0.000 A 
ENDBRANCH   1   2
BRANCH   1   8
ATOM      8  C   UNL     1      -1.951  13.349  20.073  0.00  0.00    +0.000 C 
ATOM      9  O   UNL     1      -1.729  14.560  20.172  0.00  0.00    +0.000 OA
ATOM     10  N   UNL     1      -3.220  13.018  19.701  0.00  0.00    +0.000 N 
ATOM     11  H   UNL     1      -3.796  13.827  19.499  0.00  0.00    +0.000 HD
BRANCH  10  12
ATOM     12  C   UNL     1      -3.762  11.714  19.431  0.00  0.00    +0.000 C 
BRANCH  12  13
ATOM     13  C   UNL     1      -3.423  11.190  18.067  0.00  0.00    +0.000 A 
ATOM     14  C   UNL     1      -2.339  10.307  17.933  0.00  0.00    +0.000 A 
ATOM     15  C   UNL     1      -2.006   9.779  16.690  0.00  0.00    +0.000 A 
ATOM     16  C   UNL     1      -2.756  10.124  15.570  0.00  0.00    +0.000 A 
ATOM     17  C   UNL     1      -3.838  10.995  15.693  0.00  0.00    +0.000 A 
ATOM     18  C   UNL     1      -4.176  11.525  16.937  0.00  0.00    +0.000 A 
ENDBRANCH  12  13
ENDBRANCH  10  12
ENDBRANCH   1   8
BRANCH   1  21
ATOM     19  C   UNL     1      -0.480  10.609  22.321  0.00  0.00    +0.000 C 
ATOM     20  O   UNL     1      -0.536  10.305  23.508  0.00  0.00    +0.000 OA
ATOM     21  N   UNL     1      -1.051  11.778  21.800  0.00  0.00    +0.000 N 
BRANCH  21  22
ATOM     22  C   UNL     1      -1.631  12.689  22.737  0.00  0.00    +0.000 A 
ATOM     23  C   UNL     1      -2.997  12.569  23.069  0.00  0.00    +0.000 A 
ATOM     24  C   UNL     1      -3.614  13.452  23.963  0.00  0.00    +0.000 A 
ATOM     25  C   UNL     1      -2.864  14.499  24.464  0.00  0.00    +0.000 A 
ATOM     26  C   UNL     1      -1.535  14.636  24.113  0.00  0.00    +0.000 A 
ATOM     27  C   UNL     1      -0.885  13.749  23.261  0.00  0.00    +0.000 A 
ATOM     28  C   UNL     1      -1.011  15.828  24.772  0.00  0.00    +0.000 C 
ATOM     29  O   UNL     1       0.126  16.249  24.711  0.00  0.00    +0.000 OA
ATOM     30  O   UNL     1      -2.042  16.370  25.490  0.00  0.00    +0.000 OA
ATOM     31  C   UNL     1      -3.263  15.617  25.343  0.00  0.00    +0.000 C 
ENDBRANCH  21  22
BRANCH  19  33
ATOM     32  C   UNL     1       0.784   8.903  20.738  0.00  0.00    +0.000 C 
ATOM     33  C   UNL     1       0.197   9.679  21.442  0.00  0.00    +0.000 C 
ENDBRANCH  19  33
ENDBRANCH   1  21
TORSDOF 7
ENDMDL
MODEL 4
REMARK VINA RESULT:      -6.9      1.043      2.035
REMARK  Name = 
REMARK  7 active torsions:
REMARK  status: ('A' for Active; 'I' for Inactive)
REMARK    1  A    between atoms: C_2  and  C_3
REMARK    2  A    between atoms: N_5  and  C_6
REMARK    3  A    between atoms: N_5  and  C_16
REMARK    4  A    between atoms: C_16  and  C_17
REMARK    5  A    between atoms: C_16  and  C_27
REMARK    6  A    between atoms: N_19  and  C_20
REMARK    7  A    between atoms: C_20  and  C_21
REMARK                            x       y       z     vdW  Elec       q    Type
REMARK                         _______ _______ _______ _____ _____    ______ ____
ROOT
ATOM      1  C   UNL     1      -1.316  11.305  19.611  0.00  0.00    +0.000 C 
ENDROOT
BRANCH   1   2
ATOM      2  C   UNL     1      -0.231  10.230  19.423  0.00  0.00    +0.000 A 
ATOM      3  C   UNL     1       0.300   9.489  20.490  0.00  0.00    +0.000 A 
ATOM      4  C   UNL     1       1.388   8.631  20.295  0.00  0.00    +0.000 A 
ATOM      5  C   UNL     1       1.923   8.450  19.022  0.00  0.00    +0.000 A 
ATOM      6  C   UNL     1       1.341   9.089  17.934  0.00  0.00    +0.000 A 
ATOM      7  C   UNL     1       0.265   9.959  18.130  0.00  0.00    +0.000 A 
ENDBRANCH   1   2
BRANCH   1   8
ATOM      8  C   UNL     1      -1.554  12.123  18.289  0.00  0.00    +0.000 C 
ATOM      9  O   UNL     1      -0.785  12.998  17.878  0.00  0.00    +0.000 OA
ATOM     10  N   UNL     1      -2.671  11.928  17.531  0.00  0.00    +0.000 N 
ATOM     11  H   UNL     1      -2.684  12.498  16.693  0.00  0.00    +0.000 HD
BRANCH  10  12
ATOM     12  C   UNL     1      -3.708  10.946  17.701  0.00  0.00    +0.000 C 
BRANCH  12  13
ATOM     13  C   UNL     1      -5.055  11.536  17.994  0.00  0.00    +0.000 A 
ATOM     14  C   UNL     1      -5.630  12.406  17.054  0.00  0.00    +0.000 A 
ATOM     15  C   UNL     1      -6.888  12.956  17.275  0.00  0.00    +0.000 A 
ATOM     16  C   UNL     1      -7.586  12.637  18.436  0.00  0.00    +0.000 A 
ATOM     17  C   UNL     1      -7.028  11.770  19.374  0.00  0.00    +0.000 A 
ATOM     18  C   UNL     1      -5.768  11.216  19.155  0.00  0.00    +0.000 A 
ENDBRANCH  12  13
ENDBRANCH  10  12
ENDBRANCH   1   8
BRANCH   1  21
ATOM     19  C   UNL     1       0.029  13.038  20.930  0.00  0.00    +0.000 C 
ATOM     20  O   UNL     1       0.127  13.891  21.805  0.00  0.00    +0.000 OA
ATOM     21  N   UNL     1      -1.117  12.251  20.749  0.00  0.00    +0.000 N 
BRANCH  21  22
ATOM     22  C   UNL     1      -2.245  12.550  21.575  0.00  0.00    +0.000 A 
ATOM     23  C   UNL     1      -2.332  11.984  22.865  0.00  0.00    +0.000 A 
ATOM     24  C   UNL     1      -3.428  12.229  23.700  0.00  0.00    +0.000 A 
ATOM     25  C   UNL     1      -4.469  12.988  23.201  0.00  0.00    +0.000 A 
ATOM     26  C   UNL     1      -4.398  13.516  21.925  0.00  0.00    +0.000 A 
ATOM     27  C   UNL     1      -3.304  13.324  21.090  0.00  0.00    +0.000 A 
ATOM     28  C   UNL     1      -5.635  14.248  21.668  0.00  0.00    +0.000 C 
ATOM     29  O   UNL     1      -5.917  14.860  20.658  0.00  0.00    +0.000 OA
ATOM     30  O   UNL     1      -6.407  14.132  22.791  0.00  0.00    +0.000 OA
ATOM     31  C   UNL     1      -5.770  13.335  23.810  0.00  0.00    +0.000 C 
ENDBRANCH  21  22
BRANCH  19  33
ATOM     32  C   UNL     1       2.156  12.679  19.394  0.00  0.00    +0.000 C 
ATOM     33  C   UNL     1       1.181  12.847  20.074  0.00  0.00    +0.000 C 
ENDBRANCH  19  33
ENDBRANCH   1  21
TORSDOF 7
ENDMDL
MODEL 5
REMARK VINA RESULT:      -6.9      1.024      1.639
REMARK  Name = 
REMARK  7 active torsions:
REMARK  status: ('A' for Active; 'I' for Inactive)
REMARK    1  A    between atoms: C_2  and  C_3
REMARK    2  A    between atoms: N_5  and  C_6
REMARK    3  A    between atoms: N_5  and  C_16
REMARK    4  A    between atoms: C_16  and  C_17
REMARK    5  A    between atoms: C_16  and  C_27
REMARK    6  A    between atoms: N_19  and  C_20
REMARK    7  A    between atoms: C_20  and  C_21
REMARK                            x       y       z     vdW  Elec       q    Type
REMARK                         _______ _______ _______ _____ _____    ______ ____
ROOT
ATOM      1  C   UNL     1      -1.180  11.330  19.612  0.00  0.00    +0.000 C 
ENDROOT
BRANCH   1   2
ATOM      2  C   UNL     1      -0.040  10.312  19.425  0.00  0.00    +0.000 A 
ATOM      3  C   UNL     1       0.550  10.051  18.178  0.00  0.00    +0.000 A 
ATOM      4  C   UNL     1       1.476   9.014  18.027  0.00  0.00    +0.000 A 
ATOM      5  C   UNL     1       1.877   8.262  19.129  0.00  0.00    +0.000 A 
ATOM      6  C   UNL     1       1.389   8.577  20.391  0.00  0.00    +0.000 A 
ATOM      7  C   UNL     1       0.451   9.601  20.540  0.00  0.00    +0.000 A 
ENDBRANCH   1   2
BRANCH   1   8
ATOM      8  C   UNL     1      -1.459  12.134  18.290  0.00  0.00    +0.000 C 
ATOM      9  O   UNL     1      -0.722  13.029  17.865  0.00  0.00    +0.000 OA
ATOM     10  N   UNL     1      -2.580  11.903  17.548  0.00  0.00    +0.000 N 
ATOM     11  H   UNL     1      -2.621  12.468  16.708  0.00  0.00    +0.000 HD
BRANCH  10  12
ATOM     12  C   UNL     1      -3.585  10.891  17.737  0.00  0.00    +0.000 C 
BRANCH  12  13
ATOM     13  C   UNL     1      -4.968  11.441  17.923  0.00  0.00    +0.000 A 
ATOM     14  C   UNL     1      -5.708  11.039  19.046  0.00  0.00    +0.000 A 
ATOM     15  C   UNL     1      -6.985  11.543  19.270  0.00  0.00    +0.000 A 
ATOM     16  C   UNL     1      -7.532  12.458  18.375  0.00  0.00    +0.000 A 
ATOM     17  C   UNL     1      -6.803  12.869  17.259  0.00  0.00    +0.000 A 
ATOM     18  C   UNL     1      -5.523  12.367  17.033  0.00  0.00    +0.000 A 
ENDBRANCH  12  13
ENDBRANCH  10  12
ENDBRANCH   1   8
BRANCH   1  21
ATOM     19  C   UNL     1       0.086  13.112  20.945  0.00  0.00    +0.000 C 
ATOM     20  O   UNL     1       0.142  13.970  21.819  0.00  0.00    +0.000 OA
ATOM     21  N   UNL     1      -1.029  12.286  20.750  0.00  0.00    +0.000 N 
BRANCH  21  22
ATOM     22  C   UNL     1      -2.179  12.549  21.559  0.00  0.00    +0.000 A 
ATOM     23  C   UNL     1      -2.255  12.003  22.858  0.00  0.00    +0.000 A 
ATOM     24  C   UNL     1      -3.371  12.214  23.677  0.00  0.00    +0.000 A 
ATOM     25  C   UNL     1      -4.439  12.916  23.152  0.00  0.00    +0.000 A 
ATOM     26  C   UNL     1      -4.378  13.422  21.867  0.00  0.00    +0.000 A 
ATOM     27  C   UNL     1      -3.266  13.265  21.048  0.00  0.00    +0.000 A 
ATOM     28  C   UNL     1      -5.643  14.093  21.583  0.00  0.00    +0.000 C 
ATOM     29  O   UNL     1      -5.940  14.673  20.558  0.00  0.00    +0.000 OA
ATOM     30  O   UNL     1      -6.421  13.963  22.700  0.00  0.00    +0.000 OA
ATOM     31  C   UNL     1      -5.761  13.215  23.740  0.00  0.00    +0.000 C 
ENDBRANCH  21  22
BRANCH  19  33
ATOM     32  C   UNL     1       2.230  12.865  19.410  0.00  0.00    +0.000 C 
ATOM     33  C   UNL     1       1.257  12.957  20.108  0.00  0.00    +0.000 C 
ENDBRANCH  19  33
ENDBRANCH   1  21
TORSDOF 7
ENDMDL
MODEL 6
REMARK VINA RESULT:      -6.8      2.825      5.668
REMARK  Name = 
REMARK  7 active torsions:
REMARK  status: ('A' for Active; 'I' for Inactive)
REMARK    1  A    between atoms: C_2  and  C_3
REMARK    2  A    between atoms: N_5  and  C_6
REMARK    3  A    between atoms: N_5  and  C_16
REMARK    4  A    between atoms: C_16  and  C_17
REMARK    5  A    between atoms: C_16  and  C_27
REMARK    6  A    between atoms: N_19  and  C_20
REMARK    7  A    between atoms: C_20  and  C_21
REMARK                            x       y       z     vdW  Elec       q    Type
REMARK                         _______ _______ _______ _____ _____    ______ ____
ROOT
ATOM      1  C   UNL     1       0.538  11.247  20.049  0.00  0.00    +0.000 C 
ENDROOT
BRANCH   1   2
ATOM      2  C   UNL     1       0.736  12.708  19.605  0.00  0.00    +0.000 A 
ATOM      3  C   UNL     1       1.923  13.420  19.837  0.00  0.00    +0.000 A 
ATOM      4  C   UNL     1       2.006  14.786  19.552  0.00  0.00    +0.000 A 
ATOM      5  C   UNL     1       0.929  15.451  18.971  0.00  0.00    +0.000 A 
ATOM      6  C   UNL     1      -0.216  14.741  18.631  0.00  0.00    +0.000 A 
ATOM      7  C   UNL     1      -0.306  13.379  18.932  0.00  0.00    +0.000 A 
ENDBRANCH   1   2
BRANCH   1   8
ATOM      8  C   UNL     1      -0.190  10.400  18.941  0.00  0.00    +0.000 C 
ATOM      9  O   UNL     1      -1.418  10.323  18.837  0.00  0.00    +0.000 OA
ATOM     10  N   UNL     1       0.518   9.660  18.042  0.00  0.00    +0.000 N 
ATOM     11  H   UNL     1      -0.073   9.188  17.367  0.00  0.00    +0.000 HD
BRANCH  10  12
ATOM     12  C   UNL     1       1.943   9.596  17.860  0.00  0.00    +0.000 C 
BRANCH  12  13
ATOM     13  C   UNL     1       2.484   8.198  17.814  0.00  0.00    +0.000 A 
ATOM     14  C   UNL     1       3.807   8.000  17.387  0.00  0.00    +0.000 A 
ATOM     15  C   UNL     1       4.356   6.723  17.353  0.00  0.00    +0.000 A 
ATOM     16  C   UNL     1       3.590   5.631  17.749  0.00  0.00    +0.000 A 
ATOM     17  C   UNL     1       2.276   5.816  18.180  0.00  0.00    +0.000 A 
ATOM     18  C   UNL     1       1.724   7.095  18.217  0.00  0.00    +0.000 A 
ENDBRANCH  12  13
ENDBRANCH  10  12
ENDBRANCH   1   8
BRANCH   1  21
ATOM     19  C   UNL     1       0.137  10.000  22.249  0.00  0.00    +0.000 C 
ATOM     20  O   UNL     1      -0.357   9.915  23.368  0.00  0.00    +0.000 OA
ATOM     21  N   UNL     1      -0.151  11.044  21.359  0.00  0.00    +0.000 N 
BRANCH  21  22
ATOM     22  C   UNL     1      -0.986  12.098  21.845  0.00  0.00    +0.000 A 
ATOM     23  C   UNL     1      -0.402  13.198  22.510  0.00  0.00    +0.000 A 
ATOM     24  C   UNL     1      -1.182  14.242  23.022  0.00  0.00    +0.000 A 
ATOM     25  C   UNL     1      -2.556  14.135  22.926  0.00  0.00    +0.000 A 
ATOM     26  C   UNL     1      -3.129  13.041  22.304  0.00  0.00    +0.000 A 
ATOM     27  C   UNL     1      -2.378  12.012  21.748  0.00  0.00    +0.000 A 
ATOM     28  C   UNL     1      -4.579  13.191  22.368  0.00  0.00    +0.000 C 
ATOM     29  O   UNL     1      -5.407  12.432  21.907  0.00  0.00    +0.000 OA
ATOM     30  O   UNL     1      -4.829  14.362  23.029  0.00  0.00    +0.000 OA
ATOM     31  C   UNL     1      -3.617  15.023  23.444  0.00  0.00    +0.000 C 
ENDBRANCH  21  22
BRANCH  19  33
ATOM     32  C   UNL     1       1.764   8.036  21.534  0.00  0.00    +0.000 C 
ATOM     33  C   UNL     1       1.040   8.940  21.853  0.00  0.00    +0.000 C 
ENDBRANCH  19  33
ENDBRANCH   1  21
TORSDOF 7
ENDMDL
MODEL 7
REMARK VINA RESULT:      -6.8      2.979      5.786
REMARK  Name = 
REMARK  7 active torsions:
REMARK  status: ('A' for Active; 'I' for Inactive)
REMARK    1  A    between atoms: C_2  and  C_3
REMARK    2  A    between atoms: N_5  and  C_6
REMARK    3  A    between atoms: N_5  and  C_16
REMARK    4  A    between atoms: C_16  and  C_17
REMARK    5  A    between atoms: C_16  and  C_27
REMARK    6  A    between atoms: N_19  and  C_20
REMARK    7  A    between atoms: C_20  and  C_21
REMARK                            x       y       z     vdW  Elec       q    Type
REMARK                         _______ _______ _______ _____ _____    ______ ____
ROOT
ATOM      1  C   UNL     1       0.521  11.140  19.920  0.00  0.00    +0.000 C 
ENDROOT
BRANCH   1   2
ATOM      2  C   UNL     1       0.831  12.603  19.554  0.00  0.00    +0.000 A 
ATOM      3  C   UNL     1       1.984  13.271  19.996  0.00  0.00    +0.000 A 
ATOM      4  C   UNL     1       2.151  14.640  19.766  0.00  0.00    +0.000 A 
ATOM      5  C   UNL     1       1.203  15.353  19.036  0.00  0.00    +0.000 A 
ATOM      6  C   UNL     1       0.110  14.688  18.494  0.00  0.00    +0.000 A 
ATOM      7  C   UNL     1      -0.067  13.323  18.738  0.00  0.00    +0.000 A 
ENDBRANCH   1   2
BRANCH   1   8
ATOM      8  C   UNL     1      -0.084  10.355  18.698  0.00  0.00    +0.000 C 
ATOM      9  O   UNL     1      -1.290  10.318  18.439  0.00  0.00    +0.000 OA
ATOM     10  N   UNL     1       0.713   9.626  17.865  0.00  0.00    +0.000 N 
ATOM     11  H   UNL     1       0.200   9.197  17.104  0.00  0.00    +0.000 HD
BRANCH  10  12
ATOM     12  C   UNL     1       2.147   9.528  17.859  0.00  0.00    +0.000 C 
BRANCH  12  13
ATOM     13  C   UNL     1       2.655   8.117  17.815  0.00  0.00    +0.000 A 
ATOM     14  C   UNL     1       1.775   7.073  18.142  0.00  0.00    +0.000 A 
ATOM     15  C   UNL     1       2.198   5.748  18.091  0.00  0.00    +0.000 A 
ATOM     16  C   UNL     1       3.502   5.455  17.707  0.00  0.00    +0.000 A 
ATOM     17  C   UNL     1       4.383   6.484  17.373  0.00  0.00    +0.000 A 
ATOM     18  C   UNL     1       3.962   7.811  17.422  0.00  0.00    +0.000 A 
ENDBRANCH  12  13
ENDBRANCH  10  12
ENDBRANCH   1   8
BRANCH   1  21
ATOM     19  C   UNL     1      -0.236   9.835  21.987  0.00  0.00    +0.000 C 
ATOM     20  O   UNL     1      -0.876   9.737  23.029  0.00  0.00    +0.000 OA
ATOM     21  N   UNL     1      -0.344  10.929  21.120  0.00  0.00    +0.000 N 
BRANCH  21  22
ATOM     22  C   UNL     1      -1.172  12.015  21.545  0.00  0.00    +0.000 A 
ATOM     23  C   UNL     1      -2.429  12.211  20.935  0.00  0.00    +0.000 A 
ATOM     24  C   UNL     1      -3.264  13.272  21.303  0.00  0.00    +0.000 A 
ATOM     25  C   UNL     1      -2.794  14.176  22.236  0.00  0.00    +0.000 A 
ATOM     26  C   UNL     1      -1.548  14.003  22.809  0.00  0.00    +0.000 A 
ATOM     27  C   UNL     1      -0.716  12.934  22.495  0.00  0.00    +0.000 A 
ATOM     28  C   UNL     1      -1.316  15.109  23.733  0.00  0.00    +0.000 C 
ATOM     29  O   UNL     1      -0.336  15.276  24.431  0.00  0.00    +0.000 OA
ATOM     30  O   UNL     1      -2.423  15.910  23.680  0.00  0.00    +0.000 OA
ATOM     31  C   UNL     1      -3.406  15.420  22.746  0.00  0.00    +0.000 C 
ENDBRANCH  21  22
BRANCH  19  33
ATOM     32  C   UNL     1       1.400   7.846  21.368  0.00  0.00    +0.000 C 
ATOM     33  C   UNL     1       0.648   8.735  21.660  0.00  0.00    +0.000 C 
ENDBRANCH  19  33
ENDBRANCH   1  21
TORSDOF 7
ENDMDL
MODEL 8
REMARK VINA RESULT:      -6.7      2.973      5.779
REMARK  Name = 
REMARK  7 active torsions:
REMARK  status: ('A' for Active; 'I' for Inactive)
REMARK    1  A    between atoms: C_2  and  C_3
REMARK    2  A    between atoms: N_5  and  C_6
REMARK    3  A    between atoms: N_5  and  C_16
REMARK    4  A    between atoms: C_16  and  C_17
REMARK    5  A    between atoms: C_16  and  C_27
REMARK    6  A    between atoms: N_19  and  C_20
REMARK    7  A    between atoms: C_20  and  C_21
REMARK                            x       y       z     vdW  Elec       q    Type
REMARK                         _______ _______ _______ _____ _____    ______ ____
ROOT
ATOM      1  C   UNL     1       0.567  11.183  19.990  0.00  0.00    +0.000 C 
ENDROOT
BRANCH   1   2
ATOM      2  C   UNL     1       0.909  12.655  19.696  0.00  0.00    +0.000 A 
ATOM      3  C   UNL     1       0.083  13.491  18.928  0.00  0.00    +0.000 A 
ATOM      4  C   UNL     1       0.504  14.773  18.560  0.00  0.00    +0.000 A 
ATOM      5  C   UNL     1       1.727  15.267  19.006  0.00  0.00    +0.000 A 
ATOM      6  C   UNL     1       2.511  14.498  19.858  0.00  0.00    +0.000 A 
ATOM      7  C   UNL     1       2.099  13.211  20.212  0.00  0.00    +0.000 A 
ENDBRANCH   1   2
BRANCH   1   8
ATOM      8  C   UNL     1      -0.035  10.467  18.725  0.00  0.00    +0.000 C 
ATOM      9  O   UNL     1      -1.232  10.498  18.427  0.00  0.00    +0.000 OA
ATOM     10  N   UNL     1       0.752   9.724  17.895  0.00  0.00    +0.000 N 
ATOM     11  H   UNL     1       0.244   9.343  17.105  0.00  0.00    +0.000 HD
BRANCH  10  12
ATOM     12  C   UNL     1       2.179   9.553  17.931  0.00  0.00    +0.000 C 
BRANCH  12  13
ATOM     13  C   UNL     1       2.619   8.122  17.831  0.00  0.00    +0.000 A 
ATOM     14  C   UNL     1       3.926   7.847  17.400  0.00  0.00    +0.000 A 
ATOM     15  C   UNL     1       4.383   6.536  17.316  0.00  0.00    +0.000 A 
ATOM     16  C   UNL     1       3.538   5.487  17.667  0.00  0.00    +0.000 A 
ATOM     17  C   UNL     1       2.238   5.750  18.102  0.00  0.00    +0.000 A 
ATOM     18  C   UNL     1       1.779   7.062  18.189  0.00  0.00    +0.000 A 
ENDBRANCH  12  13
ENDBRANCH  10  12
ENDBRANCH   1   8
BRANCH   1  21
ATOM     19  C   UNL     1      -0.216   9.819  22.009  0.00  0.00    +0.000 C 
ATOM     20  O   UNL     1      -0.875   9.689  23.035  0.00  0.00    +0.000 OA
ATOM     21  N   UNL     1      -0.318  10.934  21.167  0.00  0.00    +0.000 N 
BRANCH  21  22
ATOM     22  C   UNL     1      -1.164  12.001  21.604  0.00  0.00    +0.000 A 
ATOM     23  C   UNL     1      -2.411  12.201  20.975  0.00  0.00    +0.000 A 
ATOM     24  C   UNL     1      -3.263  13.245  21.353  0.00  0.00    +0.000 A 
ATOM     25  C   UNL     1      -2.819  14.130  22.317  0.00  0.00    +0.000 A 
ATOM     26  C   UNL     1      -1.583  13.953  22.910  0.00  0.00    +0.000 A 
ATOM     27  C   UNL     1      -0.735  12.900  22.585  0.00  0.00    +0.000 A 
ATOM     28  C   UNL     1      -1.379  15.037  23.866  0.00  0.00    +0.000 C 
ATOM     29  O   UNL     1      -0.415  15.195  24.586  0.00  0.00    +0.000 OA
ATOM     30  O   UNL     1      -2.493  15.829  23.812  0.00  0.00    +0.000 OA
ATOM     31  C   UNL     1      -3.453  15.355  22.847  0.00  0.00    +0.000 C 
ENDBRANCH  21  22
BRANCH  19  33
ATOM     32  C   UNL     1       1.456   7.863  21.382  0.00  0.00    +0.000 C 
ATOM     33  C   UNL     1       0.684   8.736  21.671  0.00  0.00    +0.000 C 
ENDBRANCH  19  33
ENDBRANCH   1  21
TORSDOF 7
ENDMDL
MODEL 9
REMARK VINA RESULT:      -6.7      2.685      5.679
REMARK  Name = 
REMARK  7 active torsions:
REMARK  status: ('A' for Active; 'I' for Inactive)
REMARK    1  A    between atoms: C_2  and  C_3
REMARK    2  A    between atoms: N_5  and  C_6
REMARK    3  A    between atoms: N_5  and  C_16
REMARK    4  A    between atoms: C_16  and  C_17
REMARK    5  A    between atoms: C_16  and  C_27
REMARK    6  A    between atoms: N_19  and  C_20
REMARK    7  A    between atoms: C_20  and  C_21
REMARK                            x       y       z     vdW  Elec       q    Type
REMARK                         _______ _______ _______ _____ _____    ______ ____
ROOT
ATOM      1  C   UNL     1       0.513  11.092  19.951  0.00  0.00    +0.000 C 
ENDROOT
BRANCH   1   2
ATOM      2  C   UNL     1       0.772  12.572  19.614  0.00  0.00    +0.000 A 
ATOM      3  C   UNL     1      -0.141  13.361  18.897  0.00  0.00    +0.000 A 
ATOM      4  C   UNL     1       0.199  14.653  18.484  0.00  0.00    +0.000 A 
ATOM      5  C   UNL     1       1.429  15.203  18.834  0.00  0.00    +0.000 A 
ATOM      6  C   UNL     1       2.303  14.481  19.637  0.00  0.00    +0.000 A 
ATOM      7  C   UNL     1       1.972  13.183  20.036  0.00  0.00    +0.000 A 
ENDBRANCH   1   2
BRANCH   1   8
ATOM      8  C   UNL     1      -0.103  10.320  18.726  0.00  0.00    +0.000 C 
ATOM      9  O   UNL     1      -1.314  10.275  18.486  0.00  0.00    +0.000 OA
ATOM     10  N   UNL     1       0.687   9.612  17.870  0.00  0.00    +0.000 N 
ATOM     11  H   UNL     1       0.165   9.189  17.111  0.00  0.00    +0.000 HD
BRANCH  10  12
ATOM     12  C   UNL     1       2.122   9.527  17.839  0.00  0.00    +0.000 C 
BRANCH  12  13
ATOM     13  C   UNL     1       2.642   8.121  17.793  0.00  0.00    +0.000 A 
ATOM     14  C   UNL     1       1.776   7.069  18.132  0.00  0.00    +0.000 A 
ATOM     15  C   UNL     1       2.210   5.749  18.079  0.00  0.00    +0.000 A 
ATOM     16  C   UNL     1       3.514   5.467  17.682  0.00  0.00    +0.000 A 
ATOM     17  C   UNL     1       4.381   6.504  17.337  0.00  0.00    +0.000 A 
ATOM     18  C   UNL     1       3.948   7.827  17.387  0.00  0.00    +0.000 A 
ENDBRANCH  12  13
ENDBRANCH  10  12
ENDBRANCH   1   8
BRANCH   1  21
ATOM     19  C   UNL     1      -0.149   9.713  22.004  0.00  0.00    +0.000 C 
ATOM     20  O   UNL     1      -0.756   9.571  23.059  0.00  0.00    +0.000 OA
ATOM     21  N   UNL     1      -0.311  10.827  21.168  0.00  0.00    +0.000 N 
BRANCH  21  22
ATOM     22  C   UNL     1      -1.155  11.877  21.645  0.00  0.00    +0.000 A 
ATOM     23  C   UNL     1      -0.664  12.781  22.611  0.00  0.00    +0.000 A 
ATOM     24  C   UNL     1      -1.462  13.811  23.123  0.00  0.00    +0.000 A 
ATOM     25  C   UNL     1      -2.779  13.880  22.711  0.00  0.00    +0.000 A 
ATOM     26  C   UNL     1      -3.269  12.974  21.789  0.00  0.00    +0.000 A 
ATOM     27  C   UNL     1      -2.488  11.968  21.231  0.00  0.00    +0.000 A 
ATOM     28  C   UNL     1      -4.679  13.278  21.560  0.00  0.00    +0.000 C 
ATOM     29  O   UNL     1      -5.428  12.703  20.797  0.00  0.00    +0.000 OA
ATOM     30  O   UNL     1      -4.989  14.348  22.354  0.00  0.00    +0.000 OA
ATOM     31  C   UNL     1      -3.862  14.789  23.138  0.00  0.00    +0.000 C 
ENDBRANCH  21  22
BRANCH  19  33
ATOM     32  C   UNL     1       1.483   7.740  21.327  0.00  0.00    +0.000 C 
ATOM     33  C   UNL     1       0.754   8.647  21.623  0.00  0.00    +0.000 C 
ENDBRANCH  19  33
ENDBRANCH   1  21
TORSDOF 7
ENDMDL
