MODEL 1
REMARK VINA RESULT:      -7.4      0.000      0.000
REMARK  Name = 
REMARK  10 active torsions:
REMARK  status: ('A' for Active; 'I' for Inactive)
REMARK    1  A    between atoms: C_1  and  C_2
REMARK    2  A    between atoms: C_2  and  C_3
REMARK    3  A    between atoms: C_3  and  C_4
REMARK    4  A    between atoms: C_4  and  C_5
REMARK    5  A    between atoms: C_5  and  C_6
REMARK    6  A    between atoms: C_6  and  O_7
REMARK    7  A    between atoms: O_7  and  C_8
REMARK    8  A    between atoms: C_13  and  C_14
REMARK    9  A    between atoms: C_14  and  O_16
REMARK   10  A    between atoms: O_16  and  C_17
REMARK                            x       y       z     vdW  Elec       q    Type
REMARK                         _______ _______ _______ _____ _____    ______ ____
ROOT
ATOM      1  C   UNL     1       3.111   5.212  20.027  0.00  0.00    +0.000 A 
ATOM      2  C   UNL     1       2.423   5.810  18.966  0.00  0.00    +0.000 A 
ATOM      3  C   UNL     1       3.018   5.920  17.695  0.00  0.00    +0.000 A 
ATOM      4  C   UNL     1       4.307   5.428  17.476  0.00  0.00    +0.000 A 
ATOM      5  C   UNL     1       4.980   5.460  16.178  0.00  0.00    +0.000 A 
ATOM      6  C   UNL     1       6.235   4.991  16.023  0.00  0.00    +0.000 A 
ATOM      7  C   UNL     1       6.983   4.473  17.195  0.00  0.00    +0.000 A 
ATOM      8  O   UNL     1       8.171   4.179  17.163  0.00  0.00    +0.000 OA
ATOM      9  O   UNL     1       6.273   4.340  18.387  0.00  0.00    +0.000 OA
ATOM     10  C   UNL     1       4.968   4.838  18.544  0.00  0.00    +0.000 A 
ATOM     11  C   UNL     1       4.391   4.713  19.808  0.00  0.00    +0.000 A 
ENDROOT
BRANCH   6  12
ATOM     12  C   UNL     1       6.821   5.039  14.649  0.00  0.00    +0.000 C 
ATOM     13  O   UNL     1       7.935   5.479  14.415  0.00  0.00    +0.000 OA
BRANCH  12  14
ATOM     14  O   UNL     1       5.955   4.602  13.694  0.00  0.00    +0.000 OA
ATOM     15  C   UNL     1       6.458   3.571  12.828  0.00  0.00    +0.000 C 
ENDBRANCH  12  14
ENDBRANCH   6  12
BRANCH   1  16
ATOM     16  O   UNL     1       2.437   5.107  21.214  0.00  0.00    +0.000 OA
BRANCH  16  17
ATOM     17  C   UNL     1       2.263   3.769  21.696  0.00  0.00    +0.000 C 
BRANCH  17  18
ATOM     18  C   UNL     1       1.103   3.126  20.945  0.00  0.00    +0.000 C 
BRANCH  18  19
ATOM     19  C   UNL     1       1.603   2.052  19.982  0.00  0.00    +0.000 C 
BRANCH  19  20
ATOM     20  C   UNL     1       1.223   2.390  18.545  0.00  0.00    +0.000 C 
BRANCH  20  22
ATOM     21  C   UNL     1       3.553   1.501  18.327  0.00  0.00    +0.000 C 
ATOM     22  C   UNL     1       2.411   2.195  17.607  0.00  0.00    +0.000 C 
ENDBRANCH  20  22
ENDBRANCH  19  20
ENDBRANCH  18  19
ENDBRANCH  17  18
ENDBRANCH  16  17
ENDBRANCH   1  16
TORSDOF 8
ENDMDL
MODEL 2
REMARK VINA RESULT:      -6.9      0.836      1.003
REMARK  Name = 
REMARK  10 active torsions:
REMARK  status: ('A' for Active; 'I' for Inactive)
REMARK    1  A    between atoms: C_1  and  C_2
REMARK    2  A    between atoms: C_2  and  C_3
REMARK    3  A    between atoms: C_3  and  C_4
REMARK    4  A    between atoms: C_4  and  C_5
REMARK    5  A    between atoms: C_5  and  C_6
REMARK    6  A    between atoms: C_6  and  O_7
REMARK    7  A    between atoms: O_7  and  C_8
REMARK    8  A    between atoms: C_13  and  C_14
REMARK    9  A    between atoms: C_14  and  O_16
REMARK   10  A    between atoms: O_16  and  C_17
REMARK                            x       y       z     vdW  Elec       q    Type
REMARK                         _______ _______ _______ _____ _____    ______ ____
ROOT
ATOM      1  C   UNL     1       3.181   6.041  19.473  0.00  0.00    +0.000 A 
ATOM      2  C   UNL     1       2.666   6.663  18.331  0.00  0.00    +0.000 A 
ATOM      3  C   UNL     1       3.360   6.607  17.108  0.00  0.00    +0.000 A 
ATOM      4  C   UNL     1       4.575   5.923  17.018  0.00  0.00    +0.000 A 
ATOM      5  C   UNL     1       5.337   5.777  15.778  0.00  0.00    +0.000 A 
ATOM      6  C   UNL     1       6.516   5.125  15.749  0.00  0.00    +0.000 A 
ATOM      7  C   UNL     1       7.094   4.580  17.001  0.00  0.00    +0.000 A 
ATOM      8  O   UNL     1       8.225   4.117  17.080  0.00  0.00    +0.000 OA
ATOM      9  O   UNL     1       6.288   4.625  18.138  0.00  0.00    +0.000 OA
ATOM     10  C   UNL     1       5.063   5.313  18.165  0.00  0.00    +0.000 A 
ATOM     11  C   UNL     1       4.385   5.351  19.383  0.00  0.00    +0.000 A 
ENDROOT
BRANCH   6  12
ATOM     12  C   UNL     1       7.200   5.003  14.425  0.00  0.00    +0.000 C 
ATOM     13  O   UNL     1       8.170   5.673  14.111  0.00  0.00    +0.000 OA
BRANCH  12  14
ATOM     14  O   UNL     1       6.585   4.115  13.597  0.00  0.00    +0.000 OA
ATOM     15  C   UNL     1       6.990   4.169  12.220  0.00  0.00    +0.000 C 
ENDBRANCH  12  14
ENDBRANCH   6  12
BRANCH   1  16
ATOM     16  O   UNL     1       2.415   6.107  20.606  0.00  0.00    +0.000 OA
BRANCH  16  17
ATOM     17  C   UNL     1       1.424   5.081  20.729  0.00  0.00    +0.000 C 
BRANCH  17  18
ATOM     18  C   UNL     1       1.987   3.956  21.589  0.00  0.00    +0.000 C 
BRANCH  18  19
ATOM     19  C   UNL     1       2.014   2.639  20.818  0.00  0.00    +0.000 C 
BRANCH  19  20
ATOM     20  C   UNL     1       1.188   2.738  19.541  0.00  0.00    +0.000 C 
BRANCH  20  22
ATOM     21  C   UNL     1       2.322   3.033  17.329  0.00  0.00    +0.000 C 
ATOM     22  C   UNL     1       1.888   2.032  18.383  0.00  0.00    +0.000 C 
ENDBRANCH  20  22
ENDBRANCH  19  20
ENDBRANCH  18  19
ENDBRANCH  17  18
ENDBRANCH  16  17
ENDBRANCH   1  16
TORSDOF 8
ENDMDL
MODEL 3
REMARK VINA RESULT:      -6.6      4.118      7.558
REMARK  Name = 
REMARK  10 active torsions:
REMARK  status: ('A' for Active; 'I' for Inactive)
REMARK    1  A    between atoms: C_1  and  C_2
REMARK    2  A    between atoms: C_2  and  C_3
REMARK    3  A    between atoms: C_3  and  C_4
REMARK    4  A    between atoms: C_4  and  C_5
REMARK    5  A    between atoms: C_5  and  C_6
REMARK    6  A    between atoms: C_6  and  O_7
REMARK    7  A    between atoms: O_7  and  C_8
REMARK    8  A    between atoms: C_13  and  C_14
REMARK    9  A    between atoms: C_14  and  O_16
REMARK   10  A    between atoms: O_16  and  C_17
REMARK                            x       y       z     vdW  Elec       q    Type
REMARK                         _______ _______ _______ _____ _____    ______ ____
ROOT
ATOM      1  C   UNL     1       6.752   6.693  17.401  0.00  0.00    +0.000 A 
ATOM      2  C   UNL     1       5.561   6.986  16.727  0.00  0.00    +0.000 A 
ATOM      3  C   UNL     1       4.403   6.218  16.947  0.00  0.00    +0.000 A 
ATOM      4  C   UNL     1       4.426   5.151  17.849  0.00  0.00    +0.000 A 
ATOM      5  C   UNL     1       3.258   4.332  18.171  0.00  0.00    +0.000 A 
ATOM      6  C   UNL     1       3.337   3.299  19.032  0.00  0.00    +0.000 A 
ATOM      7  C   UNL     1       4.642   2.938  19.639  0.00  0.00    +0.000 A 
ATOM      8  O   UNL     1       4.823   1.925  20.304  0.00  0.00    +0.000 OA
ATOM      9  O   UNL     1       5.705   3.810  19.412  0.00  0.00    +0.000 OA
ATOM     10  C   UNL     1       5.618   4.881  18.506  0.00  0.00    +0.000 A 
ATOM     11  C   UNL     1       6.773   5.637  18.307  0.00  0.00    +0.000 A 
ENDROOT
BRANCH   6  12
ATOM     12  C   UNL     1       2.079   2.545  19.319  0.00  0.00    +0.000 C 
ATOM     13  O   UNL     1       1.389   2.044  18.446  0.00  0.00    +0.000 OA
BRANCH  12  14
ATOM     14  O   UNL     1       1.761   2.538  20.642  0.00  0.00    +0.000 OA
ATOM     15  C   UNL     1       1.878   3.802  21.314  0.00  0.00    +0.000 C 
ENDBRANCH  12  14
ENDBRANCH   6  12
BRANCH   1  16
ATOM     16  O   UNL     1       7.814   7.522  17.160  0.00  0.00    +0.000 OA
BRANCH  16  17
ATOM     17  C   UNL     1       7.651   8.867  17.624  0.00  0.00    +0.000 C 
BRANCH  17  18
ATOM     18  C   UNL     1       8.750   9.173  18.635  0.00  0.00    +0.000 C 
BRANCH  18  19
ATOM     19  C   UNL     1       9.213  10.623  18.516  0.00  0.00    +0.000 C 
BRANCH  19  20
ATOM     20  C   UNL     1       9.995  11.048  19.753  0.00  0.00    +0.000 C 
BRANCH  20  22
ATOM     21  C   UNL     1      11.442  11.814  17.858  0.00  0.00    +0.000 C 
ATOM     22  C   UNL     1      11.338  11.661  19.365  0.00  0.00    +0.000 C 
ENDBRANCH  20  22
ENDBRANCH  19  20
ENDBRANCH  18  19
ENDBRANCH  17  18
ENDBRANCH  16  17
ENDBRANCH   1  16
TORSDOF 8
ENDMDL
MODEL 4
REMARK VINA RESULT:      -6.5      4.570      7.646
REMARK  Name = 
REMARK  10 active torsions:
REMARK  status: ('A' for Active; 'I' for Inactive)
REMARK    1  A    between atoms: C_1  and  C_2
REMARK    2  A    between atoms: C_2  and  C_3
REMARK    3  A    between atoms: C_3  and  C_4
REMARK    4  A    between atoms: C_4  and  C_5
REMARK    5  A    between atoms: C_5  and  C_6
REMARK    6  A    between atoms: C_6  and  O_7
REMARK    7  A    between atoms: O_7  and  C_8
REMARK    8  A    between atoms: C_13  and  C_14
REMARK    9  A    between atoms: C_14  and  O_16
REMARK   10  A    between atoms: O_16  and  C_17
REMARK                            x       y       z     vdW  Elec       q    Type
REMARK                         _______ _______ _______ _____ _____    ______ ____
ROOT
ATOM      1  C   UNL     1       7.390   6.986  18.160  0.00  0.00    +0.000 A 
ATOM      2  C   UNL     1       6.487   7.377  17.165  0.00  0.00    +0.000 A 
ATOM      3  C   UNL     1       5.308   6.644  16.937  0.00  0.00    +0.000 A 
ATOM      4  C   UNL     1       5.022   5.513  17.705  0.00  0.00    +0.000 A 
ATOM      5  C   UNL     1       3.800   4.721  17.565  0.00  0.00    +0.000 A 
ATOM      6  C   UNL     1       3.581   3.625  18.317  0.00  0.00    +0.000 A 
ATOM      7  C   UNL     1       4.613   3.167  19.279  0.00  0.00    +0.000 A 
ATOM      8  O   UNL     1       4.553   2.100  19.880  0.00  0.00    +0.000 OA
ATOM      9  O   UNL     1       5.706   4.009  19.479  0.00  0.00    +0.000 OA
ATOM     10  C   UNL     1       5.933   5.147  18.686  0.00  0.00    +0.000 A 
ATOM     11  C   UNL     1       7.101   5.867  18.933  0.00  0.00    +0.000 A 
ENDROOT
BRANCH   6  12
ATOM     12  C   UNL     1       2.286   2.904  18.120  0.00  0.00    +0.000 C 
ATOM     13  O   UNL     1       2.178   1.906  17.426  0.00  0.00    +0.000 OA
BRANCH  12  14
ATOM     14  O   UNL     1       1.243   3.518  18.742  0.00  0.00    +0.000 OA
ATOM     15  C   UNL     1       0.995   3.099  20.094  0.00  0.00    +0.000 C 
ENDBRANCH  12  14
ENDBRANCH   6  12
BRANCH   1  16
ATOM     16  O   UNL     1       8.486   7.786  18.343  0.00  0.00    +0.000 OA
BRANCH  16  17
ATOM     17  C   UNL     1       8.276   9.175  18.061  0.00  0.00    +0.000 C 
BRANCH  17  18
ATOM     18  C   UNL     1       9.145  10.002  19.002  0.00  0.00    +0.000 C 
BRANCH  18  19
ATOM     19  C   UNL     1       9.940  11.052  18.230  0.00  0.00    +0.000 C 
BRANCH  19  20
ATOM     20  C   UNL     1      11.043  11.647  19.097  0.00  0.00    +0.000 C 
BRANCH  20  22
ATOM     21  C   UNL     1      10.351  13.280  20.864  0.00  0.00    +0.000 C 
ATOM     22  C   UNL     1      10.572  11.814  20.539  0.00  0.00    +0.000 C 
ENDBRANCH  20  22
ENDBRANCH  19  20
ENDBRANCH  18  19
ENDBRANCH  17  18
ENDBRANCH  16  17
ENDBRANCH   1  16
TORSDOF 8
ENDMDL
MODEL 5
REMARK VINA RESULT:      -6.4      2.013      6.913
REMARK  Name = 
REMARK  10 active torsions:
REMARK  status: ('A' for Active; 'I' for Inactive)
REMARK    1  A    between atoms: C_1  and  C_2
REMARK    2  A    between atoms: C_2  and  C_3
REMARK    3  A    between atoms: C_3  and  C_4
REMARK    4  A    between atoms: C_4  and  C_5
REMARK    5  A    between atoms: C_5  and  C_6
REMARK    6  A    between atoms: C_6  and  O_7
REMARK    7  A    between atoms: O_7  and  C_8
REMARK    8  A    between atoms: C_13  and  C_14
REMARK    9  A    between atoms: C_14  and  O_16
REMARK   10  A    between atoms: O_16  and  C_17
REMARK                            x       y       z     vdW  Elec       q    Type
REMARK                         _______ _______ _______ _____ _____    ______ ____
ROOT
ATOM      1  C   UNL     1       5.644   5.284  15.243  0.00  0.00    +0.000 A 
ATOM      2  C   UNL     1       5.329   6.511  15.837  0.00  0.00    +0.000 A 
ATOM      3  C   UNL     1       4.469   6.571  16.949  0.00  0.00    +0.000 A 
ATOM      4  C   UNL     1       3.920   5.401  17.479  0.00  0.00    +0.000 A 
ATOM      5  C   UNL     1       3.056   5.368  18.659  0.00  0.00    +0.000 A 
ATOM      6  C   UNL     1       2.533   4.214  19.118  0.00  0.00    +0.000 A 
ATOM      7  C   UNL     1       2.789   2.944  18.394  0.00  0.00    +0.000 A 
ATOM      8  O   UNL     1       2.225   1.889  18.658  0.00  0.00    +0.000 OA
ATOM      9  O   UNL     1       3.714   2.988  17.352  0.00  0.00    +0.000 OA
ATOM     10  C   UNL     1       4.249   4.196  16.873  0.00  0.00    +0.000 A 
ATOM     11  C   UNL     1       5.107   4.117  15.776  0.00  0.00    +0.000 A 
ENDROOT
BRANCH   6  12
ATOM     12  C   UNL     1       1.689   4.284  20.349  0.00  0.00    +0.000 C 
ATOM     13  O   UNL     1       0.597   4.829  20.379  0.00  0.00    +0.000 OA
BRANCH  12  14
ATOM     14  O   UNL     1       2.298   3.735  21.435  0.00  0.00    +0.000 OA
ATOM     15  C   UNL     1       1.659   2.570  21.981  0.00  0.00    +0.000 C 
ENDBRANCH  12  14
ENDBRANCH   6  12
BRANCH   1  16
ATOM     16  O   UNL     1       6.526   5.317  14.196  0.00  0.00    +0.000 OA
BRANCH  16  17
ATOM     17  C   UNL     1       6.796   4.047  13.591  0.00  0.00    +0.000 C 
BRANCH  17  18
ATOM     18  C   UNL     1       6.988   4.249  12.093  0.00  0.00    +0.000 C 
BRANCH  18  19
ATOM     19  C   UNL     1       5.995   3.406  11.296  0.00  0.00    +0.000 C 
BRANCH  19  20
ATOM     20  C   UNL     1       4.630   3.386  11.973  0.00  0.00    +0.000 C 
BRANCH  20  22
ATOM     21  C   UNL     1       3.271   4.038   9.975  0.00  0.00    +0.000 C 
ATOM     22  C   UNL     1       3.543   2.948  10.996  0.00  0.00    +0.000 C 
ENDBRANCH  20  22
ENDBRANCH  19  20
ENDBRANCH  18  19
ENDBRANCH  17  18
ENDBRANCH  16  17
ENDBRANCH   1  16
TORSDOF 8
ENDMDL
MODEL 6
REMARK VINA RESULT:      -6.4      4.025      7.534
REMARK  Name = 
REMARK  10 active torsions:
REMARK  status: ('A' for Active; 'I' for Inactive)
REMARK    1  A    between atoms: C_1  and  C_2
REMARK    2  A    between atoms: C_2  and  C_3
REMARK    3  A    between atoms: C_3  and  C_4
REMARK    4  A    between atoms: C_4  and  C_5
REMARK    5  A    between atoms: C_5  and  C_6
REMARK    6  A    between atoms: C_6  and  O_7
REMARK    7  A    between atoms: O_7  and  C_8
REMARK    8  A    between atoms: C_13  and  C_14
REMARK    9  A    between atoms: C_14  and  O_16
REMARK   10  A    between atoms: O_16  and  C_17
REMARK                            x       y       z     vdW  Elec       q    Type
REMARK                         _______ _______ _______ _____ _____    ______ ____
ROOT
ATOM      1  C   UNL     1       6.014   6.837  17.445  0.00  0.00    +0.000 A 
ATOM      2  C   UNL     1       4.685   7.252  17.304  0.00  0.00    +0.000 A 
ATOM      3  C   UNL     1       3.636   6.511  17.877  0.00  0.00    +0.000 A 
ATOM      4  C   UNL     1       3.908   5.347  18.600  0.00  0.00    +0.000 A 
ATOM      5  C   UNL     1       2.883   4.544  19.266  0.00  0.00    +0.000 A 
ATOM      6  C   UNL     1       3.196   3.415  19.934  0.00  0.00    +0.000 A 
ATOM      7  C   UNL     1       4.600   2.936  19.963  0.00  0.00    +0.000 A 
ATOM      8  O   UNL     1       4.934   1.846  20.413  0.00  0.00    +0.000 OA
ATOM      9  O   UNL     1       5.567   3.786  19.429  0.00  0.00    +0.000 OA
ATOM     10  C   UNL     1       5.234   4.956  18.727  0.00  0.00    +0.000 A 
ATOM     11  C   UNL     1       6.288   5.684  18.174  0.00  0.00    +0.000 A 
ENDROOT
BRANCH   6  12
ATOM     12  C   UNL     1       2.080   2.684  20.607  0.00  0.00    +0.000 C 
ATOM     13  O   UNL     1       1.767   2.870  21.771  0.00  0.00    +0.000 OA
BRANCH  12  14
ATOM     14  O   UNL     1       1.502   1.752  19.800  0.00  0.00    +0.000 OA
ATOM     15  C   UNL     1       0.616   2.268  18.794  0.00  0.00    +0.000 C 
ENDBRANCH  12  14
ENDBRANCH   6  12
BRANCH   1  16
ATOM     16  O   UNL     1       6.972   7.645  16.895  0.00  0.00    +0.000 OA
BRANCH  16  17
ATOM     17  C   UNL     1       8.044   8.001  17.777  0.00  0.00    +0.000 C 
BRANCH  17  18
ATOM     18  C   UNL     1       8.176   9.519  17.798  0.00  0.00    +0.000 C 
BRANCH  18  19
ATOM     19  C   UNL     1       8.994   9.980  19.002  0.00  0.00    +0.000 C 
BRANCH  19  20
ATOM     20  C   UNL     1       9.934  11.117  18.619  0.00  0.00    +0.000 C 
BRANCH  20  22
ATOM     21  C   UNL     1      12.275  11.681  19.304  0.00  0.00    +0.000 C 
ATOM     22  C   UNL     1      10.848  11.483  19.785  0.00  0.00    +0.000 C 
ENDBRANCH  20  22
ENDBRANCH  19  20
ENDBRANCH  18  19
ENDBRANCH  17  18
ENDBRANCH  16  17
ENDBRANCH   1  16
TORSDOF 8
ENDMDL
MODEL 7
REMARK VINA RESULT:      -6.4      4.482      7.875
REMARK  Name = 
REMARK  10 active torsions:
REMARK  status: ('A' for Active; 'I' for Inactive)
REMARK    1  A    between atoms: C_1  and  C_2
REMARK    2  A    between atoms: C_2  and  C_3
REMARK    3  A    between atoms: C_3  and  C_4
REMARK    4  A    between atoms: C_4  and  C_5
REMARK    5  A    between atoms: C_5  and  C_6
REMARK    6  A    between atoms: C_6  and  O_7
REMARK    7  A    between atoms: O_7  and  C_8
REMARK    8  A    between atoms: C_13  and  C_14
REMARK    9  A    between atoms: C_14  and  O_16
REMARK   10  A    between atoms: O_16  and  C_17
REMARK                            x       y       z     vdW  Elec       q    Type
REMARK                         _______ _______ _______ _____ _____    ______ ____
ROOT
ATOM      1  C   UNL     1       7.080   7.201  17.695  0.00  0.00    +0.000 A 
ATOM      2  C   UNL     1       7.685   6.305  18.584  0.00  0.00    +0.000 A 
ATOM      3  C   UNL     1       6.974   5.199  19.083  0.00  0.00    +0.000 A 
ATOM      4  C   UNL     1       5.650   4.978  18.694  0.00  0.00    +0.000 A 
ATOM      5  C   UNL     1       4.855   3.830  19.129  0.00  0.00    +0.000 A 
ATOM      6  C   UNL     1       3.573   3.674  18.742  0.00  0.00    +0.000 A 
ATOM      7  C   UNL     1       2.923   4.705  17.896  0.00  0.00    +0.000 A 
ATOM      8  O   UNL     1       1.726   4.711  17.636  0.00  0.00    +0.000 OA
ATOM      9  O   UNL     1       3.740   5.718  17.397  0.00  0.00    +0.000 OA
ATOM     10  C   UNL     1       5.074   5.880  17.811  0.00  0.00    +0.000 A 
ATOM     11  C   UNL     1       5.766   6.977  17.298  0.00  0.00    +0.000 A 
ENDROOT
BRANCH   6  12
ATOM     12  C   UNL     1       2.857   2.450  19.215  0.00  0.00    +0.000 C 
ATOM     13  O   UNL     1       2.512   1.549  18.468  0.00  0.00    +0.000 OA
BRANCH  12  14
ATOM     14  O   UNL     1       2.581   2.486  20.547  0.00  0.00    +0.000 OA
ATOM     15  C   UNL     1       1.316   3.067  20.902  0.00  0.00    +0.000 C 
ENDBRANCH  12  14
ENDBRANCH   6  12
BRANCH   1  16
ATOM     16  O   UNL     1       7.863   8.221  17.224  0.00  0.00    +0.000 OA
BRANCH  16  17
ATOM     17  C   UNL     1       8.454   9.047  18.234  0.00  0.00    +0.000 C 
BRANCH  17  18
ATOM     18  C   UNL     1       8.519  10.480  17.719  0.00  0.00    +0.000 C 
BRANCH  18  19
ATOM     19  C   UNL     1       9.783  11.181  18.210  0.00  0.00    +0.000 C 
BRANCH  19  20
ATOM     20  C   UNL     1       9.980  10.966  19.706  0.00  0.00    +0.000 C 
BRANCH  20  22
ATOM     21  C   UNL     1      12.330  11.824  19.790  0.00  0.00    +0.000 C 
ATOM     22  C   UNL     1      10.911  12.024  20.290  0.00  0.00    +0.000 C 
ENDBRANCH  20  22
ENDBRANCH  19  20
ENDBRANCH  18  19
ENDBRANCH  17  18
ENDBRANCH  16  17
ENDBRANCH   1  16
TORSDOF 8
ENDMDL
MODEL 8
REMARK VINA RESULT:      -6.3      1.849      6.925
REMARK  Name = 
REMARK  10 active torsions:
REMARK  status: ('A' for Active; 'I' for Inactive)
REMARK    1  A    between atoms: C_1  and  C_2
REMARK    2  A    between atoms: C_2  and  C_3
REMARK    3  A    between atoms: C_3  and  C_4
REMARK    4  A    between atoms: C_4  and  C_5
REMARK    5  A    between atoms: C_5  and  C_6
REMARK    6  A    between atoms: C_6  and  O_7
REMARK    7  A    between atoms: O_7  and  C_8
REMARK    8  A    between atoms: C_13  and  C_14
REMARK    9  A    between atoms: C_14  and  O_16
REMARK   10  A    between atoms: O_16  and  C_17
REMARK                            x       y       z     vdW  Elec       q    Type
REMARK                         _______ _______ _______ _____ _____    ______ ____
ROOT
ATOM      1  C   UNL     1       6.436   4.191  15.652  0.00  0.00    +0.000 A 
ATOM      2  C   UNL     1       7.074   4.774  16.753  0.00  0.00    +0.000 A 
ATOM      3  C   UNL     1       6.364   5.035  17.939  0.00  0.00    +0.000 A 
ATOM      4  C   UNL     1       5.008   4.711  18.034  0.00  0.00    +0.000 A 
ATOM      5  C   UNL     1       4.208   4.906  19.243  0.00  0.00    +0.000 A 
ATOM      6  C   UNL     1       2.896   4.597  19.277  0.00  0.00    +0.000 A 
ATOM      7  C   UNL     1       2.221   4.094  18.056  0.00  0.00    +0.000 A 
ATOM      8  O   UNL     1       1.008   3.942  17.966  0.00  0.00    +0.000 OA
ATOM      9  O   UNL     1       3.033   3.801  16.961  0.00  0.00    +0.000 OA
ATOM     10  C   UNL     1       4.399   4.133  16.929  0.00  0.00    +0.000 A 
ATOM     11  C   UNL     1       5.089   3.859  15.749  0.00  0.00    +0.000 A 
ENDROOT
BRANCH   6  12
ATOM     12  C   UNL     1       2.175   4.803  20.570  0.00  0.00    +0.000 C 
ATOM     13  O   UNL     1       1.518   5.801  20.815  0.00  0.00    +0.000 OA
BRANCH  12  14
ATOM     14  O   UNL     1       2.386   3.791  21.455  0.00  0.00    +0.000 OA
ATOM     15  C   UNL     1       1.427   2.722  21.414  0.00  0.00    +0.000 C 
ENDBRANCH  12  14
ENDBRANCH   6  12
BRANCH   1  16
ATOM     16  O   UNL     1       7.216   3.930  14.557  0.00  0.00    +0.000 OA
BRANCH  16  17
ATOM     17  C   UNL     1       7.284   4.990  13.595  0.00  0.00    +0.000 C 
BRANCH  17  18
ATOM     18  C   UNL     1       6.720   4.486  12.272  0.00  0.00    +0.000 C 
BRANCH  18  19
ATOM     19  C   UNL     1       6.728   2.960  12.220  0.00  0.00    +0.000 C 
BRANCH  19  20
ATOM     20  C   UNL     1       5.458   2.431  11.565  0.00  0.00    +0.000 C 
BRANCH  20  22
ATOM     21  C   UNL     1       3.403   3.357  10.476  0.00  0.00    +0.000 C 
ATOM     22  C   UNL     1       4.323   3.444  11.680  0.00  0.00    +0.000 C 
ENDBRANCH  20  22
ENDBRANCH  19  20
ENDBRANCH  18  19
ENDBRANCH  17  18
ENDBRANCH  16  17
ENDBRANCH   1  16
TORSDOF 8
ENDMDL
MODEL 9
REMARK VINA RESULT:      -6.3      1.599      6.419
REMARK  Name = 
REMARK  10 active torsions:
REMARK  status: ('A' for Active; 'I' for Inactive)
REMARK    1  A    between atoms: C_1  and  C_2
REMARK    2  A    between atoms: C_2  and  C_3
REMARK    3  A    between atoms: C_3  and  C_4
REMARK    4  A    between atoms: C_4  and  C_5
REMARK    5  A    between atoms: C_5  and  C_6
REMARK    6  A    between atoms: C_6  and  O_7
REMARK    7  A    between atoms: O_7  and  C_8
REMARK    8  A    between atoms: C_13  and  C_14
REMARK    9  A    between atoms: C_14  and  O_16
REMARK   10  A    between atoms: O_16  and  C_17
REMARK                            x       y       z     vdW  Elec       q    Type
REMARK                         _______ _______ _______ _____ _____    ______ ____
ROOT
ATOM      1  C   UNL     1       6.368   5.659  16.487  0.00  0.00    +0.000 A 
ATOM      2  C   UNL     1       5.226   6.464  16.412  0.00  0.00    +0.000 A 
ATOM      3  C   UNL     1       4.129   6.237  17.263  0.00  0.00    +0.000 A 
ATOM      4  C   UNL     1       4.169   5.202  18.201  0.00  0.00    +0.000 A 
ATOM      5  C   UNL     1       3.094   4.926  19.154  0.00  0.00    +0.000 A 
ATOM      6  C   UNL     1       3.171   3.900  20.026  0.00  0.00    +0.000 A 
ATOM      7  C   UNL     1       4.343   2.991  19.999  0.00  0.00    +0.000 A 
ATOM      8  O   UNL     1       4.411   1.955  20.649  0.00  0.00    +0.000 OA
ATOM      9  O   UNL     1       5.403   3.354  19.170  0.00  0.00    +0.000 OA
ATOM     10  C   UNL     1       5.313   4.419  18.258  0.00  0.00    +0.000 A 
ATOM     11  C   UNL     1       6.413   4.636  17.428  0.00  0.00    +0.000 A 
ENDROOT
BRANCH   6  12
ATOM     12  C   UNL     1       2.034   3.723  20.980  0.00  0.00    +0.000 C 
ATOM     13  O   UNL     1       2.188   3.583  22.182  0.00  0.00    +0.000 OA
BRANCH  12  14
ATOM     14  O   UNL     1       0.827   3.670  20.353  0.00  0.00    +0.000 OA
ATOM     15  C   UNL     1       0.691   2.645  19.356  0.00  0.00    +0.000 C 
ENDBRANCH  12  14
ENDBRANCH   6  12
BRANCH   1  16
ATOM     16  O   UNL     1       7.404   5.984  15.653  0.00  0.00    +0.000 OA
BRANCH  16  17
ATOM     17  C   UNL     1       7.300   5.456  14.325  0.00  0.00    +0.000 C 
BRANCH  17  18
ATOM     18  C   UNL     1       6.756   4.035  14.404  0.00  0.00    +0.000 C 
BRANCH  18  19
ATOM     19  C   UNL     1       5.708   3.790  13.322  0.00  0.00    +0.000 C 
BRANCH  19  20
ATOM     20  C   UNL     1       6.356   3.272  12.043  0.00  0.00    +0.000 C 
BRANCH  20  22
ATOM     21  C   UNL     1       6.296   0.952  11.104  0.00  0.00    +0.000 C 
ATOM     22  C   UNL     1       5.486   2.204  11.386  0.00  0.00    +0.000 C 
ENDBRANCH  20  22
ENDBRANCH  19  20
ENDBRANCH  18  19
ENDBRANCH  17  18
ENDBRANCH  16  17
ENDBRANCH   1  16
TORSDOF 8
ENDMDL
