MODEL 1
REMARK VINA RESULT:      -7.3      0.000      0.000
REMARK  Name = 
REMARK  6 active torsions:
REMARK  status: ('A' for Active; 'I' for Inactive)
REMARK    1  A    between atoms: C_1  and  C_2
REMARK    2  A    between atoms: C_2  and  C_3
REMARK    3  A    between atoms: C_2  and  C_4
REMARK    4  A    between atoms: C_2  and  N_5
REMARK    5  A    between atoms: C_9  and  C_10
REMARK    6  A    between atoms: C_13  and  N_14
REMARK                            x       y       z     vdW  Elec       q    Type
REMARK                         _______ _______ _______ _____ _____    ______ ____
ROOT
ATOM      1  N   UNL     1       2.639   3.736  19.686  0.00  0.00    +0.000 NA
ATOM      2  C   UNL     1       1.867   4.848  20.258  0.00  0.00    +0.000 C 
ATOM      3  C   UNL     1       2.285   6.198  19.638  0.00  0.00    +0.000 C 
ATOM      4  O   UNL     1       3.677   6.484  19.693  0.00  0.00    +0.000 OA
ATOM      5  C   UNL     1       4.543   5.398  19.379  0.00  0.00    +0.000 C 
ATOM      6  C   UNL     1       4.068   4.018  19.918  0.00  0.00    +0.000 C 
ENDROOT
BRANCH   5   7
ATOM      7  C   UNL     1       5.086   5.339  17.950  0.00  0.00    +0.000 A 
ATOM      8  C   UNL     1       4.622   6.096  16.852  0.00  0.00    +0.000 A 
ATOM      9  C   UNL     1       5.232   5.952  15.589  0.00  0.00    +0.000 A 
ATOM     10  C   UNL     1       6.316   5.062  15.405  0.00  0.00    +0.000 A 
ATOM     11  C   UNL     1       6.781   4.338  16.506  0.00  0.00    +0.000 A 
ATOM     12  C   UNL     1       6.182   4.482  17.747  0.00  0.00    +0.000 A 
BRANCH  10  13
ATOM     13  N   UNL     1       6.947   4.894  14.139  0.00  0.00    +0.000 N 
ATOM     14  O   UNL     1       6.544   4.082  13.363  0.00  0.00    +0.000 OA
ATOM     15  O   UNL     1       7.992   5.629  13.807  0.00  0.00    +0.000 OA
ENDBRANCH  10  13
ENDBRANCH   5   7
BRANCH   1  17
ATOM     16  C   UNL     1       1.676   4.030  17.346  0.00  0.00    +0.000 C 
ATOM     17  C   UNL     1       2.116   3.048  18.449  0.00  0.00    +0.000 C 
ATOM     18  C   UNL     1       0.896   2.181  18.845  0.00  0.00    +0.000 C 
ATOM     19  C   UNL     1       3.149   2.081  17.830  0.00  0.00    +0.000 C 
ENDBRANCH   1  17
TORSDOF 3
ENDMDL
MODEL 2
REMARK VINA RESULT:      -7.1      0.148      1.223
REMARK  Name = 
REMARK  6 active torsions:
REMARK  status: ('A' for Active; 'I' for Inactive)
REMARK    1  A    between atoms: C_1  and  C_2
REMARK    2  A    between atoms: C_2  and  C_3
REMARK    3  A    between atoms: C_2  and  C_4
REMARK    4  A    between atoms: C_2  and  N_5
REMARK    5  A    between atoms: C_9  and  C_10
REMARK    6  A    between atoms: C_13  and  N_14
REMARK                            x       y       z     vdW  Elec       q    Type
REMARK                         _______ _______ _______ _____ _____    ______ ____
ROOT
ATOM      1  N   UNL     1       2.563   3.798  19.718  0.00  0.00    +0.000 NA
ATOM      2  C   UNL     1       1.785   4.915  20.272  0.00  0.00    +0.000 C 
ATOM      3  C   UNL     1       2.204   6.259  19.638  0.00  0.00    +0.000 C 
ATOM      4  O   UNL     1       3.595   6.548  19.699  0.00  0.00    +0.000 OA
ATOM      5  C   UNL     1       4.465   5.459  19.404  0.00  0.00    +0.000 C 
ATOM      6  C   UNL     1       3.989   4.085  19.956  0.00  0.00    +0.000 C 
ENDROOT
BRANCH   5   7
ATOM      7  C   UNL     1       5.019   5.385  17.979  0.00  0.00    +0.000 A 
ATOM      8  C   UNL     1       4.677   6.241  16.909  0.00  0.00    +0.000 A 
ATOM      9  C   UNL     1       5.282   6.065  15.647  0.00  0.00    +0.000 A 
ATOM     10  C   UNL     1       6.240   5.045  15.438  0.00  0.00    +0.000 A 
ATOM     11  C   UNL     1       6.586   4.222  16.513  0.00  0.00    +0.000 A 
ATOM     12  C   UNL     1       5.993   4.396  17.752  0.00  0.00    +0.000 A 
BRANCH  10  13
ATOM     13  N   UNL     1       6.863   4.845  14.172  0.00  0.00    +0.000 N 
ATOM     14  O   UNL     1       7.753   5.553  13.815  0.00  0.00    +0.000 OA
ATOM     15  O   UNL     1       6.458   3.877  13.371  0.00  0.00    +0.000 OA
ENDBRANCH  10  13
ENDBRANCH   5   7
BRANCH   1  17
ATOM     16  C   UNL     1       3.089   2.156  17.842  0.00  0.00    +0.000 C 
ATOM     17  C   UNL     1       2.050   3.094  18.486  0.00  0.00    +0.000 C 
ATOM     18  C   UNL     1       1.643   4.162  17.440  0.00  0.00    +0.000 C 
ATOM     19  C   UNL     1       0.779   2.261  18.768  0.00  0.00    +0.000 C 
ENDBRANCH   1  17
TORSDOF 3
ENDMDL
MODEL 3
REMARK VINA RESULT:      -7.0      0.450      1.197
REMARK  Name = 
REMARK  6 active torsions:
REMARK  status: ('A' for Active; 'I' for Inactive)
REMARK    1  A    between atoms: C_1  and  C_2
REMARK    2  A    between atoms: C_2  and  C_3
REMARK    3  A    between atoms: C_2  and  C_4
REMARK    4  A    between atoms: C_2  and  N_5
REMARK    5  A    between atoms: C_9  and  C_10
REMARK    6  A    between atoms: C_13  and  N_14
REMARK                            x       y       z     vdW  Elec       q    Type
REMARK                         _______ _______ _______ _____ _____    ______ ____
ROOT
ATOM      1  N   UNL     1       2.793   3.799  19.604  0.00  0.00    +0.000 NA
ATOM      2  C   UNL     1       1.818   4.877  19.822  0.00  0.00    +0.000 C 
ATOM      3  C   UNL     1       2.156   6.119  18.970  0.00  0.00    +0.000 C 
ATOM      4  O   UNL     1       3.481   6.613  19.120  0.00  0.00    +0.000 OA
ATOM      5  C   UNL     1       4.507   5.626  19.157  0.00  0.00    +0.000 C 
ATOM      6  C   UNL     1       4.128   4.331  19.931  0.00  0.00    +0.000 C 
ENDROOT
BRANCH   5   7
ATOM      7  C   UNL     1       5.255   5.358  17.849  0.00  0.00    +0.000 A 
ATOM      8  C   UNL     1       6.306   4.432  17.667  0.00  0.00    +0.000 A 
ATOM      9  C   UNL     1       6.894   4.277  16.395  0.00  0.00    +0.000 A 
ATOM     10  C   UNL     1       6.438   5.031  15.288  0.00  0.00    +0.000 A 
ATOM     11  C   UNL     1       5.380   5.924  15.478  0.00  0.00    +0.000 A 
ATOM     12  C   UNL     1       4.802   6.075  16.727  0.00  0.00    +0.000 A 
BRANCH  10  13
ATOM     13  N   UNL     1       7.017   4.895  13.993  0.00  0.00    +0.000 N 
ATOM     14  O   UNL     1       6.587   4.099  13.217  0.00  0.00    +0.000 OA
ATOM     15  O   UNL     1       8.044   5.644  13.636  0.00  0.00    +0.000 OA
ENDBRANCH  10  13
ENDBRANCH   5   7
BRANCH   1  17
ATOM     16  C   UNL     1       2.534   3.438  17.095  0.00  0.00    +0.000 C 
ATOM     17  C   UNL     1       2.540   2.802  18.499  0.00  0.00    +0.000 C 
ATOM     18  C   UNL     1       1.163   2.137  18.739  0.00  0.00    +0.000 C 
ATOM     19  C   UNL     1       3.577   1.656  18.490  0.00  0.00    +0.000 C 
ENDBRANCH   1  17
TORSDOF 3
ENDMDL
MODEL 4
REMARK VINA RESULT:      -6.8      0.321      1.483
REMARK  Name = 
REMARK  6 active torsions:
REMARK  status: ('A' for Active; 'I' for Inactive)
REMARK    1  A    between atoms: C_1  and  C_2
REMARK    2  A    between atoms: C_2  and  C_3
REMARK    3  A    between atoms: C_2  and  C_4
REMARK    4  A    between atoms: C_2  and  N_5
REMARK    5  A    between atoms: C_9  and  C_10
REMARK    6  A    between atoms: C_13  and  N_14
REMARK                            x       y       z     vdW  Elec       q    Type
REMARK                         _______ _______ _______ _____ _____    ______ ____
ROOT
ATOM      1  N   UNL     1       2.730   3.829  19.662  0.00  0.00    +0.000 NA
ATOM      2  C   UNL     1       1.825   4.953  19.940  0.00  0.00    +0.000 C 
ATOM      3  C   UNL     1       2.244   6.216  19.157  0.00  0.00    +0.000 C 
ATOM      4  O   UNL     1       3.597   6.616  19.332  0.00  0.00    +0.000 OA
ATOM      5  C   UNL     1       4.558   5.565  19.313  0.00  0.00    +0.000 C 
ATOM      6  C   UNL     1       4.096   4.256  20.016  0.00  0.00    +0.000 C 
ENDROOT
BRANCH   5   7
ATOM      7  C   UNL     1       5.290   5.322  17.992  0.00  0.00    +0.000 A 
ATOM      8  C   UNL     1       6.397   4.466  17.800  0.00  0.00    +0.000 A 
ATOM      9  C   UNL     1       6.963   4.325  16.515  0.00  0.00    +0.000 A 
ATOM     10  C   UNL     1       6.429   5.024  15.407  0.00  0.00    +0.000 A 
ATOM     11  C   UNL     1       5.318   5.847  15.608  0.00  0.00    +0.000 A 
ATOM     12  C   UNL     1       4.762   5.984  16.869  0.00  0.00    +0.000 A 
BRANCH  10  13
ATOM     13  N   UNL     1       6.984   4.902  14.101  0.00  0.00    +0.000 N 
ATOM     14  O   UNL     1       6.532   4.122  13.320  0.00  0.00    +0.000 OA
ATOM     15  O   UNL     1       8.013   5.645  13.737  0.00  0.00    +0.000 OA
ENDBRANCH  10  13
ENDBRANCH   5   7
BRANCH   1  17
ATOM     16  C   UNL     1       1.142   2.074  18.719  0.00  0.00    +0.000 C 
ATOM     17  C   UNL     1       2.417   2.913  18.505  0.00  0.00    +0.000 C 
ATOM     18  C   UNL     1       3.609   1.945  18.304  0.00  0.00    +0.000 C 
ATOM     19  C   UNL     1       2.255   3.679  17.173  0.00  0.00    +0.000 C 
ENDBRANCH   1  17
TORSDOF 3
ENDMDL
MODEL 5
REMARK VINA RESULT:      -6.8      2.345      3.536
REMARK  Name = 
REMARK  6 active torsions:
REMARK  status: ('A' for Active; 'I' for Inactive)
REMARK    1  A    between atoms: C_1  and  C_2
REMARK    2  A    between atoms: C_2  and  C_3
REMARK    3  A    between atoms: C_2  and  C_4
REMARK    4  A    between atoms: C_2  and  N_5
REMARK    5  A    between atoms: C_9  and  C_10
REMARK    6  A    between atoms: C_13  and  N_14
REMARK                            x       y       z     vdW  Elec       q    Type
REMARK                         _______ _______ _______ _____ _____    ______ ____
ROOT
ATOM      1  N   UNL     1       1.413   3.568  19.285  0.00  0.00    +0.000 NA
ATOM      2  C   UNL     1       1.213   2.167  18.889  0.00  0.00    +0.000 C 
ATOM      3  C   UNL     1       2.334   1.686  17.943  0.00  0.00    +0.000 C 
ATOM      4  O   UNL     1       2.547   2.498  16.795  0.00  0.00    +0.000 OA
ATOM      5  C   UNL     1       2.529   3.904  17.021  0.00  0.00    +0.000 C 
ATOM      6  C   UNL     1       1.465   4.378  18.053  0.00  0.00    +0.000 C 
ENDROOT
BRANCH   5   7
ATOM      7  C   UNL     1       3.884   4.594  17.184  0.00  0.00    +0.000 A 
ATOM      8  C   UNL     1       5.149   4.009  16.949  0.00  0.00    +0.000 A 
ATOM      9  C   UNL     1       6.321   4.774  17.124  0.00  0.00    +0.000 A 
ATOM     10  C   UNL     1       6.250   6.130  17.523  0.00  0.00    +0.000 A 
ATOM     11  C   UNL     1       4.991   6.702  17.726  0.00  0.00    +0.000 A 
ATOM     12  C   UNL     1       3.840   5.951  17.553  0.00  0.00    +0.000 A 
BRANCH  10  13
ATOM     13  N   UNL     1       7.419   6.922  17.710  0.00  0.00    +0.000 N 
ATOM     14  O   UNL     1       7.739   7.732  16.895  0.00  0.00    +0.000 OA
ATOM     15  O   UNL     1       8.170   6.766  18.784  0.00  0.00    +0.000 OA
ENDBRANCH  10  13
ENDBRANCH   5   7
BRANCH   1  17
ATOM     16  C   UNL     1       3.711   3.436  20.377  0.00  0.00    +0.000 C 
ATOM     17  C   UNL     1       2.238   3.867  20.512  0.00  0.00    +0.000 C 
ATOM     18  C   UNL     1       1.620   3.115  21.717  0.00  0.00    +0.000 C 
ATOM     19  C   UNL     1       2.221   5.366  20.885  0.00  0.00    +0.000 C 
ENDBRANCH   1  17
TORSDOF 3
ENDMDL
MODEL 6
REMARK VINA RESULT:      -6.7      0.404      1.719
REMARK  Name = 
REMARK  6 active torsions:
REMARK  status: ('A' for Active; 'I' for Inactive)
REMARK    1  A    between atoms: C_1  and  C_2
REMARK    2  A    between atoms: C_2  and  C_3
REMARK    3  A    between atoms: C_2  and  C_4
REMARK    4  A    between atoms: C_2  and  N_5
REMARK    5  A    between atoms: C_9  and  C_10
REMARK    6  A    between atoms: C_13  and  N_14
REMARK                            x       y       z     vdW  Elec       q    Type
REMARK                         _______ _______ _______ _____ _____    ______ ____
ROOT
ATOM      1  N   UNL     1       2.776   3.825  19.625  0.00  0.00    +0.000 NA
ATOM      2  C   UNL     1       1.814   4.913  19.847  0.00  0.00    +0.000 C 
ATOM      3  C   UNL     1       2.168   6.155  19.003  0.00  0.00    +0.000 C 
ATOM      4  O   UNL     1       3.498   6.634  19.158  0.00  0.00    +0.000 OA
ATOM      5  C   UNL     1       4.513   5.634  19.191  0.00  0.00    +0.000 C 
ATOM      6  C   UNL     1       4.118   4.339  19.957  0.00  0.00    +0.000 C 
ENDROOT
BRANCH   5   7
ATOM      7  C   UNL     1       5.260   5.365  17.883  0.00  0.00    +0.000 A 
ATOM      8  C   UNL     1       6.307   4.435  17.700  0.00  0.00    +0.000 A 
ATOM      9  C   UNL     1       6.895   4.279  16.427  0.00  0.00    +0.000 A 
ATOM     10  C   UNL     1       6.442   5.037  15.322  0.00  0.00    +0.000 A 
ATOM     11  C   UNL     1       5.388   5.935  15.513  0.00  0.00    +0.000 A 
ATOM     12  C   UNL     1       4.811   6.086  16.763  0.00  0.00    +0.000 A 
BRANCH  10  13
ATOM     13  N   UNL     1       7.022   4.901  14.027  0.00  0.00    +0.000 N 
ATOM     14  O   UNL     1       7.943   5.583  13.701  0.00  0.00    +0.000 OA
ATOM     15  O   UNL     1       6.542   4.022  13.166  0.00  0.00    +0.000 OA
ENDBRANCH  10  13
ENDBRANCH   5   7
BRANCH   1  17
ATOM     16  C   UNL     1       3.615   1.768  18.377  0.00  0.00    +0.000 C 
ATOM     17  C   UNL     1       2.515   2.838  18.514  0.00  0.00    +0.000 C 
ATOM     18  C   UNL     1       2.420   3.613  17.176  0.00  0.00    +0.000 C 
ATOM     19  C   UNL     1       1.166   2.103  18.682  0.00  0.00    +0.000 C 
ENDBRANCH   1  17
TORSDOF 3
ENDMDL
MODEL 7
REMARK VINA RESULT:      -6.7      2.417      3.432
REMARK  Name = 
REMARK  6 active torsions:
REMARK  status: ('A' for Active; 'I' for Inactive)
REMARK    1  A    between atoms: C_1  and  C_2
REMARK    2  A    between atoms: C_2  and  C_3
REMARK    3  A    between atoms: C_2  and  C_4
REMARK    4  A    between atoms: C_2  and  N_5
REMARK    5  A    between atoms: C_9  and  C_10
REMARK    6  A    between atoms: C_13  and  N_14
REMARK                            x       y       z     vdW  Elec       q    Type
REMARK                         _______ _______ _______ _____ _____    ______ ____
ROOT
ATOM      1  N   UNL     1       1.551   3.330  19.218  0.00  0.00    +0.000 NA
ATOM      2  C   UNL     1       1.738   1.883  19.042  0.00  0.00    +0.000 C 
ATOM      3  C   UNL     1       3.066   1.575  18.318  0.00  0.00    +0.000 C 
ATOM      4  O   UNL     1       3.252   2.251  17.081  0.00  0.00    +0.000 OA
ATOM      5  C   UNL     1       2.878   3.626  17.067  0.00  0.00    +0.000 C 
ATOM      6  C   UNL     1       1.595   3.953  17.883  0.00  0.00    +0.000 C 
ENDROOT
BRANCH   5   7
ATOM      7  C   UNL     1       4.000   4.648  17.260  0.00  0.00    +0.000 A 
ATOM      8  C   UNL     1       3.834   6.035  17.470  0.00  0.00    +0.000 A 
ATOM      9  C   UNL     1       4.964   6.860  17.650  0.00  0.00    +0.000 A 
ATOM     10  C   UNL     1       6.270   6.314  17.634  0.00  0.00    +0.000 A 
ATOM     11  C   UNL     1       6.417   4.937  17.450  0.00  0.00    +0.000 A 
ATOM     12  C   UNL     1       5.306   4.127  17.275  0.00  0.00    +0.000 A 
BRANCH  10  13
ATOM     13  N   UNL     1       7.427   7.126  17.810  0.00  0.00    +0.000 N 
ATOM     14  O   UNL     1       8.204   6.893  18.684  0.00  0.00    +0.000 OA
ATOM     15  O   UNL     1       7.654   8.153  17.012  0.00  0.00    +0.000 OA
ENDBRANCH  10  13
ENDBRANCH   5   7
BRANCH   1  17
ATOM     16  C   UNL     1       3.635   3.997  20.522  0.00  0.00    +0.000 C 
ATOM     17  C   UNL     1       2.096   3.988  20.462  0.00  0.00    +0.000 C 
ATOM     18  C   UNL     1       1.564   3.223  21.699  0.00  0.00    +0.000 C 
ATOM     19  C   UNL     1       1.612   5.447  20.619  0.00  0.00    +0.000 C 
ENDBRANCH   1  17
TORSDOF 3
ENDMDL
MODEL 8
REMARK VINA RESULT:      -6.6      2.382      3.415
REMARK  Name = 
REMARK  6 active torsions:
REMARK  status: ('A' for Active; 'I' for Inactive)
REMARK    1  A    between atoms: C_1  and  C_2
REMARK    2  A    between atoms: C_2  and  C_3
REMARK    3  A    between atoms: C_2  and  C_4
REMARK    4  A    between atoms: C_2  and  N_5
REMARK    5  A    between atoms: C_9  and  C_10
REMARK    6  A    between atoms: C_13  and  N_14
REMARK                            x       y       z     vdW  Elec       q    Type
REMARK                         _______ _______ _______ _____ _____    ______ ____
ROOT
ATOM      1  N   UNL     1       1.490   3.370  19.251  0.00  0.00    +0.000 NA
ATOM      2  C   UNL     1       1.633   1.922  19.040  0.00  0.00    +0.000 C 
ATOM      3  C   UNL     1       2.928   1.594  18.266  0.00  0.00    +0.000 C 
ATOM      4  O   UNL     1       3.093   2.291  17.038  0.00  0.00    +0.000 OA
ATOM      5  C   UNL     1       2.756   3.675  17.064  0.00  0.00    +0.000 C 
ATOM      6  C   UNL     1       1.508   4.019  17.927  0.00  0.00    +0.000 C 
ENDROOT
BRANCH   5   7
ATOM      7  C   UNL     1       3.911   4.663  17.241  0.00  0.00    +0.000 A 
ATOM      8  C   UNL     1       3.789   6.045  17.507  0.00  0.00    +0.000 A 
ATOM      9  C   UNL     1       4.947   6.836  17.664  0.00  0.00    +0.000 A 
ATOM     10  C   UNL     1       6.236   6.261  17.570  0.00  0.00    +0.000 A 
ATOM     11  C   UNL     1       6.340   4.888  17.331  0.00  0.00    +0.000 A 
ATOM     12  C   UNL     1       5.203   4.111  17.178  0.00  0.00    +0.000 A 
BRANCH  10  13
ATOM     13  N   UNL     1       7.421   7.038  17.720  0.00  0.00    +0.000 N 
ATOM     14  O   UNL     1       7.711   7.864  16.911  0.00  0.00    +0.000 OA
ATOM     15  O   UNL     1       8.219   6.851  18.755  0.00  0.00    +0.000 OA
ENDBRANCH  10  13
ENDBRANCH   5   7
BRANCH   1  17
ATOM     16  C   UNL     1       1.773   5.487  20.640  0.00  0.00    +0.000 C 
ATOM     17  C   UNL     1       2.092   3.986  20.490  0.00  0.00    +0.000 C 
ATOM     18  C   UNL     1       3.630   3.819  20.428  0.00  0.00    +0.000 C 
ATOM     19  C   UNL     1       1.633   3.279  21.784  0.00  0.00    +0.000 C 
ENDBRANCH   1  17
TORSDOF 3
ENDMDL
MODEL 9
REMARK VINA RESULT:      -6.5      2.280      3.381
REMARK  Name = 
REMARK  6 active torsions:
REMARK  status: ('A' for Active; 'I' for Inactive)
REMARK    1  A    between atoms: C_1  and  C_2
REMARK    2  A    between atoms: C_2  and  C_3
REMARK    3  A    between atoms: C_2  and  C_4
REMARK    4  A    between atoms: C_2  and  N_5
REMARK    5  A    between atoms: C_9  and  C_10
REMARK    6  A    between atoms: C_13  and  N_14
REMARK                            x       y       z     vdW  Elec       q    Type
REMARK                         _______ _______ _______ _____ _____    ______ ____
ROOT
ATOM      1  N   UNL     1       1.467   3.311  19.472  0.00  0.00    +0.000 NA
ATOM      2  C   UNL     1       1.408   1.933  18.964  0.00  0.00    +0.000 C 
ATOM      3  C   UNL     1       2.507   1.677  17.910  0.00  0.00    +0.000 C 
ATOM      4  O   UNL     1       2.537   2.600  16.830  0.00  0.00    +0.000 OA
ATOM      5  C   UNL     1       2.369   3.970  17.185  0.00  0.00    +0.000 C 
ATOM      6  C   UNL     1       1.333   4.220  18.319  0.00  0.00    +0.000 C 
ENDROOT
BRANCH   5   7
ATOM      7  C   UNL     1       3.641   4.808  17.326  0.00  0.00    +0.000 A 
ATOM      8  C   UNL     1       3.699   6.188  17.624  0.00  0.00    +0.000 A 
ATOM      9  C   UNL     1       4.949   6.831  17.741  0.00  0.00    +0.000 A 
ATOM     10  C   UNL     1       6.154   6.108  17.574  0.00  0.00    +0.000 A 
ATOM     11  C   UNL     1       6.081   4.739  17.305  0.00  0.00    +0.000 A 
ATOM     12  C   UNL     1       4.853   4.108  17.191  0.00  0.00    +0.000 A 
BRANCH  10  13
ATOM     13  N   UNL     1       7.429   6.735  17.684  0.00  0.00    +0.000 N 
ATOM     14  O   UNL     1       8.049   6.673  18.700  0.00  0.00    +0.000 OA
ATOM     15  O   UNL     1       7.939   7.400  16.664  0.00  0.00    +0.000 OA
ENDBRANCH  10  13
ENDBRANCH   5   7
BRANCH   1  17
ATOM     16  C   UNL     1       1.821   2.965  21.971  0.00  0.00    +0.000 C 
ATOM     17  C   UNL     1       2.337   3.607  20.669  0.00  0.00    +0.000 C 
ATOM     18  C   UNL     1       2.393   5.142  20.871  0.00  0.00    +0.000 C 
ATOM     19  C   UNL     1       3.798   3.146  20.466  0.00  0.00    +0.000 C 
ENDBRANCH   1  17
TORSDOF 3
ENDMDL
