MODEL 1
REMARK VINA RESULT:      -7.2      0.000      0.000
REMARK  Name = 
REMARK  7 active torsions:
REMARK  status: ('A' for Active; 'I' for Inactive)
REMARK    1  A    between atoms: C_1  and  C_2
REMARK    2  A    between atoms: C_7  and  C_8
REMARK    3  A    between atoms: C_8  and  N_9
REMARK    4  A    between atoms: C_10  and  C_12
REMARK    5  A    between atoms: C_12  and  C_13
REMARK    6  A    between atoms: C_13  and  C_14
REMARK    7  A    between atoms: N_21  and  C_22
REMARK                            x       y       z     vdW  Elec       q    Type
REMARK                         _______ _______ _______ _____ _____    ______ ____
ROOT
ATOM      1  N   UNL     1       2.232   5.405  21.187  0.00  0.00    +0.000 N 
ATOM      2  C   UNL     1       1.712   4.174  20.837  0.00  0.00    +0.000 C 
ATOM      3  O   UNL     1       0.585   4.017  20.364  0.00  0.00    +0.000 OA
ATOM      4  H   UNL     1       3.123   5.449  21.659  0.00  0.00    +0.000 HD
ENDROOT
BRANCH   1   5
ATOM      5  C   UNL     1       1.490   6.646  21.052  0.00  0.00    +0.000 C 
BRANCH   5  12
ATOM      6  C   UNL     1       0.475   9.456  20.384  0.00  0.00    +0.000 C 
ATOM      7  C   UNL     1       1.443   8.713  19.502  0.00  0.00    +0.000 A 
ATOM      8  C   UNL     1       1.849   9.324  18.304  0.00  0.00    +0.000 A 
ATOM      9  C   UNL     1       2.731   8.685  17.431  0.00  0.00    +0.000 A 
ATOM     10  C   UNL     1       3.213   7.420  17.744  0.00  0.00    +0.000 A 
ATOM     11  C   UNL     1       2.814   6.795  18.927  0.00  0.00    +0.000 A 
ATOM     12  C   UNL     1       1.920   7.423  19.824  0.00  0.00    +0.000 A 
ENDBRANCH   5  12
ENDBRANCH   1   5
BRANCH   2  13
ATOM     13  C   UNL     1       2.644   3.029  21.145  0.00  0.00    +0.000 C 
BRANCH  13  14
ATOM     14  C   UNL     1       3.044   2.198  19.916  0.00  0.00    +0.000 C 
BRANCH  14  15
ATOM     15  C   UNL     1       3.668   3.127  18.894  0.00  0.00    +0.000 A 
ATOM     16  C   UNL     1       3.185   3.218  17.586  0.00  0.00    +0.000 A 
ATOM     17  C   UNL     1       3.944   3.818  16.564  0.00  0.00    +0.000 A 
ATOM     18  C   UNL     1       5.239   4.262  16.886  0.00  0.00    +0.000 A 
ATOM     19  C   UNL     1       5.702   4.251  18.208  0.00  0.00    +0.000 A 
ATOM     20  C   UNL     1       7.036   4.729  18.209  0.00  0.00    +0.000 A 
ATOM     21  C   UNL     1       7.416   4.847  16.893  0.00  0.00    +0.000 A 
ATOM     22  N   UNL     1       6.281   4.748  16.126  0.00  0.00    +0.000 N 
ATOM     23  C   UNL     1       6.271   5.137  14.735  0.00  0.00    +0.000 C 
ATOM     24  C   UNL     1       4.879   3.742  19.229  0.00  0.00    +0.000 A 
ENDBRANCH  14  15
ENDBRANCH  13  14
ENDBRANCH   2  13
TORSDOF 5
ENDMDL
MODEL 2
REMARK VINA RESULT:      -7.2      0.971      1.690
REMARK  Name = 
REMARK  7 active torsions:
REMARK  status: ('A' for Active; 'I' for Inactive)
REMARK    1  A    between atoms: C_1  and  C_2
REMARK    2  A    between atoms: C_7  and  C_8
REMARK    3  A    between atoms: C_8  and  N_9
REMARK    4  A    between atoms: C_10  and  C_12
REMARK    5  A    between atoms: C_12  and  C_13
REMARK    6  A    between atoms: C_13  and  C_14
REMARK    7  A    between atoms: N_21  and  C_22
REMARK                            x       y       z     vdW  Elec       q    Type
REMARK                         _______ _______ _______ _____ _____    ______ ____
ROOT
ATOM      1  N   UNL     1       2.337   5.170  20.974  0.00  0.00    +0.000 N 
ATOM      2  C   UNL     1       1.729   4.015  20.521  0.00  0.00    +0.000 C 
ATOM      3  O   UNL     1       0.539   3.945  20.210  0.00  0.00    +0.000 OA
ATOM      4  H   UNL     1       3.290   5.131  21.303  0.00  0.00    +0.000 HD
ENDROOT
BRANCH   1   5
ATOM      5  C   UNL     1       1.624   6.423  21.152  0.00  0.00    +0.000 C 
BRANCH   5  12
ATOM      6  C   UNL     1       0.408   9.226  20.979  0.00  0.00    +0.000 C 
ATOM      7  C   UNL     1       1.285   8.656  19.897  0.00  0.00    +0.000 A 
ATOM      8  C   UNL     1       1.506   9.431  18.746  0.00  0.00    +0.000 A 
ATOM      9  C   UNL     1       2.295   8.957  17.697  0.00  0.00    +0.000 A 
ATOM     10  C   UNL     1       2.869   7.694  17.784  0.00  0.00    +0.000 A 
ATOM     11  C   UNL     1       2.655   6.908  18.918  0.00  0.00    +0.000 A 
ATOM     12  C   UNL     1       1.857   7.368  19.990  0.00  0.00    +0.000 A 
ENDBRANCH   5  12
ENDBRANCH   1   5
BRANCH   2  13
ATOM     13  C   UNL     1       2.659   2.828  20.497  0.00  0.00    +0.000 C 
BRANCH  13  14
ATOM     14  C   UNL     1       3.041   2.358  19.084  0.00  0.00    +0.000 C 
BRANCH  14  15
ATOM     15  C   UNL     1       4.188   3.215  18.591  0.00  0.00    +0.000 A 
ATOM     16  C   UNL     1       5.066   3.854  19.472  0.00  0.00    +0.000 A 
ATOM     17  C   UNL     1       5.913   4.891  19.040  0.00  0.00    +0.000 A 
ATOM     18  C   UNL     1       5.798   5.316  17.705  0.00  0.00    +0.000 A 
ATOM     19  C   UNL     1       4.984   4.633  16.793  0.00  0.00    +0.000 A 
ATOM     20  C   UNL     1       5.055   5.308  15.549  0.00  0.00    +0.000 A 
ATOM     21  C   UNL     1       5.755   6.471  15.770  0.00  0.00    +0.000 A 
ATOM     22  N   UNL     1       6.347   6.368  17.003  0.00  0.00    +0.000 N 
ATOM     23  C   UNL     1       7.399   7.268  17.416  0.00  0.00    +0.000 C 
ATOM     24  C   UNL     1       4.226   3.530  17.227  0.00  0.00    +0.000 A 
ENDBRANCH  14  15
ENDBRANCH  13  14
ENDBRANCH   2  13
TORSDOF 5
ENDMDL
MODEL 3
REMARK VINA RESULT:      -7.1      2.006      5.629
REMARK  Name = 
REMARK  7 active torsions:
REMARK  status: ('A' for Active; 'I' for Inactive)
REMARK    1  A    between atoms: C_1  and  C_2
REMARK    2  A    between atoms: C_7  and  C_8
REMARK    3  A    between atoms: C_8  and  N_9
REMARK    4  A    between atoms: C_10  and  C_12
REMARK    5  A    between atoms: C_12  and  C_13
REMARK    6  A    between atoms: C_13  and  C_14
REMARK    7  A    between atoms: N_21  and  C_22
REMARK                            x       y       z     vdW  Elec       q    Type
REMARK                         _______ _______ _______ _____ _____    ______ ____
ROOT
ATOM      1  N   UNL     1       4.593   3.655  17.723  0.00  0.00    +0.000 N 
ATOM      2  C   UNL     1       4.386   3.225  19.019  0.00  0.00    +0.000 C 
ATOM      3  O   UNL     1       5.295   2.950  19.803  0.00  0.00    +0.000 OA
ATOM      4  H   UNL     1       3.803   3.768  17.107  0.00  0.00    +0.000 HD
ENDROOT
BRANCH   1   5
ATOM      5  C   UNL     1       5.916   3.807  17.141  0.00  0.00    +0.000 C 
BRANCH   5  12
ATOM      6  C   UNL     1       5.185   6.408  15.704  0.00  0.00    +0.000 C 
ATOM      7  C   UNL     1       6.204   6.353  16.811  0.00  0.00    +0.000 A 
ATOM      8  C   UNL     1       6.873   7.540  17.154  0.00  0.00    +0.000 A 
ATOM      9  C   UNL     1       7.841   7.557  18.159  0.00  0.00    +0.000 A 
ATOM     10  C   UNL     1       8.157   6.382  18.831  0.00  0.00    +0.000 A 
ATOM     11  C   UNL     1       7.506   5.192  18.498  0.00  0.00    +0.000 A 
ATOM     12  C   UNL     1       6.525   5.153  17.482  0.00  0.00    +0.000 A 
ENDBRANCH   5  12
ENDBRANCH   1   5
BRANCH   2  13
ATOM     13  C   UNL     1       2.925   3.072  19.364  0.00  0.00    +0.000 C 
BRANCH  13  14
ATOM     14  C   UNL     1       1.989   3.977  18.549  0.00  0.00    +0.000 C 
BRANCH  14  15
ATOM     15  C   UNL     1       2.085   5.385  19.103  0.00  0.00    +0.000 A 
ATOM     16  C   UNL     1       1.655   5.701  20.394  0.00  0.00    +0.000 A 
ATOM     17  C   UNL     1       1.441   7.034  20.790  0.00  0.00    +0.000 A 
ATOM     18  C   UNL     1       1.606   8.039  19.820  0.00  0.00    +0.000 A 
ATOM     19  C   UNL     1       2.115   7.744  18.548  0.00  0.00    +0.000 A 
ATOM     20  C   UNL     1       2.140   8.944  17.797  0.00  0.00    +0.000 A 
ATOM     21  C   UNL     1       1.489   9.895  18.546  0.00  0.00    +0.000 A 
ATOM     22  N   UNL     1       1.348   9.393  19.816  0.00  0.00    +0.000 N 
ATOM     23  C   UNL     1       0.992  10.240  20.931  0.00  0.00    +0.000 C 
ATOM     24  C   UNL     1       2.422   6.412  18.214  0.00  0.00    +0.000 A 
ENDBRANCH  14  15
ENDBRANCH  13  14
ENDBRANCH   2  13
TORSDOF 5
ENDMDL
MODEL 4
REMARK VINA RESULT:      -7.1      1.955      6.119
REMARK  Name = 
REMARK  7 active torsions:
REMARK  status: ('A' for Active; 'I' for Inactive)
REMARK    1  A    between atoms: C_1  and  C_2
REMARK    2  A    between atoms: C_7  and  C_8
REMARK    3  A    between atoms: C_8  and  N_9
REMARK    4  A    between atoms: C_10  and  C_12
REMARK    5  A    between atoms: C_12  and  C_13
REMARK    6  A    between atoms: C_13  and  C_14
REMARK    7  A    between atoms: N_21  and  C_22
REMARK                            x       y       z     vdW  Elec       q    Type
REMARK                         _______ _______ _______ _____ _____    ______ ____
ROOT
ATOM      1  N   UNL     1       4.491   3.471  17.618  0.00  0.00    +0.000 N 
ATOM      2  C   UNL     1       5.405   4.344  18.173  0.00  0.00    +0.000 C 
ATOM      3  O   UNL     1       5.949   4.163  19.263  0.00  0.00    +0.000 OA
ATOM      4  H   UNL     1       4.013   3.731  16.768  0.00  0.00    +0.000 HD
ENDROOT
BRANCH   1   5
ATOM      5  C   UNL     1       4.056   2.252  18.278  0.00  0.00    +0.000 C 
BRANCH   5  12
ATOM      6  C   UNL     1       1.302   3.465  17.720  0.00  0.00    +0.000 C 
ATOM      7  C   UNL     1       1.766   3.112  19.109  0.00  0.00    +0.000 A 
ATOM      8  C   UNL     1       0.911   3.402  20.185  0.00  0.00    +0.000 A 
ATOM      9  C   UNL     1       1.284   3.117  21.500  0.00  0.00    +0.000 A 
ATOM     10  C   UNL     1       2.524   2.543  21.754  0.00  0.00    +0.000 A 
ATOM     11  C   UNL     1       3.389   2.255  20.696  0.00  0.00    +0.000 A 
ATOM     12  C   UNL     1       3.031   2.538  19.358  0.00  0.00    +0.000 A 
ENDBRANCH   5  12
ENDBRANCH   1   5
BRANCH   2  13
ATOM     13  C   UNL     1       5.633   5.576  17.332  0.00  0.00    +0.000 C 
BRANCH  13  14
ATOM     14  C   UNL     1       4.349   6.180  16.743  0.00  0.00    +0.000 C 
BRANCH  14  15
ATOM     15  C   UNL     1       3.651   6.970  17.832  0.00  0.00    +0.000 A 
ATOM     16  C   UNL     1       3.242   6.376  19.029  0.00  0.00    +0.000 A 
ATOM     17  C   UNL     1       2.324   7.009  19.886  0.00  0.00    +0.000 A 
ATOM     18  C   UNL     1       1.773   8.232  19.466  0.00  0.00    +0.000 A 
ATOM     19  C   UNL     1       2.233   8.877  18.310  0.00  0.00    +0.000 A 
ATOM     20  C   UNL     1       1.475  10.061  18.136  0.00  0.00    +0.000 A 
ATOM     21  C   UNL     1       0.464  10.024  19.068  0.00  0.00    +0.000 A 
ATOM     22  N   UNL     1       0.768   9.032  19.967  0.00  0.00    +0.000 N 
ATOM     23  C   UNL     1       0.090   8.928  21.238  0.00  0.00    +0.000 C 
ATOM     24  C   UNL     1       3.231   8.270  17.526  0.00  0.00    +0.000 A 
ENDBRANCH  14  15
ENDBRANCH  13  14
ENDBRANCH   2  13
TORSDOF 5
ENDMDL
MODEL 5
REMARK VINA RESULT:      -7.1      1.334      2.105
REMARK  Name = 
REMARK  7 active torsions:
REMARK  status: ('A' for Active; 'I' for Inactive)
REMARK    1  A    between atoms: C_1  and  C_2
REMARK    2  A    between atoms: C_7  and  C_8
REMARK    3  A    between atoms: C_8  and  N_9
REMARK    4  A    between atoms: C_10  and  C_12
REMARK    5  A    between atoms: C_12  and  C_13
REMARK    6  A    between atoms: C_13  and  C_14
REMARK    7  A    between atoms: N_21  and  C_22
REMARK                            x       y       z     vdW  Elec       q    Type
REMARK                         _______ _______ _______ _____ _____    ______ ____
ROOT
ATOM      1  N   UNL     1       1.835   5.393  19.270  0.00  0.00    +0.000 N 
ATOM      2  C   UNL     1       1.385   4.130  19.603  0.00  0.00    +0.000 C 
ATOM      3  O   UNL     1       1.145   3.771  20.756  0.00  0.00    +0.000 OA
ATOM      4  H   UNL     1       2.104   5.587  18.317  0.00  0.00    +0.000 HD
ENDROOT
BRANCH   1   5
ATOM      5  C   UNL     1       2.096   6.427  20.257  0.00  0.00    +0.000 C 
BRANCH   5  12
ATOM      6  C   UNL     1       0.718   8.674  21.813  0.00  0.00    +0.000 C 
ATOM      7  C   UNL     1       1.203   8.848  20.398  0.00  0.00    +0.000 A 
ATOM      8  C   UNL     1       0.964  10.077  19.763  0.00  0.00    +0.000 A 
ATOM      9  C   UNL     1       1.371  10.301  18.447  0.00  0.00    +0.000 A 
ATOM     10  C   UNL     1       2.019   9.290  17.746  0.00  0.00    +0.000 A 
ATOM     11  C   UNL     1       2.259   8.060  18.360  0.00  0.00    +0.000 A 
ATOM     12  C   UNL     1       1.853   7.812  19.691  0.00  0.00    +0.000 A 
ENDBRANCH   5  12
ENDBRANCH   1   5
BRANCH   2  13
ATOM     13  C   UNL     1       1.267   3.212  18.412  0.00  0.00    +0.000 C 
BRANCH  13  14
ATOM     14  C   UNL     1       2.416   2.200  18.283  0.00  0.00    +0.000 C 
BRANCH  14  15
ATOM     15  C   UNL     1       3.712   2.969  18.118  0.00  0.00    +0.000 A 
ATOM     16  C   UNL     1       4.617   3.128  19.171  0.00  0.00    +0.000 A 
ATOM     17  C   UNL     1       5.638   4.093  19.122  0.00  0.00    +0.000 A 
ATOM     18  C   UNL     1       5.678   4.946  18.004  0.00  0.00    +0.000 A 
ATOM     19  C   UNL     1       4.831   4.746  16.907  0.00  0.00    +0.000 A 
ATOM     20  C   UNL     1       5.087   5.769  15.962  0.00  0.00    +0.000 A 
ATOM     21  C   UNL     1       5.939   6.663  16.567  0.00  0.00    +0.000 A 
ATOM     22  N   UNL     1       6.426   6.064  17.702  0.00  0.00    +0.000 N 
ATOM     23  C   UNL     1       7.574   6.591  18.404  0.00  0.00    +0.000 C 
ATOM     24  C   UNL     1       3.887   3.703  16.939  0.00  0.00    +0.000 A 
ENDBRANCH  14  15
ENDBRANCH  13  14
ENDBRANCH   2  13
TORSDOF 5
ENDMDL
MODEL 6
REMARK VINA RESULT:      -7.0      2.113      6.606
REMARK  Name = 
REMARK  7 active torsions:
REMARK  status: ('A' for Active; 'I' for Inactive)
REMARK    1  A    between atoms: C_1  and  C_2
REMARK    2  A    between atoms: C_7  and  C_8
REMARK    3  A    between atoms: C_8  and  N_9
REMARK    4  A    between atoms: C_10  and  C_12
REMARK    5  A    between atoms: C_12  and  C_13
REMARK    6  A    between atoms: C_13  and  C_14
REMARK    7  A    between atoms: N_21  and  C_22
REMARK                            x       y       z     vdW  Elec       q    Type
REMARK                         _______ _______ _______ _____ _____    ______ ____
ROOT
ATOM      1  N   UNL     1       4.234   4.724  17.660  0.00  0.00    +0.000 N 
ATOM      2  C   UNL     1       5.240   5.646  17.866  0.00  0.00    +0.000 C 
ATOM      3  O   UNL     1       6.260   5.412  18.517  0.00  0.00    +0.000 OA
ATOM      4  H   UNL     1       3.384   5.014  17.200  0.00  0.00    +0.000 HD
ENDROOT
BRANCH   1   5
ATOM      5  C   UNL     1       4.265   3.380  18.211  0.00  0.00    +0.000 C 
BRANCH   5  12
ATOM      6  C   UNL     1       1.314   4.060  17.766  0.00  0.00    +0.000 C 
ATOM      7  C   UNL     1       1.831   3.511  19.069  0.00  0.00    +0.000 A 
ATOM      8  C   UNL     1       0.923   3.356  20.129  0.00  0.00    +0.000 A 
ATOM      9  C   UNL     1       1.337   2.868  21.369  0.00  0.00    +0.000 A 
ATOM     10  C   UNL     1       2.672   2.535  21.567  0.00  0.00    +0.000 A 
ATOM     11  C   UNL     1       3.590   2.689  20.526  0.00  0.00    +0.000 A 
ATOM     12  C   UNL     1       3.191   3.183  19.263  0.00  0.00    +0.000 A 
ENDBRANCH   5  12
ENDBRANCH   1   5
BRANCH   2  13
ATOM     13  C   UNL     1       4.941   6.994  17.260  0.00  0.00    +0.000 C 
BRANCH  13  14
ATOM     14  C   UNL     1       3.456   7.223  16.939  0.00  0.00    +0.000 C 
BRANCH  14  15
ATOM     15  C   UNL     1       2.802   7.869  18.144  0.00  0.00    +0.000 A 
ATOM     16  C   UNL     1       2.656   7.190  19.358  0.00  0.00    +0.000 A 
ATOM     17  C   UNL     1       1.779   7.653  20.356  0.00  0.00    +0.000 A 
ATOM     18  C   UNL     1       0.997   8.785  20.065  0.00  0.00    +0.000 A 
ATOM     19  C   UNL     1       1.192   9.520  18.889  0.00  0.00    +0.000 A 
ATOM     20  C   UNL     1       0.247  10.576  18.869  0.00  0.00    +0.000 A 
ATOM     21  C   UNL     1      -0.609  10.361  19.923  0.00  0.00    +0.000 A 
ATOM     22  N   UNL     1      -0.039   9.407  20.729  0.00  0.00    +0.000 N 
ATOM     23  C   UNL     1      -0.513   9.170  22.073  0.00  0.00    +0.000 C 
ATOM     24  C   UNL     1       2.153   9.094  17.954  0.00  0.00    +0.000 A 
ENDBRANCH  14  15
ENDBRANCH  13  14
ENDBRANCH   2  13
TORSDOF 5
ENDMDL
MODEL 7
REMARK VINA RESULT:      -7.0      5.878      8.054
REMARK  Name = 
REMARK  7 active torsions:
REMARK  status: ('A' for Active; 'I' for Inactive)
REMARK    1  A    between atoms: C_1  and  C_2
REMARK    2  A    between atoms: C_7  and  C_8
REMARK    3  A    between atoms: C_8  and  N_9
REMARK    4  A    between atoms: C_10  and  C_12
REMARK    5  A    between atoms: C_12  and  C_13
REMARK    6  A    between atoms: C_13  and  C_14
REMARK    7  A    between atoms: N_21  and  C_22
REMARK                            x       y       z     vdW  Elec       q    Type
REMARK                         _______ _______ _______ _____ _____    ______ ____
ROOT
ATOM      1  N   UNL     1       6.720   7.203  16.935  0.00  0.00    +0.000 N 
ATOM      2  C   UNL     1       7.616   6.867  17.931  0.00  0.00    +0.000 C 
ATOM      3  O   UNL     1       7.751   5.726  18.374  0.00  0.00    +0.000 OA
ATOM      4  H   UNL     1       6.595   8.173  16.690  0.00  0.00    +0.000 HD
ENDROOT
BRANCH   1   5
ATOM      5  C   UNL     1       5.823   6.240  16.319  0.00  0.00    +0.000 C 
BRANCH   5  12
ATOM      6  C   UNL     1       4.528   3.553  17.001  0.00  0.00    +0.000 C 
ATOM      7  C   UNL     1       3.918   4.870  17.401  0.00  0.00    +0.000 A 
ATOM      8  C   UNL     1       2.682   4.852  18.068  0.00  0.00    +0.000 A 
ATOM      9  C   UNL     1       2.053   6.037  18.452  0.00  0.00    +0.000 A 
ATOM     10  C   UNL     1       2.650   7.259  18.166  0.00  0.00    +0.000 A 
ATOM     11  C   UNL     1       3.876   7.295  17.497  0.00  0.00    +0.000 A 
ATOM     12  C   UNL     1       4.529   6.107  17.098  0.00  0.00    +0.000 A 
ENDBRANCH   5  12
ENDBRANCH   1   5
BRANCH   2  13
ATOM     13  C   UNL     1       8.380   8.054  18.464  0.00  0.00    +0.000 C 
BRANCH  13  14
ATOM     14  C   UNL     1       8.164   9.349  17.666  0.00  0.00    +0.000 C 
BRANCH  14  15
ATOM     15  C   UNL     1       8.831  10.486  18.414  0.00  0.00    +0.000 A 
ATOM     16  C   UNL     1       9.267  10.346  19.735  0.00  0.00    +0.000 A 
ATOM     17  C   UNL     1       9.581  11.467  20.526  0.00  0.00    +0.000 A 
ATOM     18  C   UNL     1       9.373  12.741  19.968  0.00  0.00    +0.000 A 
ATOM     19  C   UNL     1       9.016  12.894  18.622  0.00  0.00    +0.000 A 
ATOM     20  C   UNL     1       8.856  14.278  18.365  0.00  0.00    +0.000 A 
ATOM     21  C   UNL     1       8.939  14.918  19.579  0.00  0.00    +0.000 A 
ATOM     22  N   UNL     1       9.433  14.016  20.488  0.00  0.00    +0.000 N 
ATOM     23  C   UNL     1       9.936  14.435  21.776  0.00  0.00    +0.000 C 
ATOM     24  C   UNL     1       8.811  11.755  17.822  0.00  0.00    +0.000 A 
ENDBRANCH  14  15
ENDBRANCH  13  14
ENDBRANCH   2  13
TORSDOF 5
ENDMDL
MODEL 8
REMARK VINA RESULT:      -7.0      6.081      8.033
REMARK  Name = 
REMARK  7 active torsions:
REMARK  status: ('A' for Active; 'I' for Inactive)
REMARK    1  A    between atoms: C_1  and  C_2
REMARK    2  A    between atoms: C_7  and  C_8
REMARK    3  A    between atoms: C_8  and  N_9
REMARK    4  A    between atoms: C_10  and  C_12
REMARK    5  A    between atoms: C_12  and  C_13
REMARK    6  A    between atoms: C_13  and  C_14
REMARK    7  A    between atoms: N_21  and  C_22
REMARK                            x       y       z     vdW  Elec       q    Type
REMARK                         _______ _______ _______ _____ _____    ______ ____
ROOT
ATOM      1  N   UNL     1       6.981   6.972  16.948  0.00  0.00    +0.000 N 
ATOM      2  C   UNL     1       7.654   6.702  18.123  0.00  0.00    +0.000 C 
ATOM      3  O   UNL     1       7.551   5.641  18.742  0.00  0.00    +0.000 OA
ATOM      4  H   UNL     1       7.038   7.897  16.548  0.00  0.00    +0.000 HD
ENDROOT
BRANCH   1   5
ATOM      5  C   UNL     1       6.060   6.035  16.329  0.00  0.00    +0.000 C 
BRANCH   5  12
ATOM      6  C   UNL     1       4.505   3.480  16.978  0.00  0.00    +0.000 C 
ATOM      7  C   UNL     1       3.987   4.852  17.318  0.00  0.00    +0.000 A 
ATOM      8  C   UNL     1       2.718   4.952  17.912  0.00  0.00    +0.000 A 
ATOM      9  C   UNL     1       2.169   6.193  18.238  0.00  0.00    +0.000 A 
ATOM     10  C   UNL     1       2.884   7.354  17.967  0.00  0.00    +0.000 A 
ATOM     11  C   UNL     1       4.144   7.274  17.372  0.00  0.00    +0.000 A 
ATOM     12  C   UNL     1       4.716   6.027  17.031  0.00  0.00    +0.000 A 
ENDBRANCH   5  12
ENDBRANCH   1   5
BRANCH   2  13
ATOM     13  C   UNL     1       8.490   7.861  18.606  0.00  0.00    +0.000 C 
BRANCH  13  14
ATOM     14  C   UNL     1       8.103   9.214  17.991  0.00  0.00    +0.000 C 
BRANCH  14  15
ATOM     15  C   UNL     1       9.053  10.268  18.521  0.00  0.00    +0.000 A 
ATOM     16  C   UNL     1       9.119  10.588  19.880  0.00  0.00    +0.000 A 
ATOM     17  C   UNL     1       9.746  11.765  20.328  0.00  0.00    +0.000 A 
ATOM     18  C   UNL     1      10.245  12.650  19.356  0.00  0.00    +0.000 A 
ATOM     19  C   UNL     1      10.260  12.305  17.998  0.00  0.00    +0.000 A 
ATOM     20  C   UNL     1      10.793  13.398  17.273  0.00  0.00    +0.000 A 
ATOM     21  C   UNL     1      10.922  14.439  18.162  0.00  0.00    +0.000 A 
ATOM     22  N   UNL     1      10.772  13.922  19.425  0.00  0.00    +0.000 N 
ATOM     23  C   UNL     1      11.154  14.671  20.600  0.00  0.00    +0.000 C 
ATOM     24  C   UNL     1       9.721  11.071  17.589  0.00  0.00    +0.000 A 
ENDBRANCH  14  15
ENDBRANCH  13  14
ENDBRANCH   2  13
TORSDOF 5
ENDMDL
MODEL 9
REMARK VINA RESULT:      -7.0      3.643      8.418
REMARK  Name = 
REMARK  7 active torsions:
REMARK  status: ('A' for Active; 'I' for Inactive)
REMARK    1  A    between atoms: C_1  and  C_2
REMARK    2  A    between atoms: C_7  and  C_8
REMARK    3  A    between atoms: C_8  and  N_9
REMARK    4  A    between atoms: C_10  and  C_12
REMARK    5  A    between atoms: C_12  and  C_13
REMARK    6  A    between atoms: C_13  and  C_14
REMARK    7  A    between atoms: N_21  and  C_22
REMARK                            x       y       z     vdW  Elec       q    Type
REMARK                         _______ _______ _______ _____ _____    ______ ____
ROOT
ATOM      1  N   UNL     1       2.272   7.146  19.140  0.00  0.00    +0.000 N 
ATOM      2  C   UNL     1       2.572   7.941  18.051  0.00  0.00    +0.000 C 
ATOM      3  O   UNL     1       3.558   7.772  17.332  0.00  0.00    +0.000 OA
ATOM      4  H   UNL     1       1.502   7.401  19.741  0.00  0.00    +0.000 HD
ENDROOT
BRANCH   1   5
ATOM      5  C   UNL     1       3.107   6.036  19.566  0.00  0.00    +0.000 C 
BRANCH   5  12
ATOM      6  C   UNL     1       3.846   4.239  17.200  0.00  0.00    +0.000 C 
ATOM      7  C   UNL     1       2.769   3.876  18.188  0.00  0.00    +0.000 A 
ATOM      8  C   UNL     1       2.051   2.687  17.977  0.00  0.00    +0.000 A 
ATOM      9  C   UNL     1       1.029   2.298  18.844  0.00  0.00    +0.000 A 
ATOM     10  C   UNL     1       0.708   3.099  19.933  0.00  0.00    +0.000 A 
ATOM     11  C   UNL     1       1.408   4.287  20.155  0.00  0.00    +0.000 A 
ATOM     12  C   UNL     1       2.444   4.701  19.287  0.00  0.00    +0.000 A 
ENDBRANCH   5  12
ENDBRANCH   1   5
BRANCH   2  13
ATOM     13  C   UNL     1       1.597   9.075  17.860  0.00  0.00    +0.000 C 
BRANCH  13  14
ATOM     14  C   UNL     1       1.206   9.793  19.161  0.00  0.00    +0.000 C 
BRANCH  14  15
ATOM     15  C   UNL     1      -0.069  10.573  18.910  0.00  0.00    +0.000 A 
ATOM     16  C   UNL     1      -0.541  11.529  19.814  0.00  0.00    +0.000 A 
ATOM     17  C   UNL     1      -1.861  12.010  19.751  0.00  0.00    +0.000 A 
ATOM     18  C   UNL     1      -2.718  11.444  18.790  0.00  0.00    +0.000 A 
ATOM     19  C   UNL     1      -2.238  10.547  17.827  0.00  0.00    +0.000 A 
ATOM     20  C   UNL     1      -3.331  10.136  17.026  0.00  0.00    +0.000 A 
ATOM     21  C   UNL     1      -4.466  10.639  17.616  0.00  0.00    +0.000 A 
ATOM     22  N   UNL     1      -4.070  11.565  18.549  0.00  0.00    +0.000 N 
ATOM     23  C   UNL     1      -5.003  12.504  19.129  0.00  0.00    +0.000 C 
ATOM     24  C   UNL     1      -0.884  10.163  17.848  0.00  0.00    +0.000 A 
ENDBRANCH  14  15
ENDBRANCH  13  14
ENDBRANCH   2  13
TORSDOF 5
ENDMDL
