MODEL 1
REMARK VINA RESULT:      -7.8      0.000      0.000
REMARK  Name = 
REMARK  0 active torsions:
REMARK  status: ('A' for Active; 'I' for Inactive)
REMARK                            x       y       z     vdW  Elec       q    Type
REMARK                         _______ _______ _______ _____ _____    ______ ____
ROOT
ATOM      1  O   UNL     1       8.653   5.913  13.412  0.00  0.00    +0.000 OA
ATOM      2  C   UNL     1       7.747   5.135  13.130  0.00  0.00    +0.000 C 
ATOM      3  C   UNL     1       7.764   4.351  11.800  0.00  0.00    +0.000 C 
ATOM      4  C   UNL     1       6.695   3.264  11.687  0.00  0.00    +0.000 C 
ATOM      5  C   UNL     1       5.381   3.820  12.183  0.00  0.00    +0.000 C 
ATOM      6  C   UNL     1       5.575   4.062  13.644  0.00  0.00    +0.000 A 
ATOM      7  C   UNL     1       4.790   3.399  14.579  0.00  0.00    +0.000 A 
ATOM      8  C   UNL     1       4.977   3.700  15.913  0.00  0.00    +0.000 A 
ATOM      9  C   UNL     1       5.791   4.754  16.321  0.00  0.00    +0.000 A 
ATOM     10  C   UNL     1       6.691   5.312  15.423  0.00  0.00    +0.000 A 
ATOM     11  C   UNL     1       6.632   4.880  14.088  0.00  0.00    +0.000 A 
ATOM     12  C   UNL     1       5.561   5.045  17.774  0.00  0.00    +0.000 C 
ATOM     13  C   UNL     1       4.448   4.017  18.182  0.00  0.00    +0.000 C 
ATOM     14  C   UNL     1       3.001   4.604  18.216  0.00  0.00    +0.000 C 
ATOM     15  C   UNL     1       2.391   3.913  19.401  0.00  0.00    +0.000 A 
ATOM     16  C   UNL     1       1.058   3.896  19.782  0.00  0.00    +0.000 A 
ATOM     17  C   UNL     1       0.708   3.243  20.968  0.00  0.00    +0.000 A 
ATOM     18  C   UNL     1       1.687   2.627  21.759  0.00  0.00    +0.000 A 
ATOM     19  C   UNL     1       3.025   2.641  21.363  0.00  0.00    +0.000 A 
ATOM     20  C   UNL     1       3.359   3.276  20.175  0.00  0.00    +0.000 A 
ATOM     21  C   UNL     1       4.725   3.430  19.591  0.00  0.00    +0.000 C 
ATOM     22  C   UNL     1       4.484   2.923  17.090  0.00  0.00    +0.000 C 
ENDROOT
TORSDOF 0
ENDMDL
MODEL 2
REMARK VINA RESULT:      -7.8      5.355      7.908
REMARK  Name = 
REMARK  0 active torsions:
REMARK  status: ('A' for Active; 'I' for Inactive)
REMARK                            x       y       z     vdW  Elec       q    Type
REMARK                         _______ _______ _______ _____ _____    ______ ____
ROOT
ATOM      1  O   UNL     1       4.058   3.138  17.855  0.00  0.00    +0.000 OA
ATOM      2  C   UNL     1       3.412   3.403  18.865  0.00  0.00    +0.000 C 
ATOM      3  C   UNL     1       3.445   2.468  20.092  0.00  0.00    +0.000 C 
ATOM      4  C   UNL     1       2.776   3.034  21.344  0.00  0.00    +0.000 C 
ATOM      5  C   UNL     1       1.461   3.666  20.949  0.00  0.00    +0.000 C 
ATOM      6  C   UNL     1       1.820   4.842  20.102  0.00  0.00    +0.000 A 
ATOM      7  C   UNL     1       1.465   6.127  20.491  0.00  0.00    +0.000 A 
ATOM      8  C   UNL     1       1.776   7.171  19.643  0.00  0.00    +0.000 A 
ATOM      9  C   UNL     1       2.271   6.952  18.360  0.00  0.00    +0.000 A 
ATOM     10  C   UNL     1       2.774   5.703  18.023  0.00  0.00    +0.000 A 
ATOM     11  C   UNL     1       2.622   4.666  18.958  0.00  0.00    +0.000 A 
ATOM     12  C   UNL     1       2.218   8.225  17.568  0.00  0.00    +0.000 C 
ATOM     13  C   UNL     1       1.580   9.252  18.568  0.00  0.00    +0.000 C 
ATOM     14  C   UNL     1       0.052   9.497  18.362  0.00  0.00    +0.000 C 
ATOM     15  C   UNL     1      -0.089  10.966  18.635  0.00  0.00    +0.000 A 
ATOM     16  C   UNL     1      -1.258  11.692  18.800  0.00  0.00    +0.000 A 
ATOM     17  C   UNL     1      -1.169  13.076  18.980  0.00  0.00    +0.000 A 
ATOM     18  C   UNL     1       0.079  13.715  18.984  0.00  0.00    +0.000 A 
ATOM     19  C   UNL     1       1.251  12.976  18.827  0.00  0.00    +0.000 A 
ATOM     20  C   UNL     1       1.151  11.601  18.668  0.00  0.00    +0.000 A 
ATOM     21  C   UNL     1       2.272  10.637  18.456  0.00  0.00    +0.000 C 
ATOM     22  C   UNL     1       1.771   8.629  19.969  0.00  0.00    +0.000 C 
ENDROOT
TORSDOF 0
ENDMDL
MODEL 3
REMARK VINA RESULT:      -7.7      4.853      8.170
REMARK  Name = 
REMARK  0 active torsions:
REMARK  status: ('A' for Active; 'I' for Inactive)
REMARK                            x       y       z     vdW  Elec       q    Type
REMARK                         _______ _______ _______ _____ _____    ______ ____
ROOT
ATOM      1  O   UNL     1      -0.285   9.263  22.517  0.00  0.00    +0.000 OA
ATOM      2  C   UNL     1      -0.170   9.681  21.369  0.00  0.00    +0.000 C 
ATOM      3  C   UNL     1      -0.731  11.063  20.973  0.00  0.00    +0.000 C 
ATOM      4  C   UNL     1      -0.322  11.542  19.580  0.00  0.00    +0.000 C 
ATOM      5  C   UNL     1      -0.470  10.394  18.608  0.00  0.00    +0.000 C 
ATOM      6  C   UNL     1       0.554   9.387  19.019  0.00  0.00    +0.000 A 
ATOM      7  C   UNL     1       1.567   9.015  18.145  0.00  0.00    +0.000 A 
ATOM      8  C   UNL     1       2.455   8.042  18.558  0.00  0.00    +0.000 A 
ATOM      9  C   UNL     1       2.257   7.319  19.732  0.00  0.00    +0.000 A 
ATOM     10  C   UNL     1       1.354   7.782  20.679  0.00  0.00    +0.000 A 
ATOM     11  C   UNL     1       0.564   8.893  20.337  0.00  0.00    +0.000 A 
ATOM     12  C   UNL     1       3.181   6.137  19.767  0.00  0.00    +0.000 C 
ATOM     13  C   UNL     1       3.955   6.238  18.405  0.00  0.00    +0.000 C 
ATOM     14  C   UNL     1       3.407   5.308  17.276  0.00  0.00    +0.000 C 
ATOM     15  C   UNL     1       4.659   4.860  16.579  0.00  0.00    +0.000 A 
ATOM     16  C   UNL     1       4.765   4.185  15.373  0.00  0.00    +0.000 A 
ATOM     17  C   UNL     1       6.034   3.798  14.931  0.00  0.00    +0.000 A 
ATOM     18  C   UNL     1       7.174   4.080  15.697  0.00  0.00    +0.000 A 
ATOM     19  C   UNL     1       7.058   4.769  16.905  0.00  0.00    +0.000 A 
ATOM     20  C   UNL     1       5.796   5.164  17.325  0.00  0.00    +0.000 A 
ATOM     21  C   UNL     1       5.452   5.879  18.591  0.00  0.00    +0.000 C 
ATOM     22  C   UNL     1       3.771   7.700  17.939  0.00  0.00    +0.000 C 
ENDROOT
TORSDOF 0
ENDMDL
MODEL 4
REMARK VINA RESULT:      -7.5      5.059      8.450
REMARK  Name = 
REMARK  0 active torsions:
REMARK  status: ('A' for Active; 'I' for Inactive)
REMARK                            x       y       z     vdW  Elec       q    Type
REMARK                         _______ _______ _______ _____ _____    ______ ____
ROOT
ATOM      1  O   UNL     1       0.257  12.118  19.991  0.00  0.00    +0.000 OA
ATOM      2  C   UNL     1       0.125  11.309  20.904  0.00  0.00    +0.000 C 
ATOM      3  C   UNL     1      -0.779  11.624  22.114  0.00  0.00    +0.000 C 
ATOM      4  C   UNL     1      -1.020  10.444  23.055  0.00  0.00    +0.000 C 
ATOM      5  C   UNL     1       0.294   9.739  23.298  0.00  0.00    +0.000 C 
ATOM      6  C   UNL     1       0.681   9.148  21.981  0.00  0.00    +0.000 A 
ATOM      7  C   UNL     1       0.827   7.774  21.840  0.00  0.00    +0.000 A 
ATOM      8  C   UNL     1       1.236   7.288  20.615  0.00  0.00    +0.000 A 
ATOM      9  C   UNL     1       1.664   8.135  19.595  0.00  0.00    +0.000 A 
ATOM     10  C   UNL     1       1.376   9.491  19.663  0.00  0.00    +0.000 A 
ATOM     11  C   UNL     1       0.789   9.973  20.846  0.00  0.00    +0.000 A 
ATOM     12  C   UNL     1       2.336   7.337  18.517  0.00  0.00    +0.000 C 
ATOM     13  C   UNL     1       2.279   5.866  19.060  0.00  0.00    +0.000 C 
ATOM     14  C   UNL     1       3.597   5.371  19.736  0.00  0.00    +0.000 C 
ATOM     15  C   UNL     1       3.672   3.936  19.303  0.00  0.00    +0.000 A 
ATOM     16  C   UNL     1       4.526   2.949  19.772  0.00  0.00    +0.000 A 
ATOM     17  C   UNL     1       4.477   1.683  19.181  0.00  0.00    +0.000 A 
ATOM     18  C   UNL     1       3.589   1.420  18.129  0.00  0.00    +0.000 A 
ATOM     19  C   UNL     1       2.726   2.416  17.669  0.00  0.00    +0.000 A 
ATOM     20  C   UNL     1       2.771   3.664  18.275  0.00  0.00    +0.000 A 
ATOM     21  C   UNL     1       1.960   4.866  17.918  0.00  0.00    +0.000 C 
ATOM     22  C   UNL     1       1.173   5.873  20.139  0.00  0.00    +0.000 C 
ENDROOT
TORSDOF 0
ENDMDL
MODEL 5
REMARK VINA RESULT:      -7.5      5.929      7.539
REMARK  Name = 
REMARK  0 active torsions:
REMARK  status: ('A' for Active; 'I' for Inactive)
REMARK                            x       y       z     vdW  Elec       q    Type
REMARK                         _______ _______ _______ _____ _____    ______ ____
ROOT
ATOM      1  O   UNL     1       3.977   3.767  19.377  0.00  0.00    +0.000 OA
ATOM      2  C   UNL     1       4.160   4.591  18.486  0.00  0.00    +0.000 C 
ATOM      3  C   UNL     1       4.842   4.186  17.162  0.00  0.00    +0.000 C 
ATOM      4  C   UNL     1       4.803   5.255  16.071  0.00  0.00    +0.000 C 
ATOM      5  C   UNL     1       5.151   6.590  16.685  0.00  0.00    +0.000 C 
ATOM      6  C   UNL     1       4.028   6.907  17.617  0.00  0.00    +0.000 A 
ATOM      7  C   UNL     1       3.250   8.042  17.425  0.00  0.00    +0.000 A 
ATOM      8  C   UNL     1       2.259   8.312  18.347  0.00  0.00    +0.000 A 
ATOM      9  C   UNL     1       2.140   7.588  19.531  0.00  0.00    +0.000 A 
ATOM     10  C   UNL     1       2.796   6.371  19.659  0.00  0.00    +0.000 A 
ATOM     11  C   UNL     1       3.679   5.996  18.633  0.00  0.00    +0.000 A 
ATOM     12  C   UNL     1       1.201   8.290  20.467  0.00  0.00    +0.000 C 
ATOM     13  C   UNL     1       0.790   9.580  19.675  0.00  0.00    +0.000 C 
ATOM     14  C   UNL     1       1.570  10.870  20.082  0.00  0.00    +0.000 C 
ATOM     15  C   UNL     1       0.515  11.935  20.001  0.00  0.00    +0.000 A 
ATOM     16  C   UNL     1       0.689  13.309  20.058  0.00  0.00    +0.000 A 
ATOM     17  C   UNL     1      -0.444  14.129  20.032  0.00  0.00    +0.000 A 
ATOM     18  C   UNL     1      -1.727  13.571  19.959  0.00  0.00    +0.000 A 
ATOM     19  C   UNL     1      -1.892  12.187  19.892  0.00  0.00    +0.000 A 
ATOM     20  C   UNL     1      -0.761  11.384  19.900  0.00  0.00    +0.000 A 
ATOM     21  C   UNL     1      -0.718   9.891  19.867  0.00  0.00    +0.000 C 
ATOM     22  C   UNL     1       1.127   9.275  18.197  0.00  0.00    +0.000 C 
ENDROOT
TORSDOF 0
ENDMDL
MODEL 6
REMARK VINA RESULT:      -7.5      6.098      7.994
REMARK  Name = 
REMARK  0 active torsions:
REMARK  status: ('A' for Active; 'I' for Inactive)
REMARK                            x       y       z     vdW  Elec       q    Type
REMARK                         _______ _______ _______ _____ _____    ______ ____
ROOT
ATOM      1  O   UNL     1       2.855   3.597  20.400  0.00  0.00    +0.000 OA
ATOM      2  C   UNL     1       3.272   4.178  19.404  0.00  0.00    +0.000 C 
ATOM      3  C   UNL     1       3.929   3.393  18.248  0.00  0.00    +0.000 C 
ATOM      4  C   UNL     1       4.197   4.216  16.989  0.00  0.00    +0.000 C 
ATOM      5  C   UNL     1       4.794   5.544  17.393  0.00  0.00    +0.000 C 
ATOM      6  C   UNL     1       3.713   6.260  18.135  0.00  0.00    +0.000 A 
ATOM      7  C   UNL     1       3.220   7.471  17.669  0.00  0.00    +0.000 A 
ATOM      8  C   UNL     1       2.258   8.114  18.422  0.00  0.00    +0.000 A 
ATOM      9  C   UNL     1       1.907   7.671  19.696  0.00  0.00    +0.000 A 
ATOM     10  C   UNL     1       2.267   6.394  20.101  0.00  0.00    +0.000 A 
ATOM     11  C   UNL     1       3.107   5.653  19.252  0.00  0.00    +0.000 A 
ATOM     12  C   UNL     1       1.090   8.719  20.393  0.00  0.00    +0.000 C 
ATOM     13  C   UNL     1       1.026   9.889  19.350  0.00  0.00    +0.000 C 
ATOM     14  C   UNL     1       2.046  11.044  19.604  0.00  0.00    +0.000 C 
ATOM     15  C   UNL     1       1.262  12.267  19.230  0.00  0.00    +0.000 A 
ATOM     16  C   UNL     1       1.732  13.561  19.064  0.00  0.00    +0.000 A 
ATOM     17  C   UNL     1       0.814  14.577  18.779  0.00  0.00    +0.000 A 
ATOM     18  C   UNL     1      -0.554  14.292  18.672  0.00  0.00    +0.000 A 
ATOM     19  C   UNL     1      -1.018  12.986  18.831  0.00  0.00    +0.000 A 
ATOM     20  C   UNL     1      -0.096  11.983  19.096  0.00  0.00    +0.000 A 
ATOM     21  C   UNL     1      -0.383  10.536  19.328  0.00  0.00    +0.000 C 
ATOM     22  C   UNL     1       1.379   9.242  17.991  0.00  0.00    +0.000 C 
ENDROOT
TORSDOF 0
ENDMDL
MODEL 7
REMARK VINA RESULT:      -7.4      6.935      9.012
REMARK  Name = 
REMARK  0 active torsions:
REMARK  status: ('A' for Active; 'I' for Inactive)
REMARK                            x       y       z     vdW  Elec       q    Type
REMARK                         _______ _______ _______ _____ _____    ______ ____
ROOT
ATOM      1  O   UNL     1       1.850   4.516  21.204  0.00  0.00    +0.000 OA
ATOM      2  C   UNL     1       2.188   4.954  20.109  0.00  0.00    +0.000 C 
ATOM      3  C   UNL     1       2.555   3.998  18.954  0.00  0.00    +0.000 C 
ATOM      4  C   UNL     1       2.738   4.678  17.597  0.00  0.00    +0.000 C 
ATOM      5  C   UNL     1       3.560   5.931  17.788  0.00  0.00    +0.000 C 
ATOM      6  C   UNL     1       2.707   6.849  18.600  0.00  0.00    +0.000 A 
ATOM      7  C   UNL     1       2.315   8.082  18.093  0.00  0.00    +0.000 A 
ATOM      8  C   UNL     1       1.570   8.911  18.908  0.00  0.00    +0.000 A 
ATOM      9  C   UNL     1       1.358   8.621  20.253  0.00  0.00    +0.000 A 
ATOM     10  C   UNL     1       1.601   7.338  20.725  0.00  0.00    +0.000 A 
ATOM     11  C   UNL     1       2.199   6.423  19.842  0.00  0.00    +0.000 A 
ATOM     12  C   UNL     1       0.801   9.825  20.954  0.00  0.00    +0.000 C 
ATOM     13  C   UNL     1       0.738  10.910  19.823  0.00  0.00    +0.000 C 
ATOM     14  C   UNL     1       1.929  11.921  19.824  0.00  0.00    +0.000 C 
ATOM     15  C   UNL     1       1.267  13.214  19.447  0.00  0.00    +0.000 A 
ATOM     16  C   UNL     1       1.874  14.410  19.096  0.00  0.00    +0.000 A 
ATOM     17  C   UNL     1       1.067  15.524  18.845  0.00  0.00    +0.000 A 
ATOM     18  C   UNL     1      -0.327  15.434  18.955  0.00  0.00    +0.000 A 
ATOM     19  C   UNL     1      -0.931  14.224  19.299  0.00  0.00    +0.000 A 
ATOM     20  C   UNL     1      -0.121  13.120  19.529  0.00  0.00    +0.000 A 
ATOM     21  C   UNL     1      -0.561  11.752  19.934  0.00  0.00    +0.000 C 
ATOM     22  C   UNL     1       0.794  10.120  18.496  0.00  0.00    +0.000 C 
ENDROOT
TORSDOF 0
ENDMDL
MODEL 8
REMARK VINA RESULT:      -7.4      5.464      7.234
REMARK  Name = 
REMARK  0 active torsions:
REMARK  status: ('A' for Active; 'I' for Inactive)
REMARK                            x       y       z     vdW  Elec       q    Type
REMARK                         _______ _______ _______ _____ _____    ______ ____
ROOT
ATOM      1  O   UNL     1       6.185   5.840  16.880  0.00  0.00    +0.000 OA
ATOM      2  C   UNL     1       5.309   5.408  17.623  0.00  0.00    +0.000 C 
ATOM      3  C   UNL     1       5.515   4.095  18.408  0.00  0.00    +0.000 C 
ATOM      4  C   UNL     1       4.440   3.801  19.453  0.00  0.00    +0.000 C 
ATOM      5  C   UNL     1       3.084   4.075  18.846  0.00  0.00    +0.000 C 
ATOM      6  C   UNL     1       3.042   5.550  18.610  0.00  0.00    +0.000 A 
ATOM      7  C   UNL     1       2.088   6.339  19.242  0.00  0.00    +0.000 A 
ATOM      8  C   UNL     1       2.063   7.687  18.947  0.00  0.00    +0.000 A 
ATOM      9  C   UNL     1       2.839   8.229  17.924  0.00  0.00    +0.000 A 
ATOM     10  C   UNL     1       3.896   7.496  17.403  0.00  0.00    +0.000 A 
ATOM     11  C   UNL     1       4.041   6.166  17.834  0.00  0.00    +0.000 A 
ATOM     12  C   UNL     1       2.382   9.626  17.623  0.00  0.00    +0.000 C 
ATOM     13  C   UNL     1       1.179   9.838  18.607  0.00  0.00    +0.000 C 
ATOM     14  C   UNL     1      -0.230   9.636  17.965  0.00  0.00    +0.000 C 
ATOM     15  C   UNL     1      -1.054  10.700  18.630  0.00  0.00    +0.000 A 
ATOM     16  C   UNL     1      -2.431  10.855  18.595  0.00  0.00    +0.000 A 
ATOM     17  C   UNL     1      -2.997  11.963  19.233  0.00  0.00    +0.000 A 
ATOM     18  C   UNL     1      -2.187  12.902  19.886  0.00  0.00    +0.000 A 
ATOM     19  C   UNL     1      -0.803  12.733  19.924  0.00  0.00    +0.000 A 
ATOM     20  C   UNL     1      -0.253  11.620  19.303  0.00  0.00    +0.000 A 
ATOM     21  C   UNL     1       1.196  11.271  19.203  0.00  0.00    +0.000 C 
ATOM     22  C   UNL     1       1.353   8.762  19.703  0.00  0.00    +0.000 C 
ENDROOT
TORSDOF 0
ENDMDL
MODEL 9
REMARK VINA RESULT:      -7.3      5.918      8.407
REMARK  Name = 
REMARK  0 active torsions:
REMARK  status: ('A' for Active; 'I' for Inactive)
REMARK                            x       y       z     vdW  Elec       q    Type
REMARK                         _______ _______ _______ _____ _____    ______ ____
ROOT
ATOM      1  O   UNL     1      -0.052  12.358  22.116  0.00  0.00    +0.000 OA
ATOM      2  C   UNL     1      -0.161  12.204  20.904  0.00  0.00    +0.000 C 
ATOM      3  C   UNL     1      -0.537  13.388  19.987  0.00  0.00    +0.000 C 
ATOM      4  C   UNL     1      -0.419  13.099  18.491  0.00  0.00    +0.000 C 
ATOM      5  C   UNL     1      -1.023  11.744  18.208  0.00  0.00    +0.000 C 
ATOM      6  C   UNL     1      -0.134  10.758  18.893  0.00  0.00    +0.000 A 
ATOM      7  C   UNL     1       0.533   9.783  18.162  0.00  0.00    +0.000 A 
ATOM      8  C   UNL     1       1.300   8.867  18.853  0.00  0.00    +0.000 A 
ATOM      9  C   UNL     1       1.280   8.793  20.244  0.00  0.00    +0.000 A 
ATOM     10  C   UNL     1       0.754   9.846  20.979  0.00  0.00    +0.000 A 
ATOM     11  C   UNL     1       0.123  10.883  20.271  0.00  0.00    +0.000 A 
ATOM     12  C   UNL     1       1.946   7.527  20.697  0.00  0.00    +0.000 C 
ATOM     13  C   UNL     1       2.347   6.822  19.354  0.00  0.00    +0.000 C 
ATOM     14  C   UNL     1       1.364   5.701  18.889  0.00  0.00    +0.000 C 
ATOM     15  C   UNL     1       2.289   4.668  18.313  0.00  0.00    +0.000 A 
ATOM     16  C   UNL     1       1.954   3.549  17.567  0.00  0.00    +0.000 A 
ATOM     17  C   UNL     1       2.971   2.670  17.182  0.00  0.00    +0.000 A 
ATOM     18  C   UNL     1       4.301   2.913  17.552  0.00  0.00    +0.000 A 
ATOM     19  C   UNL     1       4.631   4.047  18.295  0.00  0.00    +0.000 A 
ATOM     20  C   UNL     1       3.615   4.922  18.656  0.00  0.00    +0.000 A 
ATOM     21  C   UNL     1       3.749   6.167  19.469  0.00  0.00    +0.000 C 
ATOM     22  C   UNL     1       2.324   7.939  18.286  0.00  0.00    +0.000 C 
ENDROOT
TORSDOF 0
ENDMDL
