MODEL 1
REMARK VINA RESULT:      -9.0      0.000      0.000
REMARK  Name = 
REMARK  9 active torsions:
REMARK  status: ('A' for Active; 'I' for Inactive)
REMARK    1  A    between atoms: C_1  and  C_2
REMARK    2  A    between atoms: N_4  and  C_5
REMARK    3  A    between atoms: C_5  and  C_6
REMARK    4  A    between atoms: C_5  and  C_12
REMARK    5  A    between atoms: C_12  and  C_13
REMARK    6  A    between atoms: C_15  and  C_16
REMARK    7  A    between atoms: C_16  and  C_17
REMARK    8  A    between atoms: C_16  and  C_18
REMARK    9  A    between atoms: N_20  and  C_21
REMARK                            x       y       z     vdW  Elec       q    Type
REMARK                         _______ _______ _______ _____ _____    ______ ____
ROOT
ATOM      1  C   UNL     1       3.961   4.849  18.189  0.00  0.00    +0.000 C 
ATOM      2  C   UNL     1       4.642   3.935  19.186  0.00  0.00    +0.000 C 
ATOM      3  C   UNL     1       2.533   4.441  17.845  0.00  0.00    +0.000 C 
ATOM      4  C   UNL     1       2.758   5.736  18.578  0.00  0.00    +0.000 C 
ENDROOT
BRANCH   4   5
ATOM      5  C   UNL     1       2.319   5.957  20.011  0.00  0.00    +0.000 C 
ATOM      6  C   UNL     1       1.311   4.903  20.459  0.00  0.00    +0.000 C 
BRANCH   5   7
ATOM      7  C   UNL     1       1.830   7.406  20.209  0.00  0.00    +0.000 C 
ATOM      8  O   UNL     1       2.035   8.225  19.320  0.00  0.00    +0.000 OA
ATOM      9  N   UNL     1       1.112   7.668  21.368  0.00  0.00    +0.000 N 
ATOM     10  H   UNL     1       1.183   7.016  22.139  0.00  0.00    +0.000 HD
BRANCH   9  11
ATOM     11  C   UNL     1       0.328   8.826  21.617  0.00  0.00    +0.000 A 
ATOM     12  C   UNL     1      -0.145   9.134  22.892  0.00  0.00    +0.000 A 
ATOM     13  C   UNL     1      -0.784  10.348  23.142  0.00  0.00    +0.000 A 
ATOM     14  C   UNL     1      -0.985  11.277  22.120  0.00  0.00    +0.000 A 
ATOM     15  C   UNL     1      -1.542  12.532  22.399  0.00  0.00    +0.000 A 
ATOM     16  C   UNL     1      -1.768  13.453  21.379  0.00  0.00    +0.000 A 
ATOM     17  C   UNL     1      -1.489  13.103  20.062  0.00  0.00    +0.000 A 
ATOM     18  C   UNL     1      -0.913  11.861  19.772  0.00  0.00    +0.000 A 
ATOM     19  C   UNL     1      -0.607  10.946  20.798  0.00  0.00    +0.000 A 
ATOM     20  C   UNL     1       0.078   9.728  20.569  0.00  0.00    +0.000 A 
ENDBRANCH   9  11
ENDBRANCH   5   7
ENDBRANCH   4   5
BRANCH   1  21
ATOM     21  C   UNL     1       4.868   5.424  17.087  0.00  0.00    +0.000 C 
BRANCH  21  22
ATOM     22  C   UNL     1       6.099   6.133  17.644  0.00  0.00    +0.000 A 
ATOM     23  C   UNL     1       6.383   7.439  17.206  0.00  0.00    +0.000 A 
ATOM     24  C   UNL     1       7.518   8.122  17.650  0.00  0.00    +0.000 A 
ATOM     25  C   UNL     1       8.391   7.516  18.547  0.00  0.00    +0.000 A 
ATOM     26  C   UNL     1       8.119   6.232  19.012  0.00  0.00    +0.000 A 
ATOM     27  C   UNL     1       6.981   5.549  18.572  0.00  0.00    +0.000 A 
ENDBRANCH  21  22
BRANCH  21  31
ATOM     28  C   UNL     1       6.090   3.530  14.051  0.00  0.00    +0.000 C 
ATOM     29  C   UNL     1       5.582   4.711  14.834  0.00  0.00    +0.000 C 
ATOM     30  O   UNL     1       5.539   5.836  14.353  0.00  0.00    +0.000 OA
ATOM     31  N   UNL     1       5.200   4.393  16.117  0.00  0.00    +0.000 N 
ATOM     32  H   UNL     1       5.237   3.436  16.429  0.00  0.00    +0.000 HD
ENDBRANCH  21  31
ENDBRANCH   1  21
TORSDOF 6
ENDMDL
MODEL 2
REMARK VINA RESULT:      -8.7      1.790      2.338
REMARK  Name = 
REMARK  9 active torsions:
REMARK  status: ('A' for Active; 'I' for Inactive)
REMARK    1  A    between atoms: C_1  and  C_2
REMARK    2  A    between atoms: N_4  and  C_5
REMARK    3  A    between atoms: C_5  and  C_6
REMARK    4  A    between atoms: C_5  and  C_12
REMARK    5  A    between atoms: C_12  and  C_13
REMARK    6  A    between atoms: C_15  and  C_16
REMARK    7  A    between atoms: C_16  and  C_17
REMARK    8  A    between atoms: C_16  and  C_18
REMARK    9  A    between atoms: N_20  and  C_21
REMARK                            x       y       z     vdW  Elec       q    Type
REMARK                         _______ _______ _______ _____ _____    ______ ____
ROOT
ATOM      1  C   UNL     1       3.811   5.176  18.145  0.00  0.00    +0.000 C 
ATOM      2  C   UNL     1       4.352   4.150  19.118  0.00  0.00    +0.000 C 
ATOM      3  C   UNL     1       2.341   4.983  17.791  0.00  0.00    +0.000 C 
ATOM      4  C   UNL     1       2.744   6.214  18.558  0.00  0.00    +0.000 C 
ENDROOT
BRANCH   4   5
ATOM      5  C   UNL     1       2.335   6.458  19.996  0.00  0.00    +0.000 C 
ATOM      6  C   UNL     1       1.495   5.308  20.544  0.00  0.00    +0.000 C 
BRANCH   5   7
ATOM      7  C   UNL     1       1.665   7.839  20.141  0.00  0.00    +0.000 C 
ATOM      8  O   UNL     1       1.484   8.292  21.265  0.00  0.00    +0.000 OA
ATOM      9  N   UNL     1       1.378   8.517  18.964  0.00  0.00    +0.000 N 
ATOM     10  H   UNL     1       1.345   7.993  18.098  0.00  0.00    +0.000 HD
BRANCH   9  11
ATOM     11  C   UNL     1       1.041   9.893  18.858  0.00  0.00    +0.000 A 
ATOM     12  C   UNL     1      -0.251  10.355  19.103  0.00  0.00    +0.000 A 
ATOM     13  C   UNL     1      -0.526  11.722  19.138  0.00  0.00    +0.000 A 
ATOM     14  C   UNL     1       0.479  12.662  18.910  0.00  0.00    +0.000 A 
ATOM     15  C   UNL     1       0.215  14.032  19.040  0.00  0.00    +0.000 A 
ATOM     16  C   UNL     1       1.209  14.975  18.788  0.00  0.00    +0.000 A 
ATOM     17  C   UNL     1       2.460  14.556  18.349  0.00  0.00    +0.000 A 
ATOM     18  C   UNL     1       2.743  13.190  18.234  0.00  0.00    +0.000 A 
ATOM     19  C   UNL     1       1.776  12.219  18.557  0.00  0.00    +0.000 A 
ATOM     20  C   UNL     1       2.047  10.830  18.567  0.00  0.00    +0.000 A 
ENDBRANCH   9  11
ENDBRANCH   5   7
ENDBRANCH   4   5
BRANCH   1  21
ATOM     21  C   UNL     1       4.794   5.646  17.058  0.00  0.00    +0.000 C 
BRANCH  21  22
ATOM     22  C   UNL     1       6.055   6.283  17.637  0.00  0.00    +0.000 A 
ATOM     23  C   UNL     1       6.413   7.576  17.215  0.00  0.00    +0.000 A 
ATOM     24  C   UNL     1       7.578   8.194  17.679  0.00  0.00    +0.000 A 
ATOM     25  C   UNL     1       8.406   7.533  18.580  0.00  0.00    +0.000 A 
ATOM     26  C   UNL     1       8.061   6.262  19.030  0.00  0.00    +0.000 A 
ATOM     27  C   UNL     1       6.893   5.645  18.570  0.00  0.00    +0.000 A 
ENDBRANCH  21  22
BRANCH  21  31
ATOM     28  C   UNL     1       6.049   3.548  14.174  0.00  0.00    +0.000 C 
ATOM     29  C   UNL     1       5.625   4.800  14.893  0.00  0.00    +0.000 C 
ATOM     30  O   UNL     1       5.775   5.912  14.402  0.00  0.00    +0.000 OA
ATOM     31  N   UNL     1       5.083   4.561  16.135  0.00  0.00    +0.000 N 
ATOM     32  H   UNL     1       4.965   3.614  16.457  0.00  0.00    +0.000 HD
ENDBRANCH  21  31
ENDBRANCH   1  21
TORSDOF 6
ENDMDL
MODEL 3
REMARK VINA RESULT:      -8.5      1.685      3.567
REMARK  Name = 
REMARK  9 active torsions:
REMARK  status: ('A' for Active; 'I' for Inactive)
REMARK    1  A    between atoms: C_1  and  C_2
REMARK    2  A    between atoms: N_4  and  C_5
REMARK    3  A    between atoms: C_5  and  C_6
REMARK    4  A    between atoms: C_5  and  C_12
REMARK    5  A    between atoms: C_12  and  C_13
REMARK    6  A    between atoms: C_15  and  C_16
REMARK    7  A    between atoms: C_16  and  C_17
REMARK    8  A    between atoms: C_16  and  C_18
REMARK    9  A    between atoms: N_20  and  C_21
REMARK                            x       y       z     vdW  Elec       q    Type
REMARK                         _______ _______ _______ _____ _____    ______ ____
ROOT
ATOM      1  C   UNL     1       5.342   4.604  17.073  0.00  0.00    +0.000 C 
ATOM      2  C   UNL     1       5.537   3.500  18.090  0.00  0.00    +0.000 C 
ATOM      3  C   UNL     1       4.081   4.457  16.229  0.00  0.00    +0.000 C 
ATOM      4  C   UNL     1       4.182   5.620  17.178  0.00  0.00    +0.000 C 
ENDROOT
BRANCH   4   5
ATOM      5  C   UNL     1       3.308   5.757  18.408  0.00  0.00    +0.000 C 
ATOM      6  C   UNL     1       2.171   4.740  18.405  0.00  0.00    +0.000 C 
BRANCH   5   7
ATOM      7  C   UNL     1       2.835   7.216  18.574  0.00  0.00    +0.000 C 
ATOM      8  O   UNL     1       3.024   8.005  17.656  0.00  0.00    +0.000 OA
ATOM      9  N   UNL     1       2.150   7.517  19.743  0.00  0.00    +0.000 N 
ATOM     10  H   UNL     1       2.237   6.888  20.532  0.00  0.00    +0.000 HD
BRANCH   9  11
ATOM     11  C   UNL     1       1.382   8.689  19.978  0.00  0.00    +0.000 A 
ATOM     12  C   UNL     1       1.053   9.572  18.951  0.00  0.00    +0.000 A 
ATOM     13  C   UNL     1       0.178  10.634  19.176  0.00  0.00    +0.000 A 
ATOM     14  C   UNL     1      -0.375  10.853  20.439  0.00  0.00    +0.000 A 
ATOM     15  C   UNL     1      -1.325  11.864  20.633  0.00  0.00    +0.000 A 
ATOM     16  C   UNL     1      -1.862  12.103  21.896  0.00  0.00    +0.000 A 
ATOM     17  C   UNL     1      -1.408  11.368  22.987  0.00  0.00    +0.000 A 
ATOM     18  C   UNL     1      -0.474  10.342  22.803  0.00  0.00    +0.000 A 
ATOM     19  C   UNL     1       0.023  10.035  21.521  0.00  0.00    +0.000 A 
ATOM     20  C   UNL     1       0.879   8.937  21.267  0.00  0.00    +0.000 A 
ENDBRANCH   9  11
ENDBRANCH   5   7
ENDBRANCH   4   5
BRANCH   1  21
ATOM     21  C   UNL     1       6.627   5.144  16.421  0.00  0.00    +0.000 C 
BRANCH  21  22
ATOM     22  C   UNL     1       6.736   4.784  14.942  0.00  0.00    +0.000 A 
ATOM     23  C   UNL     1       7.656   5.485  14.142  0.00  0.00    +0.000 A 
ATOM     24  C   UNL     1       7.771   5.226  12.773  0.00  0.00    +0.000 A 
ATOM     25  C   UNL     1       6.972   4.256  12.177  0.00  0.00    +0.000 A 
ATOM     26  C   UNL     1       6.070   3.534  12.952  0.00  0.00    +0.000 A 
ATOM     27  C   UNL     1       5.958   3.788  14.323  0.00  0.00    +0.000 A 
ENDBRANCH  21  22
BRANCH  21  31
ATOM     28  C   UNL     1       7.699   8.547  17.672  0.00  0.00    +0.000 C 
ATOM     29  C   UNL     1       7.511   7.054  17.710  0.00  0.00    +0.000 C 
ATOM     30  O   UNL     1       8.008   6.361  18.590  0.00  0.00    +0.000 OA
ATOM     31  N   UNL     1       6.756   6.571  16.666  0.00  0.00    +0.000 N 
ATOM     32  H   UNL     1       6.357   7.209  15.998  0.00  0.00    +0.000 HD
ENDBRANCH  21  31
ENDBRANCH   1  21
TORSDOF 6
ENDMDL
MODEL 4
REMARK VINA RESULT:      -8.4      2.570      9.594
REMARK  Name = 
REMARK  9 active torsions:
REMARK  status: ('A' for Active; 'I' for Inactive)
REMARK    1  A    between atoms: C_1  and  C_2
REMARK    2  A    between atoms: N_4  and  C_5
REMARK    3  A    between atoms: C_5  and  C_6
REMARK    4  A    between atoms: C_5  and  C_12
REMARK    5  A    between atoms: C_12  and  C_13
REMARK    6  A    between atoms: C_15  and  C_16
REMARK    7  A    between atoms: C_16  and  C_17
REMARK    8  A    between atoms: C_16  and  C_18
REMARK    9  A    between atoms: N_20  and  C_21
REMARK                            x       y       z     vdW  Elec       q    Type
REMARK                         _______ _______ _______ _____ _____    ______ ____
ROOT
ATOM      1  C   UNL     1      -0.456  11.726  20.637  0.00  0.00    +0.000 C 
ATOM      2  C   UNL     1      -1.376  11.415  21.799  0.00  0.00    +0.000 C 
ATOM      3  C   UNL     1       0.982  12.027  21.044  0.00  0.00    +0.000 C 
ATOM      4  C   UNL     1       0.704  10.789  20.234  0.00  0.00    +0.000 C 
ENDROOT
BRANCH   4   5
ATOM      5  C   UNL     1       0.870   9.389  20.789  0.00  0.00    +0.000 C 
ATOM      6  C   UNL     1       1.684   9.389  22.080  0.00  0.00    +0.000 C 
BRANCH   5   7
ATOM      7  C   UNL     1       1.426   8.442  19.706  0.00  0.00    +0.000 C 
ATOM      8  O   UNL     1       1.390   8.800  18.534  0.00  0.00    +0.000 OA
ATOM      9  N   UNL     1       2.006   7.262  20.151  0.00  0.00    +0.000 N 
ATOM     10  H   UNL     1       1.793   6.940  21.087  0.00  0.00    +0.000 HD
BRANCH   9  11
ATOM     11  C   UNL     1       2.826   6.396  19.379  0.00  0.00    +0.000 A 
ATOM     12  C   UNL     1       2.949   5.040  19.676  0.00  0.00    +0.000 A 
ATOM     13  C   UNL     1       3.640   4.181  18.822  0.00  0.00    +0.000 A 
ATOM     14  C   UNL     1       4.242   4.660  17.657  0.00  0.00    +0.000 A 
ATOM     15  C   UNL     1       4.852   3.777  16.757  0.00  0.00    +0.000 A 
ATOM     16  C   UNL     1       5.477   4.251  15.607  0.00  0.00    +0.000 A 
ATOM     17  C   UNL     1       5.546   5.622  15.376  0.00  0.00    +0.000 A 
ATOM     18  C   UNL     1       4.923   6.514  16.257  0.00  0.00    +0.000 A 
ATOM     19  C   UNL     1       4.221   6.048  17.386  0.00  0.00    +0.000 A 
ATOM     20  C   UNL     1       3.481   6.899  18.242  0.00  0.00    +0.000 A 
ENDBRANCH   9  11
ENDBRANCH   5   7
ENDBRANCH   4   5
BRANCH   1  21
ATOM     21  C   UNL     1      -1.093  12.514  19.478  0.00  0.00    +0.000 C 
BRANCH  21  22
ATOM     22  C   UNL     1      -2.357  11.850  18.936  0.00  0.00    +0.000 A 
ATOM     23  C   UNL     1      -2.225  10.723  18.106  0.00  0.00    +0.000 A 
ATOM     24  C   UNL     1      -3.345  10.099  17.548  0.00  0.00    +0.000 A 
ATOM     25  C   UNL     1      -4.620  10.586  17.814  0.00  0.00    +0.000 A 
ATOM     26  C   UNL     1      -4.777  11.687  18.651  0.00  0.00    +0.000 A 
ATOM     27  C   UNL     1      -3.657  12.309  19.214  0.00  0.00    +0.000 A 
ENDBRANCH  21  22
BRANCH  21  31
ATOM     28  C   UNL     1      -1.007  16.286  19.717  0.00  0.00    +0.000 C 
ATOM     29  C   UNL     1      -0.504  14.909  19.378  0.00  0.00    +0.000 C 
ATOM     30  O   UNL     1       0.514  14.735  18.718  0.00  0.00    +0.000 OA
ATOM     31  N   UNL     1      -1.303  13.899  19.864  0.00  0.00    +0.000 N 
ATOM     32  H   UNL     1      -2.109  14.123  20.424  0.00  0.00    +0.000 HD
ENDBRANCH  21  31
ENDBRANCH   1  21
TORSDOF 6
ENDMDL
MODEL 5
REMARK VINA RESULT:      -8.4      3.393      9.211
REMARK  Name = 
REMARK  9 active torsions:
REMARK  status: ('A' for Active; 'I' for Inactive)
REMARK    1  A    between atoms: C_1  and  C_2
REMARK    2  A    between atoms: N_4  and  C_5
REMARK    3  A    between atoms: C_5  and  C_6
REMARK    4  A    between atoms: C_5  and  C_12
REMARK    5  A    between atoms: C_12  and  C_13
REMARK    6  A    between atoms: C_15  and  C_16
REMARK    7  A    between atoms: C_16  and  C_17
REMARK    8  A    between atoms: C_16  and  C_18
REMARK    9  A    between atoms: N_20  and  C_21
REMARK                            x       y       z     vdW  Elec       q    Type
REMARK                         _______ _______ _______ _____ _____    ______ ____
ROOT
ATOM      1  C   UNL     1      -0.394  11.931  20.838  0.00  0.00    +0.000 C 
ATOM      2  C   UNL     1      -1.571  12.076  21.779  0.00  0.00    +0.000 C 
ATOM      3  C   UNL     1       0.955  12.246  21.474  0.00  0.00    +0.000 C 
ATOM      4  C   UNL     1       0.680  10.835  21.029  0.00  0.00    +0.000 C 
ENDROOT
BRANCH   4   5
ATOM      5  C   UNL     1       0.524   9.682  21.999  0.00  0.00    +0.000 C 
ATOM      6  C   UNL     1       1.583   9.725  23.097  0.00  0.00    +0.000 C 
BRANCH   5   7
ATOM      7  C   UNL     1       0.472   8.341  21.239  0.00  0.00    +0.000 C 
ATOM      8  O   UNL     1      -0.619   7.900  20.896  0.00  0.00    +0.000 OA
ATOM      9  N   UNL     1       1.691   7.756  20.926  0.00  0.00    +0.000 N 
ATOM     10  H   UNL     1       2.516   8.054  21.433  0.00  0.00    +0.000 HD
BRANCH   9  11
ATOM     11  C   UNL     1       1.893   6.699  19.999  0.00  0.00    +0.000 A 
ATOM     12  C   UNL     1       2.474   6.916  18.751  0.00  0.00    +0.000 A 
ATOM     13  C   UNL     1       2.797   5.845  17.917  0.00  0.00    +0.000 A 
ATOM     14  C   UNL     1       2.529   4.531  18.302  0.00  0.00    +0.000 A 
ATOM     15  C   UNL     1       2.941   3.458  17.502  0.00  0.00    +0.000 A 
ATOM     16  C   UNL     1       2.654   2.145  17.868  0.00  0.00    +0.000 A 
ATOM     17  C   UNL     1       1.901   1.899  19.012  0.00  0.00    +0.000 A 
ATOM     18  C   UNL     1       1.500   2.961  19.831  0.00  0.00    +0.000 A 
ATOM     19  C   UNL     1       1.846   4.289  19.517  0.00  0.00    +0.000 A 
ATOM     20  C   UNL     1       1.563   5.384  20.369  0.00  0.00    +0.000 A 
ENDBRANCH   9  11
ENDBRANCH   5   7
ENDBRANCH   4   5
BRANCH   1  21
ATOM     21  C   UNL     1      -0.654  12.343  19.378  0.00  0.00    +0.000 C 
BRANCH  21  22
ATOM     22  C   UNL     1      -1.773  11.535  18.726  0.00  0.00    +0.000 A 
ATOM     23  C   UNL     1      -3.095  12.002  18.837  0.00  0.00    +0.000 A 
ATOM     24  C   UNL     1      -4.165  11.284  18.295  0.00  0.00    +0.000 A 
ATOM     25  C   UNL     1      -3.934  10.086  17.626  0.00  0.00    +0.000 A 
ATOM     26  C   UNL     1      -2.632   9.615  17.485  0.00  0.00    +0.000 A 
ATOM     27  C   UNL     1      -1.560  10.336  18.022  0.00  0.00    +0.000 A 
ENDBRANCH  21  22
BRANCH  21  31
ATOM     28  C   UNL     1      -0.376  16.028  18.581  0.00  0.00    +0.000 C 
ATOM     29  C   UNL     1       0.105  14.618  18.796  0.00  0.00    +0.000 C 
ATOM     30  O   UNL     1       1.252  14.278  18.532  0.00  0.00    +0.000 OA
ATOM     31  N   UNL     1      -0.867  13.778  19.289  0.00  0.00    +0.000 N 
ATOM     32  H   UNL     1      -1.779  14.141  19.509  0.00  0.00    +0.000 HD
ENDBRANCH  21  31
ENDBRANCH   1  21
TORSDOF 6
ENDMDL
MODEL 6
REMARK VINA RESULT:      -8.4      3.310      9.694
REMARK  Name = 
REMARK  9 active torsions:
REMARK  status: ('A' for Active; 'I' for Inactive)
REMARK    1  A    between atoms: C_1  and  C_2
REMARK    2  A    between atoms: N_4  and  C_5
REMARK    3  A    between atoms: C_5  and  C_6
REMARK    4  A    between atoms: C_5  and  C_12
REMARK    5  A    between atoms: C_12  and  C_13
REMARK    6  A    between atoms: C_15  and  C_16
REMARK    7  A    between atoms: C_16  and  C_17
REMARK    8  A    between atoms: C_16  and  C_18
REMARK    9  A    between atoms: N_20  and  C_21
REMARK                            x       y       z     vdW  Elec       q    Type
REMARK                         _______ _______ _______ _____ _____    ______ ____
ROOT
ATOM      1  C   UNL     1      -1.319  11.661  18.857  0.00  0.00    +0.000 C 
ATOM      2  C   UNL     1      -0.577  12.951  18.578  0.00  0.00    +0.000 C 
ATOM      3  C   UNL     1      -1.138  10.593  17.784  0.00  0.00    +0.000 C 
ATOM      4  C   UNL     1      -0.580  10.338  19.158  0.00  0.00    +0.000 C 
ENDROOT
BRANCH   4   5
ATOM      5  C   UNL     1       0.906  10.264  19.443  0.00  0.00    +0.000 C 
ATOM      6  C   UNL     1       1.732  10.648  18.218  0.00  0.00    +0.000 C 
BRANCH   5   7
ATOM      7  C   UNL     1       1.276   8.888  20.033  0.00  0.00    +0.000 C 
ATOM      8  O   UNL     1       0.842   8.585  21.138  0.00  0.00    +0.000 OA
ATOM      9  N   UNL     1       2.025   8.045  19.223  0.00  0.00    +0.000 N 
ATOM     10  H   UNL     1       2.527   8.445  18.441  0.00  0.00    +0.000 HD
BRANCH   9  11
ATOM     11  C   UNL     1       2.227   6.655  19.433  0.00  0.00    +0.000 A 
ATOM     12  C   UNL     1       1.783   6.012  20.587  0.00  0.00    +0.000 A 
ATOM     13  C   UNL     1       1.861   4.624  20.706  0.00  0.00    +0.000 A 
ATOM     14  C   UNL     1       2.402   3.846  19.682  0.00  0.00    +0.000 A 
ATOM     15  C   UNL     1       2.390   2.447  19.769  0.00  0.00    +0.000 A 
ATOM     16  C   UNL     1       2.951   1.666  18.762  0.00  0.00    +0.000 A 
ATOM     17  C   UNL     1       3.581   2.281  17.685  0.00  0.00    +0.000 A 
ATOM     18  C   UNL     1       3.583   3.676  17.576  0.00  0.00    +0.000 A 
ATOM     19  C   UNL     1       2.954   4.481  18.545  0.00  0.00    +0.000 A 
ATOM     20  C   UNL     1       2.829   5.886  18.422  0.00  0.00    +0.000 A 
ENDBRANCH   9  11
ENDBRANCH   5   7
ENDBRANCH   4   5
BRANCH   1  21
ATOM     21  C   UNL     1      -2.688  11.815  19.544  0.00  0.00    +0.000 C 
BRANCH  21  22
ATOM     22  C   UNL     1      -2.607  12.590  20.856  0.00  0.00    +0.000 A 
ATOM     23  C   UNL     1      -3.321  13.795  20.975  0.00  0.00    +0.000 A 
ATOM     24  C   UNL     1      -3.253  14.568  22.138  0.00  0.00    +0.000 A 
ATOM     25  C   UNL     1      -2.472  14.147  23.209  0.00  0.00    +0.000 A 
ATOM     26  C   UNL     1      -1.773  12.947  23.124  0.00  0.00    +0.000 A 
ATOM     27  C   UNL     1      -1.845  12.171  21.963  0.00  0.00    +0.000 A 
ENDBRANCH  21  22
BRANCH  21  31
ATOM     28  C   UNL     1      -5.657  12.380  17.272  0.00  0.00    +0.000 C 
ATOM     29  C   UNL     1      -4.620  11.590  18.024  0.00  0.00    +0.000 C 
ATOM     30  O   UNL     1      -4.664  10.368  18.098  0.00  0.00    +0.000 OA
ATOM     31  N   UNL     1      -3.658  12.375  18.617  0.00  0.00    +0.000 N 
ATOM     32  H   UNL     1      -3.673  13.373  18.484  0.00  0.00    +0.000 HD
ENDBRANCH  21  31
ENDBRANCH   1  21
TORSDOF 6
ENDMDL
MODEL 7
REMARK VINA RESULT:      -8.3      1.310      2.223
REMARK  Name = 
REMARK  9 active torsions:
REMARK  status: ('A' for Active; 'I' for Inactive)
REMARK    1  A    between atoms: C_1  and  C_2
REMARK    2  A    between atoms: N_4  and  C_5
REMARK    3  A    between atoms: C_5  and  C_6
REMARK    4  A    between atoms: C_5  and  C_12
REMARK    5  A    between atoms: C_12  and  C_13
REMARK    6  A    between atoms: C_15  and  C_16
REMARK    7  A    between atoms: C_16  and  C_17
REMARK    8  A    between atoms: C_16  and  C_18
REMARK    9  A    between atoms: N_20  and  C_21
REMARK                            x       y       z     vdW  Elec       q    Type
REMARK                         _______ _______ _______ _____ _____    ______ ____
ROOT
ATOM      1  C   UNL     1       3.910   4.810  18.080  0.00  0.00    +0.000 C 
ATOM      2  C   UNL     1       4.568   3.845  19.043  0.00  0.00    +0.000 C 
ATOM      3  C   UNL     1       2.471   4.453  17.727  0.00  0.00    +0.000 C 
ATOM      4  C   UNL     1       2.732   5.715  18.503  0.00  0.00    +0.000 C 
ENDROOT
BRANCH   4   5
ATOM      5  C   UNL     1       2.303   5.899  19.944  0.00  0.00    +0.000 C 
ATOM      6  C   UNL     1       1.347   4.796  20.390  0.00  0.00    +0.000 C 
BRANCH   5   7
ATOM      7  C   UNL     1       1.754   7.322  20.167  0.00  0.00    +0.000 C 
ATOM      8  O   UNL     1       1.543   7.700  21.314  0.00  0.00    +0.000 OA
ATOM      9  N   UNL     1       1.606   8.116  19.038  0.00  0.00    +0.000 N 
ATOM     10  H   UNL     1       1.580   7.668  18.131  0.00  0.00    +0.000 HD
BRANCH   9  11
ATOM     11  C   UNL     1       1.403   9.522  19.031  0.00  0.00    +0.000 A 
ATOM     12  C   UNL     1       2.233  10.382  18.314  0.00  0.00    +0.000 A 
ATOM     13  C   UNL     1       1.930  11.738  18.201  0.00  0.00    +0.000 A 
ATOM     14  C   UNL     1       0.799  12.274  18.818  0.00  0.00    +0.000 A 
ATOM     15  C   UNL     1       0.450  13.617  18.622  0.00  0.00    +0.000 A 
ATOM     16  C   UNL     1      -0.663  14.163  19.256  0.00  0.00    +0.000 A 
ATOM     17  C   UNL     1      -1.404  13.383  20.138  0.00  0.00    +0.000 A 
ATOM     18  C   UNL     1      -1.079  12.035  20.328  0.00  0.00    +0.000 A 
ATOM     19  C   UNL     1      -0.003  11.445  19.637  0.00  0.00    +0.000 A 
ATOM     20  C   UNL     1       0.296  10.063  19.707  0.00  0.00    +0.000 A 
ENDBRANCH   9  11
ENDBRANCH   5   7
ENDBRANCH   4   5
BRANCH   1  21
ATOM     21  C   UNL     1       4.829   5.398  16.994  0.00  0.00    +0.000 C 
BRANCH  21  22
ATOM     22  C   UNL     1       6.075   6.064  17.572  0.00  0.00    +0.000 A 
ATOM     23  C   UNL     1       6.820   5.375  18.546  0.00  0.00    +0.000 A 
ATOM     24  C   UNL     1       7.946   5.950  19.140  0.00  0.00    +0.000 A 
ATOM     25  C   UNL     1       8.355   7.226  18.768  0.00  0.00    +0.000 A 
ATOM     26  C   UNL     1       7.647   7.920  17.790  0.00  0.00    +0.000 A 
ATOM     27  C   UNL     1       6.523   7.342  17.192  0.00  0.00    +0.000 A 
ENDBRANCH  21  22
BRANCH  21  31
ATOM     28  C   UNL     1       6.109   3.549  13.955  0.00  0.00    +0.000 C 
ATOM     29  C   UNL     1       5.654   4.733  14.765  0.00  0.00    +0.000 C 
ATOM     30  O   UNL     1       5.759   5.881  14.350  0.00  0.00    +0.000 OA
ATOM     31  N   UNL     1       5.139   4.390  15.994  0.00  0.00    +0.000 N 
ATOM     32  H   UNL     1       5.059   3.420  16.251  0.00  0.00    +0.000 HD
ENDBRANCH  21  31
ENDBRANCH   1  21
TORSDOF 6
ENDMDL
MODEL 8
REMARK VINA RESULT:      -8.3      3.492      7.622
REMARK  Name = 
REMARK  9 active torsions:
REMARK  status: ('A' for Active; 'I' for Inactive)
REMARK    1  A    between atoms: C_1  and  C_2
REMARK    2  A    between atoms: N_4  and  C_5
REMARK    3  A    between atoms: C_5  and  C_6
REMARK    4  A    between atoms: C_5  and  C_12
REMARK    5  A    between atoms: C_12  and  C_13
REMARK    6  A    between atoms: C_15  and  C_16
REMARK    7  A    between atoms: C_16  and  C_17
REMARK    8  A    between atoms: C_16  and  C_18
REMARK    9  A    between atoms: N_20  and  C_21
REMARK                            x       y       z     vdW  Elec       q    Type
REMARK                         _______ _______ _______ _____ _____    ______ ____
ROOT
ATOM      1  C   UNL     1       4.914   5.176  17.498  0.00  0.00    +0.000 C 
ATOM      2  C   UNL     1       5.353   4.676  16.138  0.00  0.00    +0.000 C 
ATOM      3  C   UNL     1       5.411   4.328  18.663  0.00  0.00    +0.000 C 
ATOM      4  C   UNL     1       5.919   5.738  18.528  0.00  0.00    +0.000 C 
ENDROOT
BRANCH   4   5
ATOM      5  C   UNL     1       7.359   6.065  18.190  0.00  0.00    +0.000 C 
ATOM      6  C   UNL     1       8.319   5.548  19.258  0.00  0.00    +0.000 C 
BRANCH   5   7
ATOM      7  C   UNL     1       7.516   7.570  17.893  0.00  0.00    +0.000 C 
ATOM      8  O   UNL     1       6.652   8.134  17.231  0.00  0.00    +0.000 OA
ATOM      9  N   UNL     1       8.605   8.208  18.470  0.00  0.00    +0.000 N 
ATOM     10  H   UNL     1       9.378   7.643  18.800  0.00  0.00    +0.000 HD
BRANCH   9  11
ATOM     11  C   UNL     1       8.786   9.613  18.576  0.00  0.00    +0.000 A 
ATOM     12  C   UNL     1       8.340  10.489  17.588  0.00  0.00    +0.000 A 
ATOM     13  C   UNL     1       8.395  11.869  17.781  0.00  0.00    +0.000 A 
ATOM     14  C   UNL     1       8.917  12.409  18.957  0.00  0.00    +0.000 A 
ATOM     15  C   UNL     1       8.882  13.792  19.181  0.00  0.00    +0.000 A 
ATOM     16  C   UNL     1       9.424  14.339  20.342  0.00  0.00    +0.000 A 
ATOM     17  C   UNL     1      10.057  13.509  21.263  0.00  0.00    +0.000 A 
ATOM     18  C   UNL     1      10.081  12.125  21.060  0.00  0.00    +0.000 A 
ATOM     19  C   UNL     1       9.471  11.546  19.930  0.00  0.00    +0.000 A 
ATOM     20  C   UNL     1       9.369  10.147  19.738  0.00  0.00    +0.000 A 
ENDBRANCH   9  11
ENDBRANCH   5   7
ENDBRANCH   4   5
BRANCH   1  21
ATOM     21  C   UNL     1       3.504   5.790  17.559  0.00  0.00    +0.000 C 
BRANCH  21  22
ATOM     22  C   UNL     1       2.579   5.050  18.522  0.00  0.00    +0.000 A 
ATOM     23  C   UNL     1       1.843   3.952  18.043  0.00  0.00    +0.000 A 
ATOM     24  C   UNL     1       0.950   3.263  18.868  0.00  0.00    +0.000 A 
ATOM     25  C   UNL     1       0.779   3.653  20.191  0.00  0.00    +0.000 A 
ATOM     26  C   UNL     1       1.513   4.724  20.694  0.00  0.00    +0.000 A 
ATOM     27  C   UNL     1       2.411   5.411  19.871  0.00  0.00    +0.000 A 
ENDBRANCH  21  22
BRANCH  21  31
ATOM     28  C   UNL     1       2.710   9.416  18.272  0.00  0.00    +0.000 C 
ATOM     29  C   UNL     1       2.477   8.026  17.744  0.00  0.00    +0.000 C 
ATOM     30  O   UNL     1       1.391   7.676  17.299  0.00  0.00    +0.000 OA
ATOM     31  N   UNL     1       3.584   7.214  17.834  0.00  0.00    +0.000 N 
ATOM     32  H   UNL     1       4.452   7.586  18.185  0.00  0.00    +0.000 HD
ENDBRANCH  21  31
ENDBRANCH   1  21
TORSDOF 6
ENDMDL
MODEL 9
REMARK VINA RESULT:      -8.3      2.613      9.650
REMARK  Name = 
REMARK  9 active torsions:
REMARK  status: ('A' for Active; 'I' for Inactive)
REMARK    1  A    between atoms: C_1  and  C_2
REMARK    2  A    between atoms: N_4  and  C_5
REMARK    3  A    between atoms: C_5  and  C_6
REMARK    4  A    between atoms: C_5  and  C_12
REMARK    5  A    between atoms: C_12  and  C_13
REMARK    6  A    between atoms: C_15  and  C_16
REMARK    7  A    between atoms: C_16  and  C_17
REMARK    8  A    between atoms: C_16  and  C_18
REMARK    9  A    between atoms: N_20  and  C_21
REMARK                            x       y       z     vdW  Elec       q    Type
REMARK                         _______ _______ _______ _____ _____    ______ ____
ROOT
ATOM      1  C   UNL     1      -0.299  11.632  20.267  0.00  0.00    +0.000 C 
ATOM      2  C   UNL     1      -1.147  11.334  21.486  0.00  0.00    +0.000 C 
ATOM      3  C   UNL     1       1.174  11.872  20.576  0.00  0.00    +0.000 C 
ATOM      4  C   UNL     1       0.794  10.660  19.770  0.00  0.00    +0.000 C 
ENDROOT
BRANCH   4   5
ATOM      5  C   UNL     1       0.944   9.245  20.290  0.00  0.00    +0.000 C 
ATOM      6  C   UNL     1       1.743   9.206  21.590  0.00  0.00    +0.000 C 
BRANCH   5   7
ATOM      7  C   UNL     1       1.505   8.322  19.190  0.00  0.00    +0.000 C 
ATOM      8  O   UNL     1       1.536   8.732  18.035  0.00  0.00    +0.000 OA
ATOM      9  N   UNL     1       2.014   7.099  19.604  0.00  0.00    +0.000 N 
ATOM     10  H   UNL     1       1.747   6.747  20.515  0.00  0.00    +0.000 HD
BRANCH   9  11
ATOM     11  C   UNL     1       2.830   6.231  18.829  0.00  0.00    +0.000 A 
ATOM     12  C   UNL     1       2.372   4.992  18.385  0.00  0.00    +0.000 A 
ATOM     13  C   UNL     1       3.133   4.223  17.505  0.00  0.00    +0.000 A 
ATOM     14  C   UNL     1       4.380   4.665  17.061  0.00  0.00    +0.000 A 
ATOM     15  C   UNL     1       5.095   3.932  16.104  0.00  0.00    +0.000 A 
ATOM     16  C   UNL     1       6.351   4.355  15.676  0.00  0.00    +0.000 A 
ATOM     17  C   UNL     1       6.926   5.487  16.244  0.00  0.00    +0.000 A 
ATOM     18  C   UNL     1       6.215   6.239  17.186  0.00  0.00    +0.000 A 
ATOM     19  C   UNL     1       4.913   5.870  17.575  0.00  0.00    +0.000 A 
ATOM     20  C   UNL     1       4.110   6.658  18.435  0.00  0.00    +0.000 A 
ENDBRANCH   9  11
ENDBRANCH   5   7
ENDBRANCH   4   5
BRANCH   1  21
ATOM     21  C   UNL     1      -0.984  12.463  19.168  0.00  0.00    +0.000 C 
BRANCH  21  22
ATOM     22  C   UNL     1      -2.213  11.772  18.583  0.00  0.00    +0.000 A 
ATOM     23  C   UNL     1      -3.489  12.227  18.961  0.00  0.00    +0.000 A 
ATOM     24  C   UNL     1      -4.649  11.607  18.490  0.00  0.00    +0.000 A 
ATOM     25  C   UNL     1      -4.558  10.522  17.625  0.00  0.00    +0.000 A 
ATOM     26  C   UNL     1      -3.307  10.067  17.219  0.00  0.00    +0.000 A 
ATOM     27  C   UNL     1      -2.145  10.690  17.686  0.00  0.00    +0.000 A 
ENDBRANCH  21  22
BRANCH  21  31
ATOM     28  C   UNL     1      -1.054  16.204  19.713  0.00  0.00    +0.000 C 
ATOM     29  C   UNL     1      -0.482  14.877  19.294  0.00  0.00    +0.000 C 
ATOM     30  O   UNL     1       0.576  14.792  18.681  0.00  0.00    +0.000 OA
ATOM     31  N   UNL     1      -1.267  13.805  19.651  0.00  0.00    +0.000 N 
ATOM     32  H   UNL     1      -2.109  13.955  20.181  0.00  0.00    +0.000 HD
ENDBRANCH  21  31
ENDBRANCH   1  21
TORSDOF 6
ENDMDL
