MODEL 1
REMARK VINA RESULT:      -8.8      0.000      0.000
REMARK  Name = 
REMARK  5 active torsions:
REMARK  status: ('A' for Active; 'I' for Inactive)
REMARK    1  A    between atoms: C_2  and  C_11
REMARK    2  A    between atoms: N_3  and  C_4
REMARK    3  A    between atoms: C_4  and  C_5
REMARK    4  A    between atoms: C_14  and  C_15
REMARK    5  A    between atoms: C_15  and  N_16
REMARK                            x       y       z     vdW  Elec       q    Type
REMARK                         _______ _______ _______ _____ _____    ______ ____
ROOT
ATOM      1  C   UNL     1       2.359   7.452  18.978  0.00  0.00    +0.000 A 
ATOM      2  C   UNL     1       2.060   8.166  17.824  0.00  0.00    +0.000 A 
ATOM      3  C   UNL     1       1.350   9.378  17.915  0.00  0.00    +0.000 A 
ATOM      4  C   UNL     1       0.727   9.777  19.102  0.00  0.00    +0.000 A 
ATOM      5  C   UNL     1       0.992   9.020  20.233  0.00  0.00    +0.000 A 
ATOM      6  C   UNL     1       1.783   7.870  20.174  0.00  0.00    +0.000 A 
ENDROOT
BRANCH   1   8
ATOM      7  O   UNL     1       3.394   5.632  20.051  0.00  0.00    +0.000 OA
ATOM      8  C   UNL     1       3.294   6.290  19.022  0.00  0.00    +0.000 C 
ATOM      9  N   UNL     1       4.069   6.048  17.906  0.00  0.00    +0.000 N 
ATOM     10  H   UNL     1       3.997   6.657  17.105  0.00  0.00    +0.000 HD
BRANCH   9  11
ATOM     11  C   UNL     1       5.065   4.981  17.880  0.00  0.00    +0.000 C 
BRANCH  11  12
ATOM     12  C   UNL     1       5.768   4.866  16.558  0.00  0.00    +0.000 A 
ATOM     13  C   UNL     1       5.322   4.024  15.542  0.00  0.00    +0.000 A 
ATOM     14  C   UNL     1       6.000   3.968  14.337  0.00  0.00    +0.000 A 
ATOM     15  C   UNL     1       7.130   4.744  14.187  0.00  0.00    +0.000 A 
ATOM     16  N   UNL     1       7.625   5.546  15.152  0.00  0.00    +0.000 NA
ATOM     17  C   UNL     1       6.937   5.581  16.316  0.00  0.00    +0.000 A 
ENDBRANCH  11  12
ENDBRANCH   9  11
ENDBRANCH   1   8
BRANCH   4  18
ATOM     18  C   UNL     1      -0.234  10.944  19.104  0.00  0.00    +0.000 C 
BRANCH  18  19
ATOM     19  N   UNL     1      -1.211  10.993  18.031  0.00  0.00    +0.000 NA
ATOM     20  C   UNL     1      -2.490  11.252  18.612  0.00  0.00    +0.000 C 
ATOM     21  C   UNL     1      -3.828  10.327  17.249  0.00  0.00    +0.000 C 
ATOM     22  C   UNL     1      -4.861  10.971  18.004  0.00  0.00    +0.000 A 
ATOM     23  C   UNL     1      -5.923  10.324  18.789  0.00  0.00    +0.000 A 
ATOM     24  C   UNL     1      -7.097  10.879  18.798  0.00  0.00    +0.000 A 
ATOM     25  C   UNL     1      -6.893  11.987  17.922  0.00  0.00    +0.000 A 
ATOM     26  C   UNL     1      -5.403  12.282  17.176  0.00  0.00    +0.000 A 
ATOM     27  C   UNL     1      -3.823  11.555  17.262  0.00  0.00    +0.000 A 
ATOM     28  C   UNL     1      -2.222  10.111  17.733  0.00  0.00    +0.000 C 
ENDBRANCH  18  19
ENDBRANCH   4  18
TORSDOF 5
ENDMDL
MODEL 2
REMARK VINA RESULT:      -8.5      6.875     10.364
REMARK  Name = 
REMARK  5 active torsions:
REMARK  status: ('A' for Active; 'I' for Inactive)
REMARK    1  A    between atoms: C_2  and  C_11
REMARK    2  A    between atoms: N_3  and  C_4
REMARK    3  A    between atoms: C_4  and  C_5
REMARK    4  A    between atoms: C_14  and  C_15
REMARK    5  A    between atoms: C_15  and  N_16
REMARK                            x       y       z     vdW  Elec       q    Type
REMARK                         _______ _______ _______ _____ _____    ______ ____
ROOT
ATOM      1  C   UNL     1       6.398   5.821  18.004  0.00  0.00    +0.000 A 
ATOM      2  C   UNL     1       5.945   6.912  17.271  0.00  0.00    +0.000 A 
ATOM      3  C   UNL     1       6.747   8.063  17.161  0.00  0.00    +0.000 A 
ATOM      4  C   UNL     1       7.883   8.246  17.957  0.00  0.00    +0.000 A 
ATOM      5  C   UNL     1       8.289   7.165  18.725  0.00  0.00    +0.000 A 
ATOM      6  C   UNL     1       7.556   5.977  18.762  0.00  0.00    +0.000 A 
ENDROOT
BRANCH   1   8
ATOM      7  O   UNL     1       5.415   3.973  16.930  0.00  0.00    +0.000 OA
ATOM      8  C   UNL     1       5.744   4.480  17.996  0.00  0.00    +0.000 C 
ATOM      9  N   UNL     1       5.472   3.892  19.216  0.00  0.00    +0.000 N 
ATOM     10  H   UNL     1       5.706   4.378  20.068  0.00  0.00    +0.000 HD
BRANCH   9  11
ATOM     11  C   UNL     1       4.769   2.616  19.312  0.00  0.00    +0.000 C 
BRANCH  11  12
ATOM     12  C   UNL     1       3.280   2.774  19.417  0.00  0.00    +0.000 A 
ATOM     13  C   UNL     1       2.648   3.175  20.593  0.00  0.00    +0.000 A 
ATOM     14  C   UNL     1       1.272   3.318  20.629  0.00  0.00    +0.000 A 
ATOM     15  C   UNL     1       0.555   3.032  19.486  0.00  0.00    +0.000 A 
ATOM     16  N   UNL     1       1.114   2.604  18.335  0.00  0.00    +0.000 NA
ATOM     17  C   UNL     1       2.461   2.478  18.332  0.00  0.00    +0.000 A 
ENDBRANCH  11  12
ENDBRANCH   9  11
ENDBRANCH   1   8
BRANCH   4  18
ATOM     18  C   UNL     1       8.575   9.589  18.002  0.00  0.00    +0.000 C 
BRANCH  18  19
ATOM     19  N   UNL     1       9.162   9.984  19.271  0.00  0.00    +0.000 NA
ATOM     20  C   UNL     1       9.116  11.409  19.352  0.00  0.00    +0.000 C 
ATOM     21  C   UNL     1      10.779  11.869  20.587  0.00  0.00    +0.000 C 
ATOM     22  C   UNL     1      10.259  13.203  20.595  0.00  0.00    +0.000 A 
ATOM     23  C   UNL     1      10.900  14.411  20.052  0.00  0.00    +0.000 A 
ATOM     24  C   UNL     1      10.741  15.526  20.697  0.00  0.00    +0.000 A 
ATOM     25  C   UNL     1       9.966  15.099  21.815  0.00  0.00    +0.000 A 
ATOM     26  C   UNL     1       9.503  13.484  22.027  0.00  0.00    +0.000 A 
ATOM     27  C   UNL     1       9.668  12.028  21.085  0.00  0.00    +0.000 A 
ATOM     28  C   UNL     1      10.348  10.633  19.516  0.00  0.00    +0.000 C 
ENDBRANCH  18  19
ENDBRANCH   4  18
TORSDOF 5
ENDMDL
MODEL 3
REMARK VINA RESULT:      -8.5      6.701     10.465
REMARK  Name = 
REMARK  5 active torsions:
REMARK  status: ('A' for Active; 'I' for Inactive)
REMARK    1  A    between atoms: C_2  and  C_11
REMARK    2  A    between atoms: N_3  and  C_4
REMARK    3  A    between atoms: C_4  and  C_5
REMARK    4  A    between atoms: C_14  and  C_15
REMARK    5  A    between atoms: C_15  and  N_16
REMARK                            x       y       z     vdW  Elec       q    Type
REMARK                         _______ _______ _______ _____ _____    ______ ____
ROOT
ATOM      1  C   UNL     1       6.230   5.398  18.052  0.00  0.00    +0.000 A 
ATOM      2  C   UNL     1       7.437   5.538  18.728  0.00  0.00    +0.000 A 
ATOM      3  C   UNL     1       8.097   6.781  18.731  0.00  0.00    +0.000 A 
ATOM      4  C   UNL     1       7.705   7.823  17.883  0.00  0.00    +0.000 A 
ATOM      5  C   UNL     1       6.528   7.643  17.173  0.00  0.00    +0.000 A 
ATOM      6  C   UNL     1       5.807   6.449  17.243  0.00  0.00    +0.000 A 
ENDROOT
BRANCH   1   8
ATOM      7  O   UNL     1       4.526   3.967  17.287  0.00  0.00    +0.000 OA
ATOM      8  C   UNL     1       5.338   4.207  18.173  0.00  0.00    +0.000 C 
ATOM      9  N   UNL     1       5.423   3.458  19.329  0.00  0.00    +0.000 N 
ATOM     10  H   UNL     1       6.064   3.734  20.058  0.00  0.00    +0.000 HD
BRANCH   9  11
ATOM     11  C   UNL     1       4.542   2.320  19.572  0.00  0.00    +0.000 C 
BRANCH  11  12
ATOM     12  C   UNL     1       3.099   2.713  19.705  0.00  0.00    +0.000 A 
ATOM     13  C   UNL     1       2.668   3.695  20.595  0.00  0.00    +0.000 A 
ATOM     14  C   UNL     1       1.326   4.028  20.666  0.00  0.00    +0.000 A 
ATOM     15  C   UNL     1       0.440   3.349  19.856  0.00  0.00    +0.000 A 
ATOM     16  N   UNL     1       0.801   2.365  19.007  0.00  0.00    +0.000 NA
ATOM     17  C   UNL     1       2.120   2.066  18.958  0.00  0.00    +0.000 A 
ENDBRANCH  11  12
ENDBRANCH   9  11
ENDBRANCH   1   8
BRANCH   4  18
ATOM     18  C   UNL     1       8.580   9.046  17.723  0.00  0.00    +0.000 C 
BRANCH  18  19
ATOM     19  N   UNL     1       8.500  10.052  18.769  0.00  0.00    +0.000 NA
ATOM     20  C   UNL     1       9.391  11.113  18.425  0.00  0.00    +0.000 C 
ATOM     21  C   UNL     1       9.944  11.901  20.317  0.00  0.00    +0.000 C 
ATOM     22  C   UNL     1      10.560  12.956  19.570  0.00  0.00    +0.000 A 
ATOM     23  C   UNL     1      11.992  13.288  19.515  0.00  0.00    +0.000 A 
ATOM     24  C   UNL     1      12.324  14.541  19.449  0.00  0.00    +0.000 A 
ATOM     25  C   UNL     1      11.048  15.176  19.503  0.00  0.00    +0.000 A 
ATOM     26  C   UNL     1       9.608  14.294  19.629  0.00  0.00    +0.000 A 
ATOM     27  C   UNL     1       9.204  12.600  19.628  0.00  0.00    +0.000 A 
ATOM     28  C   UNL     1       9.439  10.407  19.708  0.00  0.00    +0.000 C 
ENDBRANCH  18  19
ENDBRANCH   4  18
TORSDOF 5
ENDMDL
MODEL 4
REMARK VINA RESULT:      -8.4      3.094      3.698
REMARK  Name = 
REMARK  5 active torsions:
REMARK  status: ('A' for Active; 'I' for Inactive)
REMARK    1  A    between atoms: C_2  and  C_11
REMARK    2  A    between atoms: N_3  and  C_4
REMARK    3  A    between atoms: C_4  and  C_5
REMARK    4  A    between atoms: C_14  and  C_15
REMARK    5  A    between atoms: C_15  and  N_16
REMARK                            x       y       z     vdW  Elec       q    Type
REMARK                         _______ _______ _______ _____ _____    ______ ____
ROOT
ATOM      1  C   UNL     1       2.225   7.415  18.949  0.00  0.00    +0.000 A 
ATOM      2  C   UNL     1       1.847   7.749  20.245  0.00  0.00    +0.000 A 
ATOM      3  C   UNL     1       1.104   8.922  20.477  0.00  0.00    +0.000 A 
ATOM      4  C   UNL     1       0.931   9.891  19.483  0.00  0.00    +0.000 A 
ATOM      5  C   UNL     1       1.364   9.563  18.207  0.00  0.00    +0.000 A 
ATOM      6  C   UNL     1       2.011   8.354  17.943  0.00  0.00    +0.000 A 
ENDROOT
BRANCH   1   8
ATOM      7  O   UNL     1       2.106   5.274  17.982  0.00  0.00    +0.000 OA
ATOM      8  C   UNL     1       2.805   6.096  18.561  0.00  0.00    +0.000 C 
ATOM      9  N   UNL     1       4.105   5.831  18.943  0.00  0.00    +0.000 N 
ATOM     10  H   UNL     1       4.619   6.516  19.475  0.00  0.00    +0.000 HD
BRANCH   9  11
ATOM     11  C   UNL     1       4.735   4.542  18.675  0.00  0.00    +0.000 C 
BRANCH  11  12
ATOM     12  C   UNL     1       5.506   4.522  17.387  0.00  0.00    +0.000 A 
ATOM     13  C   UNL     1       4.919   4.192  16.167  0.00  0.00    +0.000 A 
ATOM     14  C   UNL     1       5.674   4.203  15.006  0.00  0.00    +0.000 A 
ATOM     15  C   UNL     1       7.012   4.524  15.101  0.00  0.00    +0.000 A 
ATOM     16  N   UNL     1       7.636   4.812  16.262  0.00  0.00    +0.000 NA
ATOM     17  C   UNL     1       6.870   4.796  17.376  0.00  0.00    +0.000 A 
ENDBRANCH  11  12
ENDBRANCH   9  11
ENDBRANCH   1   8
BRANCH   4  18
ATOM     18  C   UNL     1       0.353  11.244  19.830  0.00  0.00    +0.000 C 
BRANCH  18  19
ATOM     19  N   UNL     1       0.010  11.475  21.223  0.00  0.00    +0.000 NA
ATOM     20  C   UNL     1      -1.331  11.965  21.270  0.00  0.00    +0.000 C 
ATOM     21  C   UNL     1      -1.341  13.155  23.026  0.00  0.00    +0.000 C 
ATOM     22  C   UNL     1      -2.758  13.227  22.832  0.00  0.00    +0.000 A 
ATOM     23  C   UNL     1      -3.558  14.430  22.552  0.00  0.00    +0.000 A 
ATOM     24  C   UNL     1      -4.739  14.513  23.085  0.00  0.00    +0.000 A 
ATOM     25  C   UNL     1      -4.793  13.306  23.843  0.00  0.00    +0.000 A 
ATOM     26  C   UNL     1      -3.505  12.208  23.883  0.00  0.00    +0.000 A 
ATOM     27  C   UNL     1      -1.963  12.097  23.079  0.00  0.00    +0.000 A 
ATOM     28  C   UNL     1      -0.198  12.663  21.882  0.00  0.00    +0.000 C 
ENDBRANCH  18  19
ENDBRANCH   4  18
TORSDOF 5
ENDMDL
MODEL 5
REMARK VINA RESULT:      -8.2      2.975      3.453
REMARK  Name = 
REMARK  5 active torsions:
REMARK  status: ('A' for Active; 'I' for Inactive)
REMARK    1  A    between atoms: C_2  and  C_11
REMARK    2  A    between atoms: N_3  and  C_4
REMARK    3  A    between atoms: C_4  and  C_5
REMARK    4  A    between atoms: C_14  and  C_15
REMARK    5  A    between atoms: C_15  and  N_16
REMARK                            x       y       z     vdW  Elec       q    Type
REMARK                         _______ _______ _______ _____ _____    ______ ____
ROOT
ATOM      1  C   UNL     1       2.309   7.398  18.883  0.00  0.00    +0.000 A 
ATOM      2  C   UNL     1       2.131   8.361  17.896  0.00  0.00    +0.000 A 
ATOM      3  C   UNL     1       1.657   9.640  18.243  0.00  0.00    +0.000 A 
ATOM      4  C   UNL     1       1.133   9.910  19.511  0.00  0.00    +0.000 A 
ATOM      5  C   UNL     1       1.269   8.917  20.469  0.00  0.00    +0.000 A 
ATOM      6  C   UNL     1       1.834   7.677  20.162  0.00  0.00    +0.000 A 
ENDROOT
BRANCH   1   8
ATOM      7  O   UNL     1       2.486   5.057  19.027  0.00  0.00    +0.000 OA
ATOM      8  C   UNL     1       3.016   6.102  18.668  0.00  0.00    +0.000 C 
ATOM      9  N   UNL     1       4.286   6.146  18.128  0.00  0.00    +0.000 N 
ATOM     10  H   UNL     1       4.704   7.037  17.908  0.00  0.00    +0.000 HD
BRANCH   9  11
ATOM     11  C   UNL     1       5.085   4.938  17.949  0.00  0.00    +0.000 C 
BRANCH  11  12
ATOM     12  C   UNL     1       5.745   4.866  16.602  0.00  0.00    +0.000 A 
ATOM     13  C   UNL     1       5.217   4.127  15.546  0.00  0.00    +0.000 A 
ATOM     14  C   UNL     1       5.860   4.107  14.320  0.00  0.00    +0.000 A 
ATOM     15  C   UNL     1       7.037   4.814  14.189  0.00  0.00    +0.000 A 
ATOM     16  N   UNL     1       7.610   5.513  15.191  0.00  0.00    +0.000 NA
ATOM     17  C   UNL     1       6.954   5.515  16.374  0.00  0.00    +0.000 A 
ENDBRANCH  11  12
ENDBRANCH   9  11
ENDBRANCH   1   8
BRANCH   4  18
ATOM     18  C   UNL     1       0.402  11.207  19.774  0.00  0.00    +0.000 C 
BRANCH  18  19
ATOM     19  N   UNL     1       0.069  11.505  21.157  0.00  0.00    +0.000 NA
ATOM     20  C   UNL     1      -1.301  11.907  21.202  0.00  0.00    +0.000 C 
ATOM     21  C   UNL     1      -1.361  13.205  22.879  0.00  0.00    +0.000 C 
ATOM     22  C   UNL     1      -2.782  13.171  22.711  0.00  0.00    +0.000 A 
ATOM     23  C   UNL     1      -3.666  14.298  22.373  0.00  0.00    +0.000 A 
ATOM     24  C   UNL     1      -4.840  14.337  22.924  0.00  0.00    +0.000 A 
ATOM     25  C   UNL     1      -4.800  13.181  23.759  0.00  0.00    +0.000 A 
ATOM     26  C   UNL     1      -3.440  12.175  23.840  0.00  0.00    +0.000 A 
ATOM     27  C   UNL     1      -1.909  12.115  23.012  0.00  0.00    +0.000 A 
ATOM     28  C   UNL     1      -0.207  12.717  21.743  0.00  0.00    +0.000 C 
ENDBRANCH  18  19
ENDBRANCH   4  18
TORSDOF 5
ENDMDL
MODEL 6
REMARK VINA RESULT:      -8.1      3.158     10.415
REMARK  Name = 
REMARK  5 active torsions:
REMARK  status: ('A' for Active; 'I' for Inactive)
REMARK    1  A    between atoms: C_2  and  C_11
REMARK    2  A    between atoms: N_3  and  C_4
REMARK    3  A    between atoms: C_4  and  C_5
REMARK    4  A    between atoms: C_14  and  C_15
REMARK    5  A    between atoms: C_15  and  N_16
REMARK                            x       y       z     vdW  Elec       q    Type
REMARK                         _______ _______ _______ _____ _____    ______ ____
ROOT
ATOM      1  C   UNL     1      -2.355  11.198  18.513  0.00  0.00    +0.000 A 
ATOM      2  C   UNL     1      -2.024  10.148  17.664  0.00  0.00    +0.000 A 
ATOM      3  C   UNL     1      -0.704   9.658  17.639  0.00  0.00    +0.000 A 
ATOM      4  C   UNL     1       0.345  10.342  18.262  0.00  0.00    +0.000 A 
ATOM      5  C   UNL     1       0.001  11.422  19.061  0.00  0.00    +0.000 A 
ATOM      6  C   UNL     1      -1.322  11.854  19.177  0.00  0.00    +0.000 A 
ENDROOT
BRANCH   1   8
ATOM      7  O   UNL     1      -3.977  12.382  19.738  0.00  0.00    +0.000 OA
ATOM      8  C   UNL     1      -3.753  11.639  18.790  0.00  0.00    +0.000 C 
ATOM      9  N   UNL     1      -4.757  11.124  17.994  0.00  0.00    +0.000 N 
ATOM     10  H   UNL     1      -4.529  10.465  17.266  0.00  0.00    +0.000 HD
BRANCH   9  11
ATOM     11  C   UNL     1      -6.162  11.437  18.234  0.00  0.00    +0.000 C 
BRANCH  11  12
ATOM     12  C   UNL     1      -6.774  10.598  19.318  0.00  0.00    +0.000 A 
ATOM     13  C   UNL     1      -6.836   9.208  19.247  0.00  0.00    +0.000 A 
ATOM     14  C   UNL     1      -7.398   8.482  20.283  0.00  0.00    +0.000 A 
ATOM     15  C   UNL     1      -7.909   9.173  21.362  0.00  0.00    +0.000 A 
ATOM     16  N   UNL     1      -7.909  10.518  21.462  0.00  0.00    +0.000 NA
ATOM     17  C   UNL     1      -7.349  11.197  20.435  0.00  0.00    +0.000 A 
ENDBRANCH  11  12
ENDBRANCH   9  11
ENDBRANCH   1   8
BRANCH   4  18
ATOM     18  C   UNL     1       1.779   9.935  18.006  0.00  0.00    +0.000 C 
BRANCH  18  19
ATOM     19  N   UNL     1       2.322   8.879  18.843  0.00  0.00    +0.000 NA
ATOM     20  C   UNL     1       2.450   7.705  18.040  0.00  0.00    +0.000 C 
ATOM     21  C   UNL     1       2.241   6.137  19.455  0.00  0.00    +0.000 C 
ATOM     22  C   UNL     1       2.635   5.272  18.384  0.00  0.00    +0.000 A 
ATOM     23  C   UNL     1       1.833   4.209  17.758  0.00  0.00    +0.000 A 
ATOM     24  C   UNL     1       2.444   3.125  17.387  0.00  0.00    +0.000 A 
ATOM     25  C   UNL     1       3.780   3.394  17.809  0.00  0.00    +0.000 A 
ATOM     26  C   UNL     1       4.206   4.836  18.586  0.00  0.00    +0.000 A 
ATOM     27  C   UNL     1       3.365   6.306  18.989  0.00  0.00    +0.000 A 
ATOM     28  C   UNL     1       1.714   7.737  19.307  0.00  0.00    +0.000 C 
ENDBRANCH  18  19
ENDBRANCH   4  18
TORSDOF 5
ENDMDL
MODEL 7
REMARK VINA RESULT:      -8.1      3.143      4.916
REMARK  Name = 
REMARK  5 active torsions:
REMARK  status: ('A' for Active; 'I' for Inactive)
REMARK    1  A    between atoms: C_2  and  C_11
REMARK    2  A    between atoms: N_3  and  C_4
REMARK    3  A    between atoms: C_4  and  C_5
REMARK    4  A    between atoms: C_14  and  C_15
REMARK    5  A    between atoms: C_15  and  N_16
REMARK                            x       y       z     vdW  Elec       q    Type
REMARK                         _______ _______ _______ _____ _____    ______ ____
ROOT
ATOM      1  C   UNL     1       2.442   7.242  18.882  0.00  0.00    +0.000 A 
ATOM      2  C   UNL     1       2.181   8.047  17.779  0.00  0.00    +0.000 A 
ATOM      3  C   UNL     1       1.534   9.285  17.952  0.00  0.00    +0.000 A 
ATOM      4  C   UNL     1       0.930   9.634  19.165  0.00  0.00    +0.000 A 
ATOM      5  C   UNL     1       1.155   8.790  20.242  0.00  0.00    +0.000 A 
ATOM      6  C   UNL     1       1.885   7.608  20.105  0.00  0.00    +0.000 A 
ENDROOT
BRANCH   1   8
ATOM      7  O   UNL     1       3.988   5.743  19.830  0.00  0.00    +0.000 OA
ATOM      8  C   UNL     1       3.316   6.034  18.847  0.00  0.00    +0.000 C 
ATOM      9  N   UNL     1       3.383   5.326  17.663  0.00  0.00    +0.000 N 
ATOM     10  H   UNL     1       2.860   5.642  16.861  0.00  0.00    +0.000 HD
BRANCH   9  11
ATOM     11  C   UNL     1       4.267   4.174  17.508  0.00  0.00    +0.000 C 
BRANCH  11  12
ATOM     12  C   UNL     1       5.308   4.372  16.444  0.00  0.00    +0.000 A 
ATOM     13  C   UNL     1       5.061   4.122  15.096  0.00  0.00    +0.000 A 
ATOM     14  C   UNL     1       6.054   4.336  14.156  0.00  0.00    +0.000 A 
ATOM     15  C   UNL     1       7.285   4.776  14.595  0.00  0.00    +0.000 A 
ATOM     16  N   UNL     1       7.587   4.996  15.891  0.00  0.00    +0.000 NA
ATOM     17  C   UNL     1       6.594   4.782  16.784  0.00  0.00    +0.000 A 
ENDBRANCH  11  12
ENDBRANCH   9  11
ENDBRANCH   1   8
BRANCH   4  18
ATOM     18  C   UNL     1       0.030  10.846  19.247  0.00  0.00    +0.000 C 
BRANCH  18  19
ATOM     19  N   UNL     1       0.563  12.016  19.925  0.00  0.00    +0.000 NA
ATOM     20  C   UNL     1       0.824  13.014  18.938  0.00  0.00    +0.000 C 
ATOM     21  C   UNL     1       2.418  14.123  19.793  0.00  0.00    +0.000 C 
ATOM     22  C   UNL     1       2.206  15.042  18.715  0.00  0.00    +0.000 A 
ATOM     23  C   UNL     1       3.147  15.378  17.635  0.00  0.00    +0.000 A 
ATOM     24  C   UNL     1       3.176  16.605  17.213  0.00  0.00    +0.000 A 
ATOM     25  C   UNL     1       2.220  17.223  18.074  0.00  0.00    +0.000 A 
ATOM     26  C   UNL     1       1.395  16.357  19.272  0.00  0.00    +0.000 A 
ATOM     27  C   UNL     1       1.326  14.683  19.747  0.00  0.00    +0.000 A 
ATOM     28  C   UNL     1       1.833  12.539  19.888  0.00  0.00    +0.000 C 
ENDBRANCH  18  19
ENDBRANCH   4  18
TORSDOF 5
ENDMDL
MODEL 8
REMARK VINA RESULT:      -8.1      6.943     10.678
REMARK  Name = 
REMARK  5 active torsions:
REMARK  status: ('A' for Active; 'I' for Inactive)
REMARK    1  A    between atoms: C_2  and  C_11
REMARK    2  A    between atoms: N_3  and  C_4
REMARK    3  A    between atoms: C_4  and  C_5
REMARK    4  A    between atoms: C_14  and  C_15
REMARK    5  A    between atoms: C_15  and  N_16
REMARK                            x       y       z     vdW  Elec       q    Type
REMARK                         _______ _______ _______ _____ _____    ______ ____
ROOT
ATOM      1  C   UNL     1       6.719   6.193  17.834  0.00  0.00    +0.000 A 
ATOM      2  C   UNL     1       6.544   7.429  17.222  0.00  0.00    +0.000 A 
ATOM      3  C   UNL     1       7.460   8.468  17.470  0.00  0.00    +0.000 A 
ATOM      4  C   UNL     1       8.409   8.382  18.494  0.00  0.00    +0.000 A 
ATOM      5  C   UNL     1       8.530   7.157  19.133  0.00  0.00    +0.000 A 
ATOM      6  C   UNL     1       7.694   6.083  18.821  0.00  0.00    +0.000 A 
ENDROOT
BRANCH   1   8
ATOM      7  O   UNL     1       6.199   4.390  16.415  0.00  0.00    +0.000 OA
ATOM      8  C   UNL     1       5.954   4.964  17.469  0.00  0.00    +0.000 C 
ATOM      9  N   UNL     1       4.939   4.566  18.316  0.00  0.00    +0.000 N 
ATOM     10  H   UNL     1       4.733   5.109  19.140  0.00  0.00    +0.000 HD
BRANCH   9  11
ATOM     11  C   UNL     1       4.088   3.421  18.007  0.00  0.00    +0.000 C 
BRANCH  11  12
ATOM     12  C   UNL     1       3.048   3.162  19.059  0.00  0.00    +0.000 A 
ATOM     13  C   UNL     1       1.690   3.382  18.842  0.00  0.00    +0.000 A 
ATOM     14  C   UNL     1       0.772   3.113  19.843  0.00  0.00    +0.000 A 
ATOM     15  C   UNL     1       1.244   2.648  21.053  0.00  0.00    +0.000 A 
ATOM     16  N   UNL     1       2.550   2.455  21.326  0.00  0.00    +0.000 NA
ATOM     17  C   UNL     1       3.421   2.724  20.326  0.00  0.00    +0.000 A 
ENDBRANCH  11  12
ENDBRANCH   9  11
ENDBRANCH   1   8
BRANCH   4  18
ATOM     18  C   UNL     1       9.202   9.602  18.903  0.00  0.00    +0.000 C 
BRANCH  18  19
ATOM     19  N   UNL     1       9.289  10.684  17.938  0.00  0.00    +0.000 NA
ATOM     20  C   UNL     1      10.193  11.662  18.454  0.00  0.00    +0.000 C 
ATOM     21  C   UNL     1       9.486  13.466  17.589  0.00  0.00    +0.000 C 
ATOM     22  C   UNL     1      10.682  14.053  18.114  0.00  0.00    +0.000 A 
ATOM     23  C   UNL     1      10.781  15.107  19.136  0.00  0.00    +0.000 A 
ATOM     24  C   UNL     1      11.721  15.993  19.006  0.00  0.00    +0.000 A 
ATOM     25  C   UNL     1      12.327  15.586  17.780  0.00  0.00    +0.000 A 
ATOM     26  C   UNL     1      11.769  14.253  16.899  0.00  0.00    +0.000 A 
ATOM     27  C   UNL     1      10.551  13.035  17.158  0.00  0.00    +0.000 A 
ATOM     28  C   UNL     1       8.825  11.974  18.033  0.00  0.00    +0.000 C 
ENDBRANCH  18  19
ENDBRANCH   4  18
TORSDOF 5
ENDMDL
MODEL 9
REMARK VINA RESULT:      -8.1      6.282      9.235
REMARK  Name = 
REMARK  5 active torsions:
REMARK  status: ('A' for Active; 'I' for Inactive)
REMARK    1  A    between atoms: C_2  and  C_11
REMARK    2  A    between atoms: N_3  and  C_4
REMARK    3  A    between atoms: C_4  and  C_5
REMARK    4  A    between atoms: C_14  and  C_15
REMARK    5  A    between atoms: C_15  and  N_16
REMARK                            x       y       z     vdW  Elec       q    Type
REMARK                         _______ _______ _______ _____ _____    ______ ____
ROOT
ATOM      1  C   UNL     1       8.427   8.613  18.524  0.00  0.00    +0.000 A 
ATOM      2  C   UNL     1       8.537   7.443  19.267  0.00  0.00    +0.000 A 
ATOM      3  C   UNL     1       8.113   6.220  18.714  0.00  0.00    +0.000 A 
ATOM      4  C   UNL     1       7.365   6.168  17.533  0.00  0.00    +0.000 A 
ATOM      5  C   UNL     1       7.217   7.356  16.834  0.00  0.00    +0.000 A 
ATOM      6  C   UNL     1       7.726   8.561  17.323  0.00  0.00    +0.000 A 
ENDROOT
BRANCH   1   8
ATOM      7  O   UNL     1       9.143  10.206  20.100  0.00  0.00    +0.000 OA
ATOM      8  C   UNL     1       9.050   9.911  18.914  0.00  0.00    +0.000 C 
ATOM      9  N   UNL     1       9.436  10.767  17.901  0.00  0.00    +0.000 N 
ATOM     10  H   UNL     1       9.280  10.506  16.940  0.00  0.00    +0.000 HD
BRANCH   9  11
ATOM     11  C   UNL     1       9.986  12.089  18.183  0.00  0.00    +0.000 C 
BRANCH  11  12
ATOM     12  C   UNL     1       8.934  13.157  18.265  0.00  0.00    +0.000 A 
ATOM     13  C   UNL     1       7.804  13.162  17.450  0.00  0.00    +0.000 A 
ATOM     14  C   UNL     1       6.858  14.164  17.578  0.00  0.00    +0.000 A 
ATOM     15  C   UNL     1       7.080  15.156  18.511  0.00  0.00    +0.000 A 
ATOM     16  N   UNL     1       8.175  15.218  19.296  0.00  0.00    +0.000 NA
ATOM     17  C   UNL     1       9.078  14.222  19.149  0.00  0.00    +0.000 A 
ENDBRANCH  11  12
ENDBRANCH   9  11
ENDBRANCH   1   8
BRANCH   4  18
ATOM     18  C   UNL     1       6.709   4.876  17.102  0.00  0.00    +0.000 C 
BRANCH  18  19
ATOM     19  N   UNL     1       5.263   4.888  16.961  0.00  0.00    +0.000 NA
ATOM     20  C   UNL     1       4.696   4.509  18.216  0.00  0.00    +0.000 C 
ATOM     21  C   UNL     1       2.859   3.608  17.655  0.00  0.00    +0.000 C 
ATOM     22  C   UNL     1       2.562   3.609  19.056  0.00  0.00    +0.000 A 
ATOM     23  C   UNL     1       2.355   2.437  19.922  0.00  0.00    +0.000 A 
ATOM     24  C   UNL     1       1.459   2.523  20.857  0.00  0.00    +0.000 A 
ATOM     25  C   UNL     1       0.941   3.833  20.634  0.00  0.00    +0.000 A 
ATOM     26  C   UNL     1       1.513   4.828  19.390  0.00  0.00    +0.000 A 
ATOM     27  C   UNL     1       2.785   4.703  18.206  0.00  0.00    +0.000 A 
ATOM     28  C   UNL     1       4.381   3.834  16.954  0.00  0.00    +0.000 C 
ENDBRANCH  18  19
ENDBRANCH   4  18
TORSDOF 5
ENDMDL
