MODEL 1
REMARK VINA RESULT:      -6.6      0.000      0.000
REMARK  Name = 
REMARK  13 active torsions:
REMARK  status: ('A' for Active; 'I' for Inactive)
REMARK    1  A    between atoms: C_1  and  O_2
REMARK    2  A    between atoms: O_2  and  C_3
REMARK    3  A    between atoms: C_5  and  C_6
REMARK    4  A    between atoms: C_6  and  C_7
REMARK    5  A    between atoms: C_7  and  O_9
REMARK    6  A    between atoms: O_9  and  C_10
REMARK    7  A    between atoms: C_10  and  C_11
REMARK    8  A    between atoms: N_13  and  C_14
REMARK    9  A    between atoms: N_13  and  C_15
REMARK   10  A    between atoms: C_22  and  O_23
REMARK   11  A    between atoms: O_23  and  C_24
REMARK   12  A    between atoms: C_25  and  O_26
REMARK   13  A    between atoms: O_26  and  C_27
REMARK                            x       y       z     vdW  Elec       q    Type
REMARK                         _______ _______ _______ _____ _____    ______ ____
ROOT
ATOM      1  C   UNL     1       1.004   9.156  19.986  0.00  0.00    +0.000 C 
ATOM      2  O   UNL     1       0.552   8.688  21.055  0.00  0.00    +0.000 OA
ENDROOT
BRANCH   1   3
ATOM      3  C   UNL     1       0.804  10.591  19.540  0.00  0.00    +0.000 C 
BRANCH   3   6
ATOM      4  C   UNL     1      -2.457  10.454  17.496  0.00  0.00    +0.000 A 
ATOM      5  C   UNL     1      -1.087  10.375  17.846  0.00  0.00    +0.000 A 
ATOM      6  C   UNL     1      -0.566  10.939  18.998  0.00  0.00    +0.000 A 
ATOM      7  C   UNL     1      -1.429  11.761  19.737  0.00  0.00    +0.000 A 
ATOM      8  C   UNL     1      -2.791  11.872  19.425  0.00  0.00    +0.000 A 
ATOM      9  C   UNL     1      -3.339  11.216  18.305  0.00  0.00    +0.000 A 
BRANCH   4  11
ATOM     10  C   UNL     1      -2.831  10.298  15.165  0.00  0.00    +0.000 C 
ATOM     11  O   UNL     1      -2.903   9.664  16.455  0.00  0.00    +0.000 OA
ENDBRANCH   4  11
BRANCH   8  12
ATOM     12  O   UNL     1      -3.450  12.609  20.390  0.00  0.00    +0.000 OA
ATOM     13  C   UNL     1      -3.064  13.955  20.627  0.00  0.00    +0.000 C 
ENDBRANCH   8  12
BRANCH   9  14
ATOM     14  O   UNL     1      -4.691  11.336  18.215  0.00  0.00    +0.000 OA
ATOM     15  C   UNL     1      -5.359  12.053  17.204  0.00  0.00    +0.000 C 
ENDBRANCH   9  14
ENDBRANCH   3   6
ENDBRANCH   1   3
BRANCH   1  16
ATOM     16  O   UNL     1       1.811   8.469  19.140  0.00  0.00    +0.000 OA
BRANCH  16  17
ATOM     17  C   UNL     1       2.347   7.278  19.735  0.00  0.00    +0.000 C 
BRANCH  17  18
ATOM     18  C   UNL     1       2.460   6.134  18.725  0.00  0.00    +0.000 C 
ATOM     19  O   UNL     1       3.054   6.359  17.659  0.00  0.00    +0.000 OA
ATOM     20  N   UNL     1       1.864   4.909  19.060  0.00  0.00    +0.000 N 
ATOM     21  C   UNL     1       1.161   4.744  20.336  0.00  0.00    +0.000 C 
BRANCH  20  22
ATOM     22  C   UNL     1       1.587   3.859  18.037  0.00  0.00    +0.000 C 
ATOM     23  C   UNL     1       2.728   3.509  17.061  0.00  0.00    +0.000 C 
ATOM     24  C   UNL     1       3.915   2.889  17.796  0.00  0.00    +0.000 C 
ATOM     25  C   UNL     1       3.493   1.610  18.512  0.00  0.00    +0.000 C 
ATOM     26  C   UNL     1       2.274   1.825  19.407  0.00  0.00    +0.000 C 
ATOM     27  C   UNL     1       1.130   2.516  18.660  0.00  0.00    +0.000 C 
ENDBRANCH  20  22
ENDBRANCH  17  18
ENDBRANCH  16  17
ENDBRANCH   1  16
TORSDOF 9
ENDMDL
MODEL 2
REMARK VINA RESULT:      -6.5      1.750      3.458
REMARK  Name = 
REMARK  13 active torsions:
REMARK  status: ('A' for Active; 'I' for Inactive)
REMARK    1  A    between atoms: C_1  and  O_2
REMARK    2  A    between atoms: O_2  and  C_3
REMARK    3  A    between atoms: C_5  and  C_6
REMARK    4  A    between atoms: C_6  and  C_7
REMARK    5  A    between atoms: C_7  and  O_9
REMARK    6  A    between atoms: O_9  and  C_10
REMARK    7  A    between atoms: C_10  and  C_11
REMARK    8  A    between atoms: N_13  and  C_14
REMARK    9  A    between atoms: N_13  and  C_15
REMARK   10  A    between atoms: C_22  and  O_23
REMARK   11  A    between atoms: O_23  and  C_24
REMARK   12  A    between atoms: C_25  and  O_26
REMARK   13  A    between atoms: O_26  and  C_27
REMARK                            x       y       z     vdW  Elec       q    Type
REMARK                         _______ _______ _______ _____ _____    ______ ____
ROOT
ATOM      1  C   UNL     1       2.469   7.873  18.596  0.00  0.00    +0.000 C 
ATOM      2  O   UNL     1       2.058   7.371  19.666  0.00  0.00    +0.000 OA
ENDROOT
BRANCH   1   3
ATOM      3  C   UNL     1       1.694   8.897  17.790  0.00  0.00    +0.000 C 
BRANCH   3   6
ATOM      4  C   UNL     1       0.285  11.488  20.265  0.00  0.00    +0.000 A 
ATOM      5  C   UNL     1       1.076  10.452  19.709  0.00  0.00    +0.000 A 
ATOM      6  C   UNL     1       0.723   9.762  18.563  0.00  0.00    +0.000 A 
ATOM      7  C   UNL     1      -0.560  10.010  18.054  0.00  0.00    +0.000 A 
ATOM      8  C   UNL     1      -1.379  11.022  18.575  0.00  0.00    +0.000 A 
ATOM      9  C   UNL     1      -0.974  11.790  19.684  0.00  0.00    +0.000 A 
BRANCH   4  11
ATOM     10  C   UNL     1       1.633  13.361  20.788  0.00  0.00    +0.000 C 
ATOM     11  O   UNL     1       0.842  12.257  21.267  0.00  0.00    +0.000 OA
ENDBRANCH   4  11
BRANCH   8  12
ATOM     12  O   UNL     1      -2.517  11.168  17.804  0.00  0.00    +0.000 OA
ATOM     13  C   UNL     1      -3.262  10.018  17.434  0.00  0.00    +0.000 C 
ENDBRANCH   8  12
BRANCH   9  14
ATOM     14  O   UNL     1      -1.832  12.801  19.986  0.00  0.00    +0.000 OA
ATOM     15  C   UNL     1      -2.756  12.768  21.047  0.00  0.00    +0.000 C 
ENDBRANCH   9  14
ENDBRANCH   3   6
ENDBRANCH   1   3
BRANCH   1  16
ATOM     16  O   UNL     1       3.698   7.639  18.073  0.00  0.00    +0.000 OA
BRANCH  16  17
ATOM     17  C   UNL     1       3.766   6.395  17.359  0.00  0.00    +0.000 C 
BRANCH  17  18
ATOM     18  C   UNL     1       3.934   5.202  18.301  0.00  0.00    +0.000 C 
ATOM     19  O   UNL     1       5.000   5.106  18.931  0.00  0.00    +0.000 OA
ATOM     20  N   UNL     1       2.881   4.280  18.378  0.00  0.00    +0.000 N 
ATOM     21  C   UNL     1       1.667   4.464  17.578  0.00  0.00    +0.000 C 
BRANCH  20  22
ATOM     22  C   UNL     1       3.064   2.917  18.956  0.00  0.00    +0.000 C 
ATOM     23  C   UNL     1       3.613   2.831  20.395  0.00  0.00    +0.000 C 
ATOM     24  C   UNL     1       2.635   3.441  21.398  0.00  0.00    +0.000 C 
ATOM     25  C   UNL     1       1.298   2.709  21.355  0.00  0.00    +0.000 C 
ATOM     26  C   UNL     1       0.733   2.620  19.938  0.00  0.00    +0.000 C 
ATOM     27  C   UNL     1       1.762   2.076  18.944  0.00  0.00    +0.000 C 
ENDBRANCH  20  22
ENDBRANCH  17  18
ENDBRANCH  16  17
ENDBRANCH   1  16
TORSDOF 9
ENDMDL
MODEL 3
REMARK VINA RESULT:      -6.5      6.682     10.973
REMARK  Name = 
REMARK  13 active torsions:
REMARK  status: ('A' for Active; 'I' for Inactive)
REMARK    1  A    between atoms: C_1  and  O_2
REMARK    2  A    between atoms: O_2  and  C_3
REMARK    3  A    between atoms: C_5  and  C_6
REMARK    4  A    between atoms: C_6  and  C_7
REMARK    5  A    between atoms: C_7  and  O_9
REMARK    6  A    between atoms: O_9  and  C_10
REMARK    7  A    between atoms: C_10  and  C_11
REMARK    8  A    between atoms: N_13  and  C_14
REMARK    9  A    between atoms: N_13  and  C_15
REMARK   10  A    between atoms: C_22  and  O_23
REMARK   11  A    between atoms: O_23  and  C_24
REMARK   12  A    between atoms: C_25  and  O_26
REMARK   13  A    between atoms: O_26  and  C_27
REMARK                            x       y       z     vdW  Elec       q    Type
REMARK                         _______ _______ _______ _____ _____    ______ ____
ROOT
ATOM      1  C   UNL     1       8.024   8.054  18.138  0.00  0.00    +0.000 C 
ATOM      2  O   UNL     1       7.509   8.496  17.087  0.00  0.00    +0.000 OA
ENDROOT
BRANCH   1   3
ATOM      3  C   UNL     1       7.939   6.606  18.578  0.00  0.00    +0.000 C 
BRANCH   3   6
ATOM      4  C   UNL     1       5.705   4.167  16.604  0.00  0.00    +0.000 A 
ATOM      5  C   UNL     1       6.700   5.127  16.915  0.00  0.00    +0.000 A 
ATOM      6  C   UNL     1       6.727   5.832  18.105  0.00  0.00    +0.000 A 
ATOM      7  C   UNL     1       5.612   5.688  18.942  0.00  0.00    +0.000 A 
ATOM      8  C   UNL     1       4.601   4.754  18.673  0.00  0.00    +0.000 A 
ATOM      9  C   UNL     1       4.628   3.966  17.506  0.00  0.00    +0.000 A 
BRANCH   4  11
ATOM     10  C   UNL     1       5.901   4.077  14.248  0.00  0.00    +0.000 C 
ATOM     11  O   UNL     1       5.907   3.365  15.500  0.00  0.00    +0.000 OA
ENDBRANCH   4  11
BRANCH   8  12
ATOM     12  O   UNL     1       3.704   4.696  19.723  0.00  0.00    +0.000 OA
ATOM     13  C   UNL     1       2.586   5.572  19.736  0.00  0.00    +0.000 C 
ENDBRANCH   8  12
BRANCH   9  14
ATOM     14  O   UNL     1       3.639   3.034  17.458  0.00  0.00    +0.000 OA
ATOM     15  C   UNL     1       3.702   1.777  18.090  0.00  0.00    +0.000 C 
ENDBRANCH   9  14
ENDBRANCH   3   6
ENDBRANCH   1   3
BRANCH   1  16
ATOM     16  O   UNL     1       8.804   8.792  18.967  0.00  0.00    +0.000 OA
BRANCH  16  17
ATOM     17  C   UNL     1       9.198  10.043  18.385  0.00  0.00    +0.000 C 
BRANCH  17  18
ATOM     18  C   UNL     1       9.327  11.148  19.435  0.00  0.00    +0.000 C 
ATOM     19  O   UNL     1       9.668  10.821  20.583  0.00  0.00    +0.000 OA
ATOM     20  N   UNL     1       9.030  12.460  19.038  0.00  0.00    +0.000 N 
ATOM     21  C   UNL     1       8.612  12.748  17.663  0.00  0.00    +0.000 C 
BRANCH  20  22
ATOM     22  C   UNL     1       8.762  13.544  20.028  0.00  0.00    +0.000 C 
ATOM     23  C   UNL     1       9.873  13.851  21.052  0.00  0.00    +0.000 C 
ATOM     24  C   UNL     1      11.126  14.392  20.364  0.00  0.00    +0.000 C 
ATOM     25  C   UNL     1      10.809  15.677  19.607  0.00  0.00    +0.000 C 
ATOM     26  C   UNL     1       9.623  15.510  18.658  0.00  0.00    +0.000 C 
ATOM     27  C   UNL     1       8.409  14.897  19.360  0.00  0.00    +0.000 C 
ENDBRANCH  20  22
ENDBRANCH  17  18
ENDBRANCH  16  17
ENDBRANCH   1  16
TORSDOF 9
ENDMDL
MODEL 4
REMARK VINA RESULT:      -6.5      1.743      3.516
REMARK  Name = 
REMARK  13 active torsions:
REMARK  status: ('A' for Active; 'I' for Inactive)
REMARK    1  A    between atoms: C_1  and  O_2
REMARK    2  A    between atoms: O_2  and  C_3
REMARK    3  A    between atoms: C_5  and  C_6
REMARK    4  A    between atoms: C_6  and  C_7
REMARK    5  A    between atoms: C_7  and  O_9
REMARK    6  A    between atoms: O_9  and  C_10
REMARK    7  A    between atoms: C_10  and  C_11
REMARK    8  A    between atoms: N_13  and  C_14
REMARK    9  A    between atoms: N_13  and  C_15
REMARK   10  A    between atoms: C_22  and  O_23
REMARK   11  A    between atoms: O_23  and  C_24
REMARK   12  A    between atoms: C_25  and  O_26
REMARK   13  A    between atoms: O_26  and  C_27
REMARK                            x       y       z     vdW  Elec       q    Type
REMARK                         _______ _______ _______ _____ _____    ______ ____
ROOT
ATOM      1  C   UNL     1       2.532   7.826  18.571  0.00  0.00    +0.000 C 
ATOM      2  O   UNL     1       2.108   7.256  19.601  0.00  0.00    +0.000 OA
ENDROOT
BRANCH   1   3
ATOM      3  C   UNL     1       1.801   8.949  17.864  0.00  0.00    +0.000 C 
BRANCH   3   6
ATOM      4  C   UNL     1      -0.087  10.715  20.718  0.00  0.00    +0.000 A 
ATOM      5  C   UNL     1       0.766   9.825  20.020  0.00  0.00    +0.000 A 
ATOM      6  C   UNL     1       0.705   9.635  18.651  0.00  0.00    +0.000 A 
ATOM      7  C   UNL     1      -0.371  10.238  17.983  0.00  0.00    +0.000 A 
ATOM      8  C   UNL     1      -1.242  11.123  18.634  0.00  0.00    +0.000 A 
ATOM      9  C   UNL     1      -1.117  11.389  20.012  0.00  0.00    +0.000 A 
BRANCH   4  11
ATOM     10  C   UNL     1      -0.597  10.284  22.988  0.00  0.00    +0.000 C 
ATOM     11  O   UNL     1       0.214  10.996  22.035  0.00  0.00    +0.000 OA
ENDBRANCH   4  11
BRANCH   8  12
ATOM     12  O   UNL     1      -2.112  11.699  17.728  0.00  0.00    +0.000 OA
ATOM     13  C   UNL     1      -2.930  10.868  16.918  0.00  0.00    +0.000 C 
ENDBRANCH   8  12
BRANCH   9  14
ATOM     14  O   UNL     1      -1.965  12.355  20.456  0.00  0.00    +0.000 OA
ATOM     15  C   UNL     1      -1.656  13.728  20.494  0.00  0.00    +0.000 C 
ENDBRANCH   9  14
ENDBRANCH   3   6
ENDBRANCH   1   3
BRANCH   1  16
ATOM     16  O   UNL     1       3.744   7.578  18.014  0.00  0.00    +0.000 OA
BRANCH  16  17
ATOM     17  C   UNL     1       3.793   6.311  17.343  0.00  0.00    +0.000 C 
BRANCH  17  18
ATOM     18  C   UNL     1       3.936   5.147  18.325  0.00  0.00    +0.000 C 
ATOM     19  O   UNL     1       4.978   5.080  18.997  0.00  0.00    +0.000 OA
ATOM     20  N   UNL     1       2.889   4.217  18.389  0.00  0.00    +0.000 N 
ATOM     21  C   UNL     1       1.705   4.366  17.538  0.00  0.00    +0.000 C 
BRANCH  20  22
ATOM     22  C   UNL     1       3.062   2.873  19.013  0.00  0.00    +0.000 C 
ATOM     23  C   UNL     1       3.588   2.833  20.462  0.00  0.00    +0.000 C 
ATOM     24  C   UNL     1       2.595   3.475  21.429  0.00  0.00    +0.000 C 
ATOM     25  C   UNL     1       1.258   2.742  21.389  0.00  0.00    +0.000 C 
ATOM     26  C   UNL     1       0.715   2.609  19.967  0.00  0.00    +0.000 C 
ATOM     27  C   UNL     1       1.760   2.033  19.007  0.00  0.00    +0.000 C 
ENDBRANCH  20  22
ENDBRANCH  17  18
ENDBRANCH  16  17
ENDBRANCH   1  16
TORSDOF 9
ENDMDL
MODEL 5
REMARK VINA RESULT:      -6.4      3.173      9.489
REMARK  Name = 
REMARK  13 active torsions:
REMARK  status: ('A' for Active; 'I' for Inactive)
REMARK    1  A    between atoms: C_1  and  O_2
REMARK    2  A    between atoms: O_2  and  C_3
REMARK    3  A    between atoms: C_5  and  C_6
REMARK    4  A    between atoms: C_6  and  C_7
REMARK    5  A    between atoms: C_7  and  O_9
REMARK    6  A    between atoms: O_9  and  C_10
REMARK    7  A    between atoms: C_10  and  C_11
REMARK    8  A    between atoms: N_13  and  C_14
REMARK    9  A    between atoms: N_13  and  C_15
REMARK   10  A    between atoms: C_22  and  O_23
REMARK   11  A    between atoms: O_23  and  C_24
REMARK   12  A    between atoms: C_25  and  O_26
REMARK   13  A    between atoms: O_26  and  C_27
REMARK                            x       y       z     vdW  Elec       q    Type
REMARK                         _______ _______ _______ _____ _____    ______ ____
ROOT
ATOM      1  C   UNL     1       1.905   7.719  19.577  0.00  0.00    +0.000 C 
ATOM      2  O   UNL     1       1.850   6.908  20.528  0.00  0.00    +0.000 OA
ENDROOT
BRANCH   1   3
ATOM      3  C   UNL     1       2.140   7.316  18.134  0.00  0.00    +0.000 C 
BRANCH   3   6
ATOM      4  C   UNL     1       4.284   4.222  17.321  0.00  0.00    +0.000 A 
ATOM      5  C   UNL     1       3.262   5.047  17.853  0.00  0.00    +0.000 A 
ATOM      6  C   UNL     1       3.338   6.428  17.874  0.00  0.00    +0.000 A 
ATOM      7  C   UNL     1       4.566   6.993  17.500  0.00  0.00    +0.000 A 
ATOM      8  C   UNL     1       5.607   6.216  16.972  0.00  0.00    +0.000 A 
ATOM      9  C   UNL     1       5.489   4.817  16.862  0.00  0.00    +0.000 A 
BRANCH   4  11
ATOM     10  C   UNL     1       3.347   2.266  18.264  0.00  0.00    +0.000 C 
ATOM     11  O   UNL     1       4.004   2.883  17.141  0.00  0.00    +0.000 OA
ENDBRANCH   4  11
BRANCH   8  12
ATOM     12  O   UNL     1       6.641   7.023  16.538  0.00  0.00    +0.000 OA
ATOM     13  C   UNL     1       7.573   7.532  17.480  0.00  0.00    +0.000 C 
ENDBRANCH   8  12
BRANCH   9  14
ATOM     14  O   UNL     1       6.539   4.233  16.224  0.00  0.00    +0.000 OA
ATOM     15  C   UNL     1       6.601   4.012  14.835  0.00  0.00    +0.000 C 
ENDBRANCH   9  14
ENDBRANCH   3   6
ENDBRANCH   1   3
BRANCH   1  16
ATOM     16  O   UNL     1       1.664   9.048  19.700  0.00  0.00    +0.000 OA
BRANCH  16  17
ATOM     17  C   UNL     1       0.899   9.363  20.873  0.00  0.00    +0.000 C 
BRANCH  17  18
ATOM     18  C   UNL     1       0.272  10.756  20.791  0.00  0.00    +0.000 C 
ATOM     19  O   UNL     1       0.505  11.438  19.780  0.00  0.00    +0.000 OA
ATOM     20  N   UNL     1      -0.508  11.183  21.875  0.00  0.00    +0.000 N 
ATOM     21  C   UNL     1      -0.708  10.316  23.039  0.00  0.00    +0.000 C 
BRANCH  20  22
ATOM     22  C   UNL     1      -0.857  12.619  22.080  0.00  0.00    +0.000 C 
ATOM     23  C   UNL     1      -1.594  13.335  20.931  0.00  0.00    +0.000 C 
ATOM     24  C   UNL     1      -2.978  12.732  20.699  0.00  0.00    +0.000 C 
ATOM     25  C   UNL     1      -3.832  12.852  21.958  0.00  0.00    +0.000 C 
ATOM     26  C   UNL     1      -3.126  12.288  23.189  0.00  0.00    +0.000 C 
ATOM     27  C   UNL     1      -1.713  12.856  23.350  0.00  0.00    +0.000 C 
ENDBRANCH  20  22
ENDBRANCH  17  18
ENDBRANCH  16  17
ENDBRANCH   1  16
TORSDOF 9
ENDMDL
MODEL 6
REMARK VINA RESULT:      -6.4      6.515     10.281
REMARK  Name = 
REMARK  13 active torsions:
REMARK  status: ('A' for Active; 'I' for Inactive)
REMARK    1  A    between atoms: C_1  and  O_2
REMARK    2  A    between atoms: O_2  and  C_3
REMARK    3  A    between atoms: C_5  and  C_6
REMARK    4  A    between atoms: C_6  and  C_7
REMARK    5  A    between atoms: C_7  and  O_9
REMARK    6  A    between atoms: O_9  and  C_10
REMARK    7  A    between atoms: C_10  and  C_11
REMARK    8  A    between atoms: N_13  and  C_14
REMARK    9  A    between atoms: N_13  and  C_15
REMARK   10  A    between atoms: C_22  and  O_23
REMARK   11  A    between atoms: O_23  and  C_24
REMARK   12  A    between atoms: C_25  and  O_26
REMARK   13  A    between atoms: O_26  and  C_27
REMARK                            x       y       z     vdW  Elec       q    Type
REMARK                         _______ _______ _______ _____ _____    ______ ____
ROOT
ATOM      1  C   UNL     1       7.514   7.270  17.708  0.00  0.00    +0.000 C 
ATOM      2  O   UNL     1       7.065   7.593  16.586  0.00  0.00    +0.000 OA
ENDROOT
BRANCH   1   3
ATOM      3  C   UNL     1       7.355   5.890  18.318  0.00  0.00    +0.000 C 
BRANCH   3   6
ATOM      4  C   UNL     1       4.367   3.550  18.970  0.00  0.00    +0.000 A 
ATOM      5  C   UNL     1       5.637   4.025  18.558  0.00  0.00    +0.000 A 
ATOM      6  C   UNL     1       5.938   5.370  18.437  0.00  0.00    +0.000 A 
ATOM      7  C   UNL     1       4.868   6.266  18.571  0.00  0.00    +0.000 A 
ATOM      8  C   UNL     1       3.594   5.840  18.972  0.00  0.00    +0.000 A 
ATOM      9  C   UNL     1       3.315   4.477  19.190  0.00  0.00    +0.000 A 
BRANCH   4  11
ATOM     10  C   UNL     1       4.555   1.894  20.649  0.00  0.00    +0.000 C 
ATOM     11  O   UNL     1       4.250   2.210  19.278  0.00  0.00    +0.000 OA
ENDBRANCH   4  11
BRANCH   8  12
ATOM     12  O   UNL     1       2.764   6.926  19.181  0.00  0.00    +0.000 OA
ATOM     13  C   UNL     1       2.458   7.790  18.097  0.00  0.00    +0.000 C 
ENDBRANCH   8  12
BRANCH   9  14
ATOM     14  O   UNL     1       2.069   4.250  19.685  0.00  0.00    +0.000 OA
ATOM     15  C   UNL     1       1.074   3.507  19.022  0.00  0.00    +0.000 C 
ENDBRANCH   9  14
ENDBRANCH   3   6
ENDBRANCH   1   3
BRANCH   1  16
ATOM     16  O   UNL     1       8.281   8.080  18.479  0.00  0.00    +0.000 OA
BRANCH  16  17
ATOM     17  C   UNL     1       8.278   9.441  18.022  0.00  0.00    +0.000 C 
BRANCH  17  18
ATOM     18  C   UNL     1       9.069  10.360  18.954  0.00  0.00    +0.000 C 
ATOM     19  O   UNL     1       9.603   9.853  19.953  0.00  0.00    +0.000 OA
ATOM     20  N   UNL     1       9.122  11.724  18.631  0.00  0.00    +0.000 N 
ATOM     21  C   UNL     1       8.439  12.237  17.440  0.00  0.00    +0.000 C 
BRANCH  20  22
ATOM     22  C   UNL     1       9.533  12.756  19.626  0.00  0.00    +0.000 C 
ATOM     23  C   UNL     1      10.732  12.420  20.535  0.00  0.00    +0.000 C 
ATOM     24  C   UNL     1      12.018  12.274  19.724  0.00  0.00    +0.000 C 
ATOM     25  C   UNL     1      12.333  13.569  18.982  0.00  0.00    +0.000 C 
ATOM     26  C   UNL     1      11.148  14.062  18.153  0.00  0.00    +0.000 C 
ATOM     27  C   UNL     1       9.859  14.125  18.976  0.00  0.00    +0.000 C 
ENDBRANCH  20  22
ENDBRANCH  17  18
ENDBRANCH  16  17
ENDBRANCH   1  16
TORSDOF 9
ENDMDL
MODEL 7
REMARK VINA RESULT:      -6.2      6.648     10.336
REMARK  Name = 
REMARK  13 active torsions:
REMARK  status: ('A' for Active; 'I' for Inactive)
REMARK    1  A    between atoms: C_1  and  O_2
REMARK    2  A    between atoms: O_2  and  C_3
REMARK    3  A    between atoms: C_5  and  C_6
REMARK    4  A    between atoms: C_6  and  C_7
REMARK    5  A    between atoms: C_7  and  O_9
REMARK    6  A    between atoms: O_9  and  C_10
REMARK    7  A    between atoms: C_10  and  C_11
REMARK    8  A    between atoms: N_13  and  C_14
REMARK    9  A    between atoms: N_13  and  C_15
REMARK   10  A    between atoms: C_22  and  O_23
REMARK   11  A    between atoms: O_23  and  C_24
REMARK   12  A    between atoms: C_25  and  O_26
REMARK   13  A    between atoms: O_26  and  C_27
REMARK                            x       y       z     vdW  Elec       q    Type
REMARK                         _______ _______ _______ _____ _____    ______ ____
ROOT
ATOM      1  C   UNL     1       7.830   7.682  17.903  0.00  0.00    +0.000 C 
ATOM      2  O   UNL     1       8.412   7.184  18.893  0.00  0.00    +0.000 OA
ENDROOT
BRANCH   1   3
ATOM      3  C   UNL     1       6.983   6.885  16.931  0.00  0.00    +0.000 C 
BRANCH   3   6
ATOM      4  C   UNL     1       4.730   4.622  19.084  0.00  0.00    +0.000 A 
ATOM      5  C   UNL     1       5.817   5.081  18.299  0.00  0.00    +0.000 A 
ATOM      6  C   UNL     1       5.755   6.214  17.508  0.00  0.00    +0.000 A 
ATOM      7  C   UNL     1       4.494   6.812  17.368  0.00  0.00    +0.000 A 
ATOM      8  C   UNL     1       3.389   6.389  18.121  0.00  0.00    +0.000 A 
ATOM      9  C   UNL     1       3.482   5.293  19.002  0.00  0.00    +0.000 A 
BRANCH   4  11
ATOM     10  C   UNL     1       4.469   2.333  19.621  0.00  0.00    +0.000 C 
ATOM     11  O   UNL     1       4.976   3.625  20.005  0.00  0.00    +0.000 OA
ENDBRANCH   4  11
BRANCH   8  12
ATOM     12  O   UNL     1       2.315   7.234  17.919  0.00  0.00    +0.000 OA
ATOM     13  C   UNL     1       2.154   8.373  18.752  0.00  0.00    +0.000 C 
ENDBRANCH   8  12
BRANCH   9  14
ATOM     14  O   UNL     1       2.356   5.092  19.737  0.00  0.00    +0.000 OA
ATOM     15  C   UNL     1       1.354   4.156  19.415  0.00  0.00    +0.000 C 
ENDBRANCH   9  14
ENDBRANCH   3   6
ENDBRANCH   1   3
BRANCH   1  16
ATOM     16  O   UNL     1       7.805   9.010  17.629  0.00  0.00    +0.000 OA
BRANCH  16  17
ATOM     17  C   UNL     1       8.718   9.759  18.444  0.00  0.00    +0.000 C 
BRANCH  17  18
ATOM     18  C   UNL     1       8.760  11.236  18.049  0.00  0.00    +0.000 C 
ATOM     19  O   UNL     1       7.850  11.669  17.325  0.00  0.00    +0.000 OA
ATOM     20  N   UNL     1       9.839  12.003  18.513  0.00  0.00    +0.000 N 
ATOM     21  C   UNL     1      10.882  11.399  19.346  0.00  0.00    +0.000 C 
BRANCH  20  22
ATOM     22  C   UNL     1      10.187  13.323  17.910  0.00  0.00    +0.000 C 
ATOM     23  C   UNL     1       9.205  14.487  18.150  0.00  0.00    +0.000 C 
ATOM     24  C   UNL     1       9.134  14.856  19.630  0.00  0.00    +0.000 C 
ATOM     25  C   UNL     1      10.506  15.280  20.143  0.00  0.00    +0.000 C 
ATOM     26  C   UNL     1      11.585  14.243  19.830  0.00  0.00    +0.000 C 
ATOM     27  C   UNL     1      11.580  13.840  18.354  0.00  0.00    +0.000 C 
ENDBRANCH  20  22
ENDBRANCH  17  18
ENDBRANCH  16  17
ENDBRANCH   1  16
TORSDOF 9
ENDMDL
MODEL 8
REMARK VINA RESULT:      -6.2      2.519      4.244
REMARK  Name = 
REMARK  13 active torsions:
REMARK  status: ('A' for Active; 'I' for Inactive)
REMARK    1  A    between atoms: C_1  and  O_2
REMARK    2  A    between atoms: O_2  and  C_3
REMARK    3  A    between atoms: C_5  and  C_6
REMARK    4  A    between atoms: C_6  and  C_7
REMARK    5  A    between atoms: C_7  and  O_9
REMARK    6  A    between atoms: O_9  and  C_10
REMARK    7  A    between atoms: C_10  and  C_11
REMARK    8  A    between atoms: N_13  and  C_14
REMARK    9  A    between atoms: N_13  and  C_15
REMARK   10  A    between atoms: C_22  and  O_23
REMARK   11  A    between atoms: O_23  and  C_24
REMARK   12  A    between atoms: C_25  and  O_26
REMARK   13  A    between atoms: O_26  and  C_27
REMARK                            x       y       z     vdW  Elec       q    Type
REMARK                         _______ _______ _______ _____ _____    ______ ____
ROOT
ATOM      1  C   UNL     1       1.494   9.273  18.217  0.00  0.00    +0.000 C 
ATOM      2  O   UNL     1       2.218   9.291  17.197  0.00  0.00    +0.000 OA
ENDROOT
BRANCH   1   3
ATOM      3  C   UNL     1       0.174  10.011  18.331  0.00  0.00    +0.000 C 
BRANCH   3   6
ATOM      4  C   UNL     1      -0.825  12.456  21.134  0.00  0.00    +0.000 A 
ATOM      5  C   UNL     1      -0.910  11.525  20.069  0.00  0.00    +0.000 A 
ATOM      6  C   UNL     1       0.158  11.217  19.245  0.00  0.00    +0.000 A 
ATOM      7  C   UNL     1       1.309  12.006  19.391  0.00  0.00    +0.000 A 
ATOM      8  C   UNL     1       1.436  12.942  20.427  0.00  0.00    +0.000 A 
ATOM      9  C   UNL     1       0.379  13.183  21.327  0.00  0.00    +0.000 A 
BRANCH   4  11
ATOM     10  C   UNL     1      -1.763  11.582  23.122  0.00  0.00    +0.000 C 
ATOM     11  O   UNL     1      -1.875  12.511  22.028  0.00  0.00    +0.000 OA
ENDBRANCH   4  11
BRANCH   8  12
ATOM     12  O   UNL     1       2.713  13.469  20.449  0.00  0.00    +0.000 OA
ATOM     13  C   UNL     1       3.008  14.618  19.669  0.00  0.00    +0.000 C 
ENDBRANCH   8  12
BRANCH   9  14
ATOM     14  O   UNL     1       0.709  14.032  22.336  0.00  0.00    +0.000 OA
ATOM     15  C   UNL     1       0.171  15.324  22.496  0.00  0.00    +0.000 C 
ENDBRANCH   9  14
ENDBRANCH   3   6
ENDBRANCH   1   3
BRANCH   1  16
ATOM     16  O   UNL     1       1.749   8.516  19.313  0.00  0.00    +0.000 OA
BRANCH  16  17
ATOM     17  C   UNL     1       2.743   7.510  19.069  0.00  0.00    +0.000 C 
BRANCH  17  18
ATOM     18  C   UNL     1       2.402   6.188  19.758  0.00  0.00    +0.000 C 
ATOM     19  O   UNL     1       1.585   6.215  20.693  0.00  0.00    +0.000 OA
ATOM     20  N   UNL     1       3.051   5.031  19.304  0.00  0.00    +0.000 N 
ATOM     21  C   UNL     1       4.020   5.100  18.207  0.00  0.00    +0.000 C 
BRANCH  20  22
ATOM     22  C   UNL     1       3.087   3.777  20.111  0.00  0.00    +0.000 C 
ATOM     23  C   UNL     1       1.759   3.302  20.735  0.00  0.00    +0.000 C 
ATOM     24  C   UNL     1       0.746   2.922  19.656  0.00  0.00    +0.000 C 
ATOM     25  C   UNL     1       1.290   1.795  18.783  0.00  0.00    +0.000 C 
ATOM     26  C   UNL     1       2.675   2.116  18.224  0.00  0.00    +0.000 C 
ATOM     27  C   UNL     1       3.645   2.566  19.320  0.00  0.00    +0.000 C 
ENDBRANCH  20  22
ENDBRANCH  17  18
ENDBRANCH  16  17
ENDBRANCH   1  16
TORSDOF 9
ENDMDL
MODEL 9
REMARK VINA RESULT:      -6.2      6.629     11.134
REMARK  Name = 
REMARK  13 active torsions:
REMARK  status: ('A' for Active; 'I' for Inactive)
REMARK    1  A    between atoms: C_1  and  O_2
REMARK    2  A    between atoms: O_2  and  C_3
REMARK    3  A    between atoms: C_5  and  C_6
REMARK    4  A    between atoms: C_6  and  C_7
REMARK    5  A    between atoms: C_7  and  O_9
REMARK    6  A    between atoms: O_9  and  C_10
REMARK    7  A    between atoms: C_10  and  C_11
REMARK    8  A    between atoms: N_13  and  C_14
REMARK    9  A    between atoms: N_13  and  C_15
REMARK   10  A    between atoms: C_22  and  O_23
REMARK   11  A    between atoms: O_23  and  C_24
REMARK   12  A    between atoms: C_25  and  O_26
REMARK   13  A    between atoms: O_26  and  C_27
REMARK                            x       y       z     vdW  Elec       q    Type
REMARK                         _______ _______ _______ _____ _____    ______ ____
ROOT
ATOM      1  C   UNL     1       7.930   8.309  18.038  0.00  0.00    +0.000 C 
ATOM      2  O   UNL     1       7.291   8.480  16.976  0.00  0.00    +0.000 OA
ENDROOT
BRANCH   1   3
ATOM      3  C   UNL     1       8.269   6.947  18.612  0.00  0.00    +0.000 C 
BRANCH   3   6
ATOM      4  C   UNL     1       5.026   4.901  18.970  0.00  0.00    +0.000 A 
ATOM      5  C   UNL     1       6.157   5.695  19.287  0.00  0.00    +0.000 A 
ATOM      6  C   UNL     1       7.227   5.865  18.428  0.00  0.00    +0.000 A 
ATOM      7  C   UNL     1       7.237   5.067  17.274  0.00  0.00    +0.000 A 
ATOM      8  C   UNL     1       6.143   4.263  16.923  0.00  0.00    +0.000 A 
ATOM      9  C   UNL     1       5.010   4.168  17.755  0.00  0.00    +0.000 A 
BRANCH   4  11
ATOM     10  C   UNL     1       3.020   6.057  19.456  0.00  0.00    +0.000 C 
ATOM     11  O   UNL     1       3.925   4.990  19.797  0.00  0.00    +0.000 OA
ENDBRANCH   4  11
BRANCH   8  12
ATOM     12  O   UNL     1       6.335   3.705  15.674  0.00  0.00    +0.000 OA
ATOM     13  C   UNL     1       6.118   4.494  14.514  0.00  0.00    +0.000 C 
ENDBRANCH   8  12
BRANCH   9  14
ATOM     14  O   UNL     1       3.998   3.441  17.211  0.00  0.00    +0.000 OA
ATOM     15  C   UNL     1       3.466   2.269  17.782  0.00  0.00    +0.000 C 
ENDBRANCH   9  14
ENDBRANCH   3   6
ENDBRANCH   1   3
BRANCH   1  16
ATOM     16  O   UNL     1       8.483   9.316  18.759  0.00  0.00    +0.000 OA
BRANCH  16  17
ATOM     17  C   UNL     1       9.355  10.143  17.973  0.00  0.00    +0.000 C 
BRANCH  17  18
ATOM     18  C   UNL     1       9.051  11.631  18.156  0.00  0.00    +0.000 C 
ATOM     19  O   UNL     1       8.150  12.128  17.461  0.00  0.00    +0.000 OA
ATOM     20  N   UNL     1       9.825  12.345  19.081  0.00  0.00    +0.000 N 
ATOM     21  C   UNL     1      10.886  11.676  19.841  0.00  0.00    +0.000 C 
BRANCH  20  22
ATOM     22  C   UNL     1       9.881  13.835  19.084  0.00  0.00    +0.000 C 
ATOM     23  C   UNL     1       8.537  14.589  19.152  0.00  0.00    +0.000 C 
ATOM     24  C   UNL     1       7.821  14.325  20.475  0.00  0.00    +0.000 C 
ATOM     25  C   UNL     1       8.681  14.780  21.650  0.00  0.00    +0.000 C 
ATOM     26  C   UNL     1      10.089  14.190  21.597  0.00  0.00    +0.000 C 
ATOM     27  C   UNL     1      10.750  14.405  20.233  0.00  0.00    +0.000 C 
ENDBRANCH  20  22
ENDBRANCH  17  18
ENDBRANCH  16  17
ENDBRANCH   1  16
TORSDOF 9
ENDMDL
