MODEL 1
REMARK VINA RESULT:      -7.3      0.000      0.000
REMARK  Name = 
REMARK  12 active torsions:
REMARK  status: ('A' for Active; 'I' for Inactive)
REMARK    1  A    between atoms: C_1  and  N_2
REMARK    2  A    between atoms: N_2  and  O_3
REMARK    3  A    between atoms: C_4  and  C_6
REMARK    4  A    between atoms: C_6  and  C_7
REMARK    5  A    between atoms: C_7  and  C_8
REMARK    6  A    between atoms: C_8  and  C_9
REMARK    7  A    between atoms: C_9  and  C_10
REMARK    8  A    between atoms: C_10  and  C_11
REMARK    9  A    between atoms: C_11  and  C_12
REMARK   10  A    between atoms: C_11  and  C_22
REMARK   11  A    between atoms: N_14  and  C_15
REMARK   12  A    between atoms: N_24  and  C_25
REMARK                            x       y       z     vdW  Elec       q    Type
REMARK                         _______ _______ _______ _____ _____    ______ ____
ROOT
ATOM      1  C   UNL     1      -0.881  10.450  18.714  0.00  0.00    +0.000 C 
ENDROOT
BRANCH   1   2
ATOM      2  C   UNL     1      -0.449  11.766  19.329  0.00  0.00    +0.000 A 
ATOM      3  C   UNL     1       0.240  12.777  18.676  0.00  0.00    +0.000 A 
ATOM      4  N   UNL     1       0.423  13.816  19.548  0.00  0.00    +0.000 N 
ATOM      5  C   UNL     1       1.069  15.064  19.216  0.00  0.00    +0.000 C 
ATOM      6  C   UNL     1      -0.114  13.508  20.779  0.00  0.00    +0.000 A 
ATOM      7  C   UNL     1      -0.156  14.239  21.977  0.00  0.00    +0.000 A 
ATOM      8  C   UNL     1      -0.782  13.660  23.085  0.00  0.00    +0.000 A 
ATOM      9  C   UNL     1      -1.353  12.397  23.001  0.00  0.00    +0.000 A 
ATOM     10  C   UNL     1      -1.306  11.681  21.804  0.00  0.00    +0.000 A 
ATOM     11  C   UNL     1      -0.673  12.231  20.669  0.00  0.00    +0.000 A 
ENDBRANCH   1   2
BRANCH   1  12
ATOM     12  C   UNL     1      -2.040  10.633  17.765  0.00  0.00    +0.000 A 
ATOM     13  C   UNL     1      -2.119  10.173  16.462  0.00  0.00    +0.000 A 
ATOM     14  N   UNL     1      -3.328  10.525  15.947  0.00  0.00    +0.000 N 
ATOM     15  C   UNL     1      -3.770  10.189  14.615  0.00  0.00    +0.000 C 
ATOM     16  C   UNL     1      -4.067  11.209  16.883  0.00  0.00    +0.000 A 
ATOM     17  C   UNL     1      -5.354  11.759  16.810  0.00  0.00    +0.000 A 
ATOM     18  C   UNL     1      -5.865  12.395  17.945  0.00  0.00    +0.000 A 
ATOM     19  C   UNL     1      -5.113  12.482  19.112  0.00  0.00    +0.000 A 
ATOM     20  C   UNL     1      -3.826  11.936  19.174  0.00  0.00    +0.000 A 
ATOM     21  C   UNL     1      -3.286  11.287  18.042  0.00  0.00    +0.000 A 
ENDBRANCH   1  12
BRANCH   1  22
ATOM     22  C   UNL     1       0.288   9.682  18.048  0.00  0.00    +0.000 C 
BRANCH  22  23
ATOM     23  C   UNL     1       1.384   9.239  19.011  0.00  0.00    +0.000 C 
BRANCH  23  24
ATOM     24  C   UNL     1       2.330   8.210  18.396  0.00  0.00    +0.000 C 
BRANCH  24  25
ATOM     25  C   UNL     1       2.406   6.934  19.220  0.00  0.00    +0.000 C 
BRANCH  25  26
ATOM     26  C   UNL     1       2.880   5.732  18.401  0.00  0.00    +0.000 C 
BRANCH  26  29
ATOM     27  C   UNL     1       0.986   2.466  18.918  0.00  0.00    +0.000 C 
ATOM     28  N   UNL     1       1.478   3.734  18.418  0.00  0.00    +0.000 N 
ATOM     29  C   UNL     1       2.476   4.433  19.052  0.00  0.00    +0.000 C 
ATOM     30  O   UNL     1       2.986   4.029  20.101  0.00  0.00    +0.000 OA
BRANCH  28  31
ATOM     31  O   UNL     1       1.006   4.174  17.169  0.00  0.00    +0.000 OA
ATOM     32  H   UNL     1       1.723   3.973  16.544  0.00  0.00    +0.000 HD
ENDBRANCH  28  31
ENDBRANCH  26  29
ENDBRANCH  25  26
ENDBRANCH  24  25
ENDBRANCH  23  24
ENDBRANCH  22  23
ENDBRANCH   1  22
TORSDOF 9
ENDMDL
MODEL 2
REMARK VINA RESULT:      -7.3      3.324      7.204
REMARK  Name = 
REMARK  12 active torsions:
REMARK  status: ('A' for Active; 'I' for Inactive)
REMARK    1  A    between atoms: C_1  and  N_2
REMARK    2  A    between atoms: N_2  and  O_3
REMARK    3  A    between atoms: C_4  and  C_6
REMARK    4  A    between atoms: C_6  and  C_7
REMARK    5  A    between atoms: C_7  and  C_8
REMARK    6  A    between atoms: C_8  and  C_9
REMARK    7  A    between atoms: C_9  and  C_10
REMARK    8  A    between atoms: C_10  and  C_11
REMARK    9  A    between atoms: C_11  and  C_12
REMARK   10  A    between atoms: C_11  and  C_22
REMARK   11  A    between atoms: N_14  and  C_15
REMARK   12  A    between atoms: N_24  and  C_25
REMARK                            x       y       z     vdW  Elec       q    Type
REMARK                         _______ _______ _______ _____ _____    ______ ____
ROOT
ATOM      1  C   UNL     1       2.401   7.209  19.419  0.00  0.00    +0.000 C 
ENDROOT
BRANCH   1   2
ATOM      2  C   UNL     1       1.491   8.119  20.219  0.00  0.00    +0.000 A 
ATOM      3  C   UNL     1       1.322   8.087  21.595  0.00  0.00    +0.000 A 
ATOM      4  N   UNL     1       0.446   9.078  21.951  0.00  0.00    +0.000 N 
ATOM      5  C   UNL     1       0.052   9.378  23.307  0.00  0.00    +0.000 C 
ATOM      6  C   UNL     1       0.012   9.756  20.834  0.00  0.00    +0.000 A 
ATOM      7  C   UNL     1      -0.890  10.824  20.694  0.00  0.00    +0.000 A 
ATOM      8  C   UNL     1      -1.139  11.318  19.411  0.00  0.00    +0.000 A 
ATOM      9  C   UNL     1      -0.507  10.771  18.302  0.00  0.00    +0.000 A 
ATOM     10  C   UNL     1       0.388   9.711  18.454  0.00  0.00    +0.000 A 
ATOM     11  C   UNL     1       0.656   9.181  19.734  0.00  0.00    +0.000 A 
ENDBRANCH   1   2
BRANCH   1  12
ATOM     12  C   UNL     1       2.194   5.758  19.778  0.00  0.00    +0.000 A 
ATOM     13  C   UNL     1       1.798   5.261  21.007  0.00  0.00    +0.000 A 
ATOM     14  N   UNL     1       1.711   3.905  20.922  0.00  0.00    +0.000 N 
ATOM     15  C   UNL     1       1.299   3.051  22.010  0.00  0.00    +0.000 C 
ATOM     16  C   UNL     1       2.036   3.482  19.655  0.00  0.00    +0.000 A 
ATOM     17  C   UNL     1       2.084   2.195  19.104  0.00  0.00    +0.000 A 
ATOM     18  C   UNL     1       2.439   2.066  17.758  0.00  0.00    +0.000 A 
ATOM     19  C   UNL     1       2.738   3.186  16.990  0.00  0.00    +0.000 A 
ATOM     20  C   UNL     1       2.694   4.468  17.551  0.00  0.00    +0.000 A 
ATOM     21  C   UNL     1       2.338   4.626  18.908  0.00  0.00    +0.000 A 
ENDBRANCH   1  12
BRANCH   1  22
ATOM     22  C   UNL     1       2.293   7.440  17.890  0.00  0.00    +0.000 C 
BRANCH  22  23
ATOM     23  C   UNL     1       3.531   8.067  17.257  0.00  0.00    +0.000 C 
BRANCH  23  24
ATOM     24  C   UNL     1       4.745   7.142  17.294  0.00  0.00    +0.000 C 
BRANCH  24  25
ATOM     25  C   UNL     1       4.977   6.445  15.961  0.00  0.00    +0.000 C 
BRANCH  25  26
ATOM     26  C   UNL     1       6.270   5.627  15.942  0.00  0.00    +0.000 C 
BRANCH  26  29
ATOM     27  C   UNL     1       8.120   5.621  19.273  0.00  0.00    +0.000 C 
ATOM     28  N   UNL     1       7.252   5.313  18.154  0.00  0.00    +0.000 N 
ATOM     29  C   UNL     1       7.221   6.085  17.019  0.00  0.00    +0.000 C 
ATOM     30  O   UNL     1       7.913   7.101  16.906  0.00  0.00    +0.000 OA
BRANCH  28  31
ATOM     31  O   UNL     1       6.533   4.106  18.195  0.00  0.00    +0.000 OA
ATOM     32  H   UNL     1       7.156   3.432  17.874  0.00  0.00    +0.000 HD
ENDBRANCH  28  31
ENDBRANCH  26  29
ENDBRANCH  25  26
ENDBRANCH  24  25
ENDBRANCH  23  24
ENDBRANCH  22  23
ENDBRANCH   1  22
TORSDOF 9
ENDMDL
MODEL 3
REMARK VINA RESULT:      -7.3      0.807      1.088
REMARK  Name = 
REMARK  12 active torsions:
REMARK  status: ('A' for Active; 'I' for Inactive)
REMARK    1  A    between atoms: C_1  and  N_2
REMARK    2  A    between atoms: N_2  and  O_3
REMARK    3  A    between atoms: C_4  and  C_6
REMARK    4  A    between atoms: C_6  and  C_7
REMARK    5  A    between atoms: C_7  and  C_8
REMARK    6  A    between atoms: C_8  and  C_9
REMARK    7  A    between atoms: C_9  and  C_10
REMARK    8  A    between atoms: C_10  and  C_11
REMARK    9  A    between atoms: C_11  and  C_12
REMARK   10  A    between atoms: C_11  and  C_22
REMARK   11  A    between atoms: N_14  and  C_15
REMARK   12  A    between atoms: N_24  and  C_25
REMARK                            x       y       z     vdW  Elec       q    Type
REMARK                         _______ _______ _______ _____ _____    ______ ____
ROOT
ATOM      1  C   UNL     1      -0.749  10.469  18.684  0.00  0.00    +0.000 C 
ENDROOT
BRANCH   1   2
ATOM      2  C   UNL     1      -0.351  11.778  19.335  0.00  0.00    +0.000 A 
ATOM      3  C   UNL     1       0.345  12.808  18.721  0.00  0.00    +0.000 A 
ATOM      4  N   UNL     1       0.489  13.833  19.618  0.00  0.00    +0.000 N 
ATOM      5  C   UNL     1       1.130  15.094  19.327  0.00  0.00    +0.000 C 
ATOM      6  C   UNL     1      -0.080  13.496  20.826  0.00  0.00    +0.000 A 
ATOM      7  C   UNL     1      -0.166  14.204  22.036  0.00  0.00    +0.000 A 
ATOM      8  C   UNL     1      -0.817  13.598  23.113  0.00  0.00    +0.000 A 
ATOM      9  C   UNL     1      -1.371  12.330  22.990  0.00  0.00    +0.000 A 
ATOM     10  C   UNL     1      -1.280  11.637  21.782  0.00  0.00    +0.000 A 
ATOM     11  C   UNL     1      -0.620  12.215  20.676  0.00  0.00    +0.000 A 
ENDBRANCH   1   2
BRANCH   1  12
ATOM     12  C   UNL     1      -1.935  10.640  17.767  0.00  0.00    +0.000 A 
ATOM     13  C   UNL     1      -2.047  10.179  16.467  0.00  0.00    +0.000 A 
ATOM     14  N   UNL     1      -3.274  10.520  15.987  0.00  0.00    +0.000 N 
ATOM     15  C   UNL     1      -3.750  10.180  14.668  0.00  0.00    +0.000 C 
ATOM     16  C   UNL     1      -3.992  11.198  16.944  0.00  0.00    +0.000 A 
ATOM     17  C   UNL     1      -5.286  11.736  16.907  0.00  0.00    +0.000 A 
ATOM     18  C   UNL     1      -5.770  12.368  18.056  0.00  0.00    +0.000 A 
ATOM     19  C   UNL     1      -4.986  12.462  19.201  0.00  0.00    +0.000 A 
ATOM     20  C   UNL     1      -3.693  11.928  19.226  0.00  0.00    +0.000 A 
ATOM     21  C   UNL     1      -3.179  11.283  18.080  0.00  0.00    +0.000 A 
ENDBRANCH   1  12
BRANCH   1  22
ATOM     22  C   UNL     1       0.432   9.768  17.965  0.00  0.00    +0.000 C 
BRANCH  22  23
ATOM     23  C   UNL     1       1.428   9.091  18.899  0.00  0.00    +0.000 C 
BRANCH  23  24
ATOM     24  C   UNL     1       2.415   8.191  18.158  0.00  0.00    +0.000 C 
BRANCH  24  25
ATOM     25  C   UNL     1       2.573   6.835  18.831  0.00  0.00    +0.000 C 
BRANCH  25  26
ATOM     26  C   UNL     1       3.389   5.852  17.989  0.00  0.00    +0.000 C 
BRANCH  26  29
ATOM     27  C   UNL     1       2.990   2.066  17.842  0.00  0.00    +0.000 C 
ATOM     28  N   UNL     1       3.511   3.415  17.926  0.00  0.00    +0.000 N 
ATOM     29  C   UNL     1       2.694   4.519  17.881  0.00  0.00    +0.000 C 
ATOM     30  O   UNL     1       1.472   4.416  17.736  0.00  0.00    +0.000 OA
BRANCH  28  31
ATOM     31  O   UNL     1       4.879   3.574  18.204  0.00  0.00    +0.000 OA
ATOM     32  H   UNL     1       4.924   4.321  18.826  0.00  0.00    +0.000 HD
ENDBRANCH  28  31
ENDBRANCH  26  29
ENDBRANCH  25  26
ENDBRANCH  24  25
ENDBRANCH  23  24
ENDBRANCH  22  23
ENDBRANCH   1  22
TORSDOF 9
ENDMDL
MODEL 4
REMARK VINA RESULT:      -7.3      3.426      7.400
REMARK  Name = 
REMARK  12 active torsions:
REMARK  status: ('A' for Active; 'I' for Inactive)
REMARK    1  A    between atoms: C_1  and  N_2
REMARK    2  A    between atoms: N_2  and  O_3
REMARK    3  A    between atoms: C_4  and  C_6
REMARK    4  A    between atoms: C_6  and  C_7
REMARK    5  A    between atoms: C_7  and  C_8
REMARK    6  A    between atoms: C_8  and  C_9
REMARK    7  A    between atoms: C_9  and  C_10
REMARK    8  A    between atoms: C_10  and  C_11
REMARK    9  A    between atoms: C_11  and  C_12
REMARK   10  A    between atoms: C_11  and  C_22
REMARK   11  A    between atoms: N_14  and  C_15
REMARK   12  A    between atoms: N_24  and  C_25
REMARK                            x       y       z     vdW  Elec       q    Type
REMARK                         _______ _______ _______ _____ _____    ______ ____
ROOT
ATOM      1  C   UNL     1       2.767   6.965  19.484  0.00  0.00    +0.000 C 
ENDROOT
BRANCH   1   2
ATOM      2  C   UNL     1       1.792   7.929  20.130  0.00  0.00    +0.000 A 
ATOM      3  C   UNL     1       1.543   8.038  21.490  0.00  0.00    +0.000 A 
ATOM      4  N   UNL     1       0.628   9.037  21.688  0.00  0.00    +0.000 N 
ATOM      5  C   UNL     1       0.149   9.468  22.980  0.00  0.00    +0.000 C 
ATOM      6  C   UNL     1       0.246   9.582  20.482  0.00  0.00    +0.000 A 
ATOM      7  C   UNL     1      -0.668  10.605  20.179  0.00  0.00    +0.000 A 
ATOM      8  C   UNL     1      -0.851  10.953  18.838  0.00  0.00    +0.000 A 
ATOM      9  C   UNL     1      -0.144  10.310  17.831  0.00  0.00    +0.000 A 
ATOM     10  C   UNL     1       0.763   9.296  18.146  0.00  0.00    +0.000 A 
ATOM     11  C   UNL     1       0.965   8.911  19.488  0.00  0.00    +0.000 A 
ENDBRANCH   1   2
BRANCH   1  12
ATOM     12  C   UNL     1       2.447   5.532  19.833  0.00  0.00    +0.000 A 
ATOM     13  C   UNL     1       2.107   5.043  21.083  0.00  0.00    +0.000 A 
ATOM     14  N   UNL     1       1.878   3.706  20.981  0.00  0.00    +0.000 N 
ATOM     15  C   UNL     1       1.476   2.867  22.084  0.00  0.00    +0.000 C 
ATOM     16  C   UNL     1       2.053   3.287  19.683  0.00  0.00    +0.000 A 
ATOM     17  C   UNL     1       1.926   2.016  19.106  0.00  0.00    +0.000 A 
ATOM     18  C   UNL     1       2.152   1.889  17.733  0.00  0.00    +0.000 A 
ATOM     19  C   UNL     1       2.496   2.995  16.963  0.00  0.00    +0.000 A 
ATOM     20  C   UNL     1       2.628   4.259  17.548  0.00  0.00    +0.000 A 
ATOM     21  C   UNL     1       2.404   4.415  18.934  0.00  0.00    +0.000 A 
ENDBRANCH   1  12
BRANCH   1  22
ATOM     22  C   UNL     1       2.890   7.166  17.953  0.00  0.00    +0.000 C 
BRANCH  22  23
ATOM     23  C   UNL     1       4.312   7.406  17.459  0.00  0.00    +0.000 C 
BRANCH  23  24
ATOM     24  C   UNL     1       5.278   6.300  17.879  0.00  0.00    +0.000 C 
BRANCH  24  25
ATOM     25  C   UNL     1       6.672   6.506  17.304  0.00  0.00    +0.000 C 
BRANCH  25  26
ATOM     26  C   UNL     1       7.335   5.191  16.888  0.00  0.00    +0.000 C 
BRANCH  26  29
ATOM     27  C   UNL     1       6.175   3.592  13.630  0.00  0.00    +0.000 C 
ATOM     28  N   UNL     1       6.397   3.928  15.022  0.00  0.00    +0.000 N 
ATOM     29  C   UNL     1       7.214   4.965  15.402  0.00  0.00    +0.000 C 
ATOM     30  O   UNL     1       7.825   5.646  14.575  0.00  0.00    +0.000 OA
BRANCH  28  31
ATOM     31  O   UNL     1       5.635   3.253  15.990  0.00  0.00    +0.000 OA
ATOM     32  H   UNL     1       4.711   3.471  15.779  0.00  0.00    +0.000 HD
ENDBRANCH  28  31
ENDBRANCH  26  29
ENDBRANCH  25  26
ENDBRANCH  24  25
ENDBRANCH  23  24
ENDBRANCH  22  23
ENDBRANCH   1  22
TORSDOF 9
ENDMDL
MODEL 5
REMARK VINA RESULT:      -7.3      4.280      7.955
REMARK  Name = 
REMARK  12 active torsions:
REMARK  status: ('A' for Active; 'I' for Inactive)
REMARK    1  A    between atoms: C_1  and  N_2
REMARK    2  A    between atoms: N_2  and  O_3
REMARK    3  A    between atoms: C_4  and  C_6
REMARK    4  A    between atoms: C_6  and  C_7
REMARK    5  A    between atoms: C_7  and  C_8
REMARK    6  A    between atoms: C_8  and  C_9
REMARK    7  A    between atoms: C_9  and  C_10
REMARK    8  A    between atoms: C_10  and  C_11
REMARK    9  A    between atoms: C_11  and  C_12
REMARK   10  A    between atoms: C_11  and  C_22
REMARK   11  A    between atoms: N_14  and  C_15
REMARK   12  A    between atoms: N_24  and  C_25
REMARK                            x       y       z     vdW  Elec       q    Type
REMARK                         _______ _______ _______ _____ _____    ______ ____
ROOT
ATOM      1  C   UNL     1       2.969   5.712  18.621  0.00  0.00    +0.000 C 
ENDROOT
BRANCH   1   2
ATOM      2  C   UNL     1       4.450   5.614  18.315  0.00  0.00    +0.000 A 
ATOM      3  C   UNL     1       5.480   5.887  19.203  0.00  0.00    +0.000 A 
ATOM      4  N   UNL     1       6.673   5.656  18.573  0.00  0.00    +0.000 N 
ATOM      5  C   UNL     1       7.970   5.796  19.192  0.00  0.00    +0.000 C 
ATOM      6  C   UNL     1       6.458   5.255  17.273  0.00  0.00    +0.000 A 
ATOM      7  C   UNL     1       7.359   4.925  16.247  0.00  0.00    +0.000 A 
ATOM      8  C   UNL     1       6.840   4.543  15.007  0.00  0.00    +0.000 A 
ATOM      9  C   UNL     1       5.469   4.484  14.795  0.00  0.00    +0.000 A 
ATOM     10  C   UNL     1       4.584   4.813  15.824  0.00  0.00    +0.000 A 
ATOM     11  C   UNL     1       5.073   5.213  17.085  0.00  0.00    +0.000 A 
ENDBRANCH   1   2
BRANCH   1  12
ATOM     12  C   UNL     1       2.517   7.148  18.731  0.00  0.00    +0.000 A 
ATOM     13  C   UNL     1       2.762   8.162  17.822  0.00  0.00    +0.000 A 
ATOM     14  N   UNL     1       2.174   9.304  18.273  0.00  0.00    +0.000 N 
ATOM     15  C   UNL     1       2.201  10.561  17.566  0.00  0.00    +0.000 C 
ATOM     16  C   UNL     1       1.532   9.073  19.467  0.00  0.00    +0.000 A 
ATOM     17  C   UNL     1       0.797   9.935  20.293  0.00  0.00    +0.000 A 
ATOM     18  C   UNL     1       0.235   9.410  21.460  0.00  0.00    +0.000 A 
ATOM     19  C   UNL     1       0.403   8.070  21.791  0.00  0.00    +0.000 A 
ATOM     20  C   UNL     1       1.144   7.218  20.964  0.00  0.00    +0.000 A 
ATOM     21  C   UNL     1       1.723   7.722  19.779  0.00  0.00    +0.000 A 
ENDBRANCH   1  12
BRANCH   1  22
ATOM     22  C   UNL     1       2.092   4.912  17.625  0.00  0.00    +0.000 C 
BRANCH  22  23
ATOM     23  C   UNL     1       2.040   3.412  17.893  0.00  0.00    +0.000 C 
BRANCH  23  24
ATOM     24  C   UNL     1       0.841   3.007  18.749  0.00  0.00    +0.000 C 
BRANCH  24  25
ATOM     25  C   UNL     1       1.120   3.161  20.237  0.00  0.00    +0.000 C 
BRANCH  25  26
ATOM     26  C   UNL     1       2.576   3.531  20.528  0.00  0.00    +0.000 C 
BRANCH  26  29
ATOM     27  C   UNL     1       5.238   0.907  21.267  0.00  0.00    +0.000 C 
ATOM     28  N   UNL     1       4.442   1.964  20.678  0.00  0.00    +0.000 N 
ATOM     29  C   UNL     1       3.285   2.420  21.261  0.00  0.00    +0.000 C 
ATOM     30  O   UNL     1       2.848   1.929  22.306  0.00  0.00    +0.000 OA
BRANCH  28  31
ATOM     31  O   UNL     1       4.961   2.626  19.552  0.00  0.00    +0.000 OA
ATOM     32  H   UNL     1       4.304   2.479  18.850  0.00  0.00    +0.000 HD
ENDBRANCH  28  31
ENDBRANCH  26  29
ENDBRANCH  25  26
ENDBRANCH  24  25
ENDBRANCH  23  24
ENDBRANCH  22  23
ENDBRANCH   1  22
TORSDOF 9
ENDMDL
MODEL 6
REMARK VINA RESULT:      -7.2      3.280      7.603
REMARK  Name = 
REMARK  12 active torsions:
REMARK  status: ('A' for Active; 'I' for Inactive)
REMARK    1  A    between atoms: C_1  and  N_2
REMARK    2  A    between atoms: N_2  and  O_3
REMARK    3  A    between atoms: C_4  and  C_6
REMARK    4  A    between atoms: C_6  and  C_7
REMARK    5  A    between atoms: C_7  and  C_8
REMARK    6  A    between atoms: C_8  and  C_9
REMARK    7  A    between atoms: C_9  and  C_10
REMARK    8  A    between atoms: C_10  and  C_11
REMARK    9  A    between atoms: C_11  and  C_12
REMARK   10  A    between atoms: C_11  and  C_22
REMARK   11  A    between atoms: N_14  and  C_15
REMARK   12  A    between atoms: N_24  and  C_25
REMARK                            x       y       z     vdW  Elec       q    Type
REMARK                         _______ _______ _______ _____ _____    ______ ____
ROOT
ATOM      1  C   UNL     1       2.186   7.163  18.794  0.00  0.00    +0.000 C 
ENDROOT
BRANCH   1   2
ATOM      2  C   UNL     1       2.248   5.760  19.363  0.00  0.00    +0.000 A 
ATOM      3  C   UNL     1       2.173   5.429  20.707  0.00  0.00    +0.000 A 
ATOM      4  N   UNL     1       2.233   4.066  20.825  0.00  0.00    +0.000 N 
ATOM      5  C   UNL     1       2.147   3.344  22.073  0.00  0.00    +0.000 C 
ATOM      6  C   UNL     1       2.369   3.484  19.584  0.00  0.00    +0.000 A 
ATOM      7  C   UNL     1       2.487   2.137  19.204  0.00  0.00    +0.000 A 
ATOM      8  C   UNL     1       2.611   1.841  17.843  0.00  0.00    +0.000 A 
ATOM      9  C   UNL     1       2.611   2.852  16.891  0.00  0.00    +0.000 A 
ATOM     10  C   UNL     1       2.490   4.186  17.282  0.00  0.00    +0.000 A 
ATOM     11  C   UNL     1       2.374   4.522  18.648  0.00  0.00    +0.000 A 
ENDBRANCH   1   2
BRANCH   1  12
ATOM     12  C   UNL     1       1.482   8.114  19.730  0.00  0.00    +0.000 A 
ATOM     13  C   UNL     1       1.545   8.109  21.113  0.00  0.00    +0.000 A 
ATOM     14  N   UNL     1       0.785   9.133  21.588  0.00  0.00    +0.000 N 
ATOM     15  C   UNL     1       0.636   9.448  22.989  0.00  0.00    +0.000 C 
ATOM     16  C   UNL     1       0.217   9.831  20.549  0.00  0.00    +0.000 A 
ATOM     17  C   UNL     1      -0.628  10.950  20.551  0.00  0.00    +0.000 A 
ATOM     18  C   UNL     1      -1.043  11.465  19.320  0.00  0.00    +0.000 A 
ATOM     19  C   UNL     1      -0.630  10.881  18.128  0.00  0.00    +0.000 A 
ATOM     20  C   UNL     1       0.208   9.760  18.135  0.00  0.00    +0.000 A 
ATOM     21  C   UNL     1       0.643   9.219  19.365  0.00  0.00    +0.000 A 
ENDBRANCH   1  12
BRANCH   1  22
ATOM     22  C   UNL     1       3.575   7.704  18.369  0.00  0.00    +0.000 C 
BRANCH  22  23
ATOM     23  C   UNL     1       4.166   7.029  17.136  0.00  0.00    +0.000 C 
BRANCH  23  24
ATOM     24  C   UNL     1       5.691   6.947  17.183  0.00  0.00    +0.000 C 
BRANCH  24  25
ATOM     25  C   UNL     1       6.177   5.682  17.876  0.00  0.00    +0.000 C 
BRANCH  25  26
ATOM     26  C   UNL     1       7.197   4.908  17.039  0.00  0.00    +0.000 C 
BRANCH  26  29
ATOM     27  C   UNL     1       6.345   4.001  13.437  0.00  0.00    +0.000 C 
ATOM     28  N   UNL     1       6.894   4.602  14.636  0.00  0.00    +0.000 N 
ATOM     29  C   UNL     1       6.531   4.187  15.894  0.00  0.00    +0.000 C 
ATOM     30  O   UNL     1       5.693   3.298  16.067  0.00  0.00    +0.000 OA
BRANCH  28  31
ATOM     31  O   UNL     1       7.931   5.538  14.485  0.00  0.00    +0.000 OA
ATOM     32  H   UNL     1       8.300   5.651  15.377  0.00  0.00    +0.000 HD
ENDBRANCH  28  31
ENDBRANCH  26  29
ENDBRANCH  25  26
ENDBRANCH  24  25
ENDBRANCH  23  24
ENDBRANCH  22  23
ENDBRANCH   1  22
TORSDOF 9
ENDMDL
MODEL 7
REMARK VINA RESULT:      -7.2      3.628      7.551
REMARK  Name = 
REMARK  12 active torsions:
REMARK  status: ('A' for Active; 'I' for Inactive)
REMARK    1  A    between atoms: C_1  and  N_2
REMARK    2  A    between atoms: N_2  and  O_3
REMARK    3  A    between atoms: C_4  and  C_6
REMARK    4  A    between atoms: C_6  and  C_7
REMARK    5  A    between atoms: C_7  and  C_8
REMARK    6  A    between atoms: C_8  and  C_9
REMARK    7  A    between atoms: C_9  and  C_10
REMARK    8  A    between atoms: C_10  and  C_11
REMARK    9  A    between atoms: C_11  and  C_12
REMARK   10  A    between atoms: C_11  and  C_22
REMARK   11  A    between atoms: N_14  and  C_15
REMARK   12  A    between atoms: N_24  and  C_25
REMARK                            x       y       z     vdW  Elec       q    Type
REMARK                         _______ _______ _______ _____ _____    ______ ____
ROOT
ATOM      1  C   UNL     1       2.820   7.009  19.567  0.00  0.00    +0.000 C 
ENDROOT
BRANCH   1   2
ATOM      2  C   UNL     1       1.795   7.956  20.157  0.00  0.00    +0.000 A 
ATOM      3  C   UNL     1       1.491   8.081  21.505  0.00  0.00    +0.000 A 
ATOM      4  N   UNL     1       0.541   9.057  21.650  0.00  0.00    +0.000 N 
ATOM      5  C   UNL     1       0.001   9.496  22.915  0.00  0.00    +0.000 C 
ATOM      6  C   UNL     1       0.192   9.570  20.420  0.00  0.00    +0.000 A 
ATOM      7  C   UNL     1      -0.738  10.562  20.064  0.00  0.00    +0.000 A 
ATOM      8  C   UNL     1      -0.879  10.882  18.711  0.00  0.00    +0.000 A 
ATOM      9  C   UNL     1      -0.115  10.242  17.744  0.00  0.00    +0.000 A 
ATOM     10  C   UNL     1       0.806   9.260  18.111  0.00  0.00    +0.000 A 
ATOM     11  C   UNL     1       0.967   8.903  19.467  0.00  0.00    +0.000 A 
ENDBRANCH   1   2
BRANCH   1  12
ATOM     12  C   UNL     1       2.495   5.569  19.883  0.00  0.00    +0.000 A 
ATOM     13  C   UNL     1       2.149   5.054  21.119  0.00  0.00    +0.000 A 
ATOM     14  N   UNL     1       1.918   3.719  20.987  0.00  0.00    +0.000 N 
ATOM     15  C   UNL     1       1.509   2.857  22.070  0.00  0.00    +0.000 C 
ATOM     16  C   UNL     1       2.097   3.329  19.681  0.00  0.00    +0.000 A 
ATOM     17  C   UNL     1       1.969   2.071  19.076  0.00  0.00    +0.000 A 
ATOM     18  C   UNL     1       2.200   1.975  17.701  0.00  0.00    +0.000 A 
ATOM     19  C   UNL     1       2.550   3.096  16.956  0.00  0.00    +0.000 A 
ATOM     20  C   UNL     1       2.682   4.347  17.571  0.00  0.00    +0.000 A 
ATOM     21  C   UNL     1       2.453   4.473  18.958  0.00  0.00    +0.000 A 
ENDBRANCH   1  12
BRANCH   1  22
ATOM     22  C   UNL     1       3.037   7.225  18.048  0.00  0.00    +0.000 C 
BRANCH  22  23
ATOM     23  C   UNL     1       4.493   7.423  17.639  0.00  0.00    +0.000 C 
BRANCH  23  24
ATOM     24  C   UNL     1       4.815   6.801  16.282  0.00  0.00    +0.000 C 
BRANCH  24  25
ATOM     25  C   UNL     1       5.772   5.623  16.403  0.00  0.00    +0.000 C 
BRANCH  25  26
ATOM     26  C   UNL     1       5.600   4.608  15.271  0.00  0.00    +0.000 C 
BRANCH  26  29
ATOM     27  C   UNL     1       7.419   4.162  11.953  0.00  0.00    +0.000 C 
ATOM     28  N   UNL     1       6.467   4.112  13.044  0.00  0.00    +0.000 N 
ATOM     29  C   UNL     1       6.690   4.751  14.240  0.00  0.00    +0.000 C 
ATOM     30  O   UNL     1       7.730   5.379  14.455  0.00  0.00    +0.000 OA
BRANCH  28  31
ATOM     31  O   UNL     1       5.223   3.504  12.802  0.00  0.00    +0.000 OA
ATOM     32  H   UNL     1       4.599   3.969  13.385  0.00  0.00    +0.000 HD
ENDBRANCH  28  31
ENDBRANCH  26  29
ENDBRANCH  25  26
ENDBRANCH  24  25
ENDBRANCH  23  24
ENDBRANCH  22  23
ENDBRANCH   1  22
TORSDOF 9
ENDMDL
MODEL 8
REMARK VINA RESULT:      -7.1      2.440      6.074
REMARK  Name = 
REMARK  12 active torsions:
REMARK  status: ('A' for Active; 'I' for Inactive)
REMARK    1  A    between atoms: C_1  and  N_2
REMARK    2  A    between atoms: N_2  and  O_3
REMARK    3  A    between atoms: C_4  and  C_6
REMARK    4  A    between atoms: C_6  and  C_7
REMARK    5  A    between atoms: C_7  and  C_8
REMARK    6  A    between atoms: C_8  and  C_9
REMARK    7  A    between atoms: C_9  and  C_10
REMARK    8  A    between atoms: C_10  and  C_11
REMARK    9  A    between atoms: C_11  and  C_12
REMARK   10  A    between atoms: C_11  and  C_22
REMARK   11  A    between atoms: N_14  and  C_15
REMARK   12  A    between atoms: N_24  and  C_25
REMARK                            x       y       z     vdW  Elec       q    Type
REMARK                         _______ _______ _______ _____ _____    ______ ____
ROOT
ATOM      1  C   UNL     1      -1.861  12.541  20.661  0.00  0.00    +0.000 C 
ENDROOT
BRANCH   1   2
ATOM      2  C   UNL     1      -3.070  12.306  19.778  0.00  0.00    +0.000 A 
ATOM      3  C   UNL     1      -4.383  12.603  20.108  0.00  0.00    +0.000 A 
ATOM      4  N   UNL     1      -5.185  12.278  19.047  0.00  0.00    +0.000 N 
ATOM      5  C   UNL     1      -6.614  12.481  19.004  0.00  0.00    +0.000 C 
ATOM      6  C   UNL     1      -4.431  11.749  18.022  0.00  0.00    +0.000 A 
ATOM      7  C   UNL     1      -4.804  11.262  16.759  0.00  0.00    +0.000 A 
ATOM      8  C   UNL     1      -3.801  10.780  15.913  0.00  0.00    +0.000 A 
ATOM      9  C   UNL     1      -2.470  10.787  16.309  0.00  0.00    +0.000 A 
ATOM     10  C   UNL     1      -2.113  11.276  17.566  0.00  0.00    +0.000 A 
ATOM     11  C   UNL     1      -3.100  11.761  18.450  0.00  0.00    +0.000 A 
ENDBRANCH   1   2
BRANCH   1  12
ATOM     12  C   UNL     1      -1.302  13.931  20.482  0.00  0.00    +0.000 A 
ATOM     13  C   UNL     1      -1.830  15.105  20.993  0.00  0.00    +0.000 A 
ATOM     14  N   UNL     1      -1.027  16.141  20.625  0.00  0.00    +0.000 N 
ATOM     15  C   UNL     1      -1.256  17.515  21.001  0.00  0.00    +0.000 C 
ATOM     16  C   UNL     1       0.035  15.683  19.881  0.00  0.00    +0.000 A 
ATOM     17  C   UNL     1       1.107  16.372  19.296  0.00  0.00    +0.000 A 
ATOM     18  C   UNL     1       2.064  15.631  18.598  0.00  0.00    +0.000 A 
ATOM     19  C   UNL     1       1.954  14.249  18.487  0.00  0.00    +0.000 A 
ATOM     20  C   UNL     1       0.877  13.570  19.069  0.00  0.00    +0.000 A 
ATOM     21  C   UNL     1      -0.105  14.295  19.780  0.00  0.00    +0.000 A 
ENDBRANCH   1  12
BRANCH   1  22
ATOM     22  C   UNL     1      -2.132  12.222  22.153  0.00  0.00    +0.000 C 
BRANCH  22  23
ATOM     23  C   UNL     1      -1.008  11.466  22.852  0.00  0.00    +0.000 C 
BRANCH  23  24
ATOM     24  C   UNL     1      -0.565  10.223  22.084  0.00  0.00    +0.000 C 
BRANCH  24  25
ATOM     25  C   UNL     1       0.728  10.453  21.315  0.00  0.00    +0.000 C 
BRANCH  25  26
ATOM     26  C   UNL     1       0.619  10.046  19.845  0.00  0.00    +0.000 C 
BRANCH  26  29
ATOM     27  C   UNL     1       2.910   7.766  17.827  0.00  0.00    +0.000 C 
ATOM     28  N   UNL     1       2.034   8.832  18.269  0.00  0.00    +0.000 N 
ATOM     29  C   UNL     1       1.506   8.866  19.537  0.00  0.00    +0.000 C 
ATOM     30  O   UNL     1       1.730   7.972  20.357  0.00  0.00    +0.000 OA
BRANCH  28  31
ATOM     31  O   UNL     1       1.844   9.925  17.407  0.00  0.00    +0.000 OA
ATOM     32  H   UNL     1       1.220   9.608  16.732  0.00  0.00    +0.000 HD
ENDBRANCH  28  31
ENDBRANCH  26  29
ENDBRANCH  25  26
ENDBRANCH  24  25
ENDBRANCH  23  24
ENDBRANCH  22  23
ENDBRANCH   1  22
TORSDOF 9
ENDMDL
MODEL 9
REMARK VINA RESULT:      -7.1      3.697      6.957
REMARK  Name = 
REMARK  12 active torsions:
REMARK  status: ('A' for Active; 'I' for Inactive)
REMARK    1  A    between atoms: C_1  and  N_2
REMARK    2  A    between atoms: N_2  and  O_3
REMARK    3  A    between atoms: C_4  and  C_6
REMARK    4  A    between atoms: C_6  and  C_7
REMARK    5  A    between atoms: C_7  and  C_8
REMARK    6  A    between atoms: C_8  and  C_9
REMARK    7  A    between atoms: C_9  and  C_10
REMARK    8  A    between atoms: C_10  and  C_11
REMARK    9  A    between atoms: C_11  and  C_12
REMARK   10  A    between atoms: C_11  and  C_22
REMARK   11  A    between atoms: N_14  and  C_15
REMARK   12  A    between atoms: N_24  and  C_25
REMARK                            x       y       z     vdW  Elec       q    Type
REMARK                         _______ _______ _______ _____ _____    ______ ____
ROOT
ATOM      1  C   UNL     1      -0.431  11.965  18.334  0.00  0.00    +0.000 C 
ENDROOT
BRANCH   1   2
ATOM      2  C   UNL     1       0.043  13.312  18.842  0.00  0.00    +0.000 A 
ATOM      3  C   UNL     1      -0.740  14.249  19.500  0.00  0.00    +0.000 A 
ATOM      4  N   UNL     1       0.046  15.321  19.829  0.00  0.00    +0.000 N 
ATOM      5  C   UNL     1      -0.411  16.482  20.556  0.00  0.00    +0.000 C 
ATOM      6  C   UNL     1       1.334  15.124  19.383  0.00  0.00    +0.000 A 
ATOM      7  C   UNL     1       2.475  15.940  19.468  0.00  0.00    +0.000 A 
ATOM      8  C   UNL     1       3.669  15.467  18.918  0.00  0.00    +0.000 A 
ATOM      9  C   UNL     1       3.729  14.221  18.307  0.00  0.00    +0.000 A 
ATOM     10  C   UNL     1       2.588  13.420  18.231  0.00  0.00    +0.000 A 
ATOM     11  C   UNL     1       1.363  13.870  18.767  0.00  0.00    +0.000 A 
ENDBRANCH   1   2
BRANCH   1  12
ATOM     12  C   UNL     1       0.086  10.833  19.189  0.00  0.00    +0.000 A 
ATOM     13  C   UNL     1       0.918   9.805  18.782  0.00  0.00    +0.000 A 
ATOM     14  N   UNL     1       1.169   8.998  19.848  0.00  0.00    +0.000 N 
ATOM     15  C   UNL     1       2.021   7.835  19.800  0.00  0.00    +0.000 C 
ATOM     16  C   UNL     1       0.524   9.469  20.968  0.00  0.00    +0.000 A 
ATOM     17  C   UNL     1       0.491   8.977  22.280  0.00  0.00    +0.000 A 
ATOM     18  C   UNL     1      -0.248   9.685  23.231  0.00  0.00    +0.000 A 
ATOM     19  C   UNL     1      -0.933  10.845  22.883  0.00  0.00    +0.000 A 
ATOM     20  C   UNL     1      -0.900  11.325  21.568  0.00  0.00    +0.000 A 
ATOM     21  C   UNL     1      -0.160  10.628  20.587  0.00  0.00    +0.000 A 
ENDBRANCH   1  12
BRANCH   1  22
ATOM     22  C   UNL     1      -1.969  11.892  18.159  0.00  0.00    +0.000 C 
BRANCH  22  23
ATOM     23  C   UNL     1      -2.431  11.047  16.977  0.00  0.00    +0.000 C 
BRANCH  23  24
ATOM     24  C   UNL     1      -3.769  10.358  17.231  0.00  0.00    +0.000 C 
BRANCH  24  25
ATOM     25  C   UNL     1      -4.917  11.353  17.335  0.00  0.00    +0.000 C 
BRANCH  25  26
ATOM     26  C   UNL     1      -6.008  10.892  18.303  0.00  0.00    +0.000 C 
BRANCH  26  29
ATOM     27  C   UNL     1      -7.183  12.200  21.683  0.00  0.00    +0.000 C 
ATOM     28  N   UNL     1      -7.044  11.480  20.434  0.00  0.00    +0.000 N 
ATOM     29  C   UNL     1      -6.018  11.731  19.555  0.00  0.00    +0.000 C 
ATOM     30  O   UNL     1      -5.177  12.607  19.774  0.00  0.00    +0.000 OA
BRANCH  28  31
ATOM     31  O   UNL     1      -7.911  10.399  20.198  0.00  0.00    +0.000 OA
ATOM     32  H   UNL     1      -8.509  10.706  19.495  0.00  0.00    +0.000 HD
ENDBRANCH  28  31
ENDBRANCH  26  29
ENDBRANCH  25  26
ENDBRANCH  24  25
ENDBRANCH  23  24
ENDBRANCH  22  23
ENDBRANCH   1  22
TORSDOF 9
ENDMDL
