MODEL 1
REMARK VINA RESULT:      -6.8      0.000      0.000
REMARK  Name = 
REMARK  3 active torsions:
REMARK  status: ('A' for Active; 'I' for Inactive)
REMARK    1  A    between atoms: C_1  and  C_2
REMARK    2  A    between atoms: C_2  and  C_3
REMARK    3  A    between atoms: C_8  and  C_10
REMARK                            x       y       z     vdW  Elec       q    Type
REMARK                         _______ _______ _______ _____ _____    ______ ____
ROOT
ATOM      1  C   UNL     1       6.917   4.756  14.153  0.00  0.00    +0.000 A 
ATOM      2  N   UNL     1       7.511   5.608  14.962  0.00  0.00    +0.000 NA
ATOM      3  N   UNL     1       6.864   5.698  16.185  0.00  0.00    +0.000 NA
ATOM      4  C   UNL     1       5.788   4.945  16.234  0.00  0.00    +0.000 A 
ATOM      5  N   UNL     1       4.984   4.842  17.345  0.00  0.00    +0.000 N 
ATOM      6  C   UNL     1       3.758   4.211  17.404  0.00  0.00    +0.000 C 
ATOM      7  O   UNL     1       3.156   3.735  16.450  0.00  0.00    +0.000 OA
ATOM      8  S   UNL     1       5.517   4.029  14.819  0.00  0.00    +0.000 S 
ATOM      9  H   UNL     1       5.323   5.309  18.179  0.00  0.00    +0.000 HD
ENDROOT
BRANCH   6  10
ATOM     10  C   UNL     1       3.167   4.153  18.789  0.00  0.00    +0.000 A 
ATOM     11  N   UNL     1       2.609   5.335  19.200  0.00  0.00    +0.000 NA
ATOM     12  C   UNL     1       2.112   5.362  20.454  0.00  0.00    +0.000 A 
ATOM     13 CL   UNL     1       1.437   6.865  20.923  0.00  0.00    +0.000 Cl
ATOM     14  C   UNL     1       2.130   4.291  21.328  0.00  0.00    +0.000 A 
ATOM     15  C   UNL     1       2.688   3.097  20.885  0.00  0.00    +0.000 A 
ATOM     16  C   UNL     1       3.218   3.010  19.596  0.00  0.00    +0.000 A 
ATOM     17 CL   UNL     1       3.883   1.486  19.143  0.00  0.00    +0.000 Cl
ENDBRANCH   6  10
BRANCH   1  19
ATOM     18  C   UNL     1       6.416   3.450  12.092  0.00  0.00    +0.000 C 
ATOM     19  C   UNL     1       7.380   4.405  12.778  0.00  0.00    +0.000 C 
ENDBRANCH   1  19
TORSDOF 2
ENDMDL
MODEL 2
REMARK VINA RESULT:      -6.6      1.160      2.214
REMARK  Name = 
REMARK  3 active torsions:
REMARK  status: ('A' for Active; 'I' for Inactive)
REMARK    1  A    between atoms: C_1  and  C_2
REMARK    2  A    between atoms: C_2  and  C_3
REMARK    3  A    between atoms: C_8  and  C_10
REMARK                            x       y       z     vdW  Elec       q    Type
REMARK                         _______ _______ _______ _____ _____    ______ ____
ROOT
ATOM      1  C   UNL     1       6.915   4.609  14.018  0.00  0.00    +0.000 A 
ATOM      2  N   UNL     1       7.546   5.542  14.700  0.00  0.00    +0.000 NA
ATOM      3  N   UNL     1       6.914   5.822  15.901  0.00  0.00    +0.000 NA
ATOM      4  C   UNL     1       5.811   5.123  16.058  0.00  0.00    +0.000 A 
ATOM      5  N   UNL     1       5.014   5.204  17.175  0.00  0.00    +0.000 N 
ATOM      6  C   UNL     1       3.767   4.632  17.326  0.00  0.00    +0.000 C 
ATOM      7  O   UNL     1       3.140   4.052  16.448  0.00  0.00    +0.000 OA
ATOM      8  S   UNL     1       5.495   4.032  14.783  0.00  0.00    +0.000 S 
ATOM      9  H   UNL     1       5.377   5.768  17.936  0.00  0.00    +0.000 HD
ENDROOT
BRANCH   6  10
ATOM     10  C   UNL     1       3.186   4.787  18.708  0.00  0.00    +0.000 A 
ATOM     11  N   UNL     1       3.264   3.650  19.468  0.00  0.00    +0.000 NA
ATOM     12  C   UNL     1       2.711   3.709  20.697  0.00  0.00    +0.000 A 
ATOM     13 CL   UNL     1       2.824   2.259  21.602  0.00  0.00    +0.000 Cl
ATOM     14  C   UNL     1       2.087   4.824  21.224  0.00  0.00    +0.000 A 
ATOM     15  C   UNL     1       2.032   5.972  20.440  0.00  0.00    +0.000 A 
ATOM     16  C   UNL     1       2.588   5.970  19.159  0.00  0.00    +0.000 A 
ATOM     17 CL   UNL     1       2.471   7.442  18.271  0.00  0.00    +0.000 Cl
ENDBRANCH   6  10
BRANCH   1  19
ATOM     18  C   UNL     1       6.247   3.246  12.043  0.00  0.00    +0.000 C 
ATOM     19  C   UNL     1       7.352   4.056  12.702  0.00  0.00    +0.000 C 
ENDBRANCH   1  19
TORSDOF 2
ENDMDL
MODEL 3
REMARK VINA RESULT:      -6.4      1.462      2.427
REMARK  Name = 
REMARK  3 active torsions:
REMARK  status: ('A' for Active; 'I' for Inactive)
REMARK    1  A    between atoms: C_1  and  C_2
REMARK    2  A    between atoms: C_2  and  C_3
REMARK    3  A    between atoms: C_8  and  C_10
REMARK                            x       y       z     vdW  Elec       q    Type
REMARK                         _______ _______ _______ _____ _____    ______ ____
ROOT
ATOM      1  C   UNL     1       7.068   4.784  13.971  0.00  0.00    +0.000 A 
ATOM      2  N   UNL     1       7.805   5.425  14.855  0.00  0.00    +0.000 NA
ATOM      3  N   UNL     1       7.313   5.278  16.143  0.00  0.00    +0.000 NA
ATOM      4  C   UNL     1       6.206   4.570  16.174  0.00  0.00    +0.000 A 
ATOM      5  N   UNL     1       5.534   4.264  17.335  0.00  0.00    +0.000 N 
ATOM      6  C   UNL     1       4.287   3.678  17.421  0.00  0.00    +0.000 C 
ATOM      7  O   UNL     1       3.549   3.435  16.474  0.00  0.00    +0.000 OA
ATOM      8  S   UNL     1       5.714   3.982  14.649  0.00  0.00    +0.000 S 
ATOM      9  H   UNL     1       5.997   4.533  18.196  0.00  0.00    +0.000 HD
ENDROOT
BRANCH   6  10
ATOM     10  C   UNL     1       3.862   3.351  18.828  0.00  0.00    +0.000 A 
ATOM     11  N   UNL     1       4.692   2.465  19.463  0.00  0.00    +0.000 NA
ATOM     12  C   UNL     1       4.333   2.090  20.708  0.00  0.00    +0.000 A 
ATOM     13 CL   UNL     1       5.396   0.973  21.453  0.00  0.00    +0.000 Cl
ATOM     14  C   UNL     1       3.203   2.539  21.368  0.00  0.00    +0.000 A 
ATOM     15  C   UNL     1       2.382   3.449  20.710  0.00  0.00    +0.000 A 
ATOM     16  C   UNL     1       2.704   3.873  19.419  0.00  0.00    +0.000 A 
ATOM     17 CL   UNL     1       1.625   5.004  18.694  0.00  0.00    +0.000 Cl
ENDBRANCH   6  10
BRANCH   1  19
ATOM     18  C   UNL     1       6.650   3.522  11.865  0.00  0.00    +0.000 C 
ATOM     19  C   UNL     1       7.343   4.714  12.506  0.00  0.00    +0.000 C 
ENDBRANCH   1  19
TORSDOF 2
ENDMDL
MODEL 4
REMARK VINA RESULT:      -6.3      3.181      7.088
REMARK  Name = 
REMARK  3 active torsions:
REMARK  status: ('A' for Active; 'I' for Inactive)
REMARK    1  A    between atoms: C_1  and  C_2
REMARK    2  A    between atoms: C_2  and  C_3
REMARK    3  A    between atoms: C_8  and  C_10
REMARK                            x       y       z     vdW  Elec       q    Type
REMARK                         _______ _______ _______ _____ _____    ______ ____
ROOT
ATOM      1  C   UNL     1       1.611   2.966  19.620  0.00  0.00    +0.000 A 
ATOM      2  N   UNL     1       1.300   2.088  18.689  0.00  0.00    +0.000 NA
ATOM      3  N   UNL     1       2.086   2.236  17.556  0.00  0.00    +0.000 NA
ATOM      4  C   UNL     1       2.925   3.242  17.661  0.00  0.00    +0.000 A 
ATOM      5  N   UNL     1       3.827   3.582  16.680  0.00  0.00    +0.000 N 
ATOM      6  C   UNL     1       4.609   4.719  16.655  0.00  0.00    +0.000 C 
ATOM      7  O   UNL     1       4.542   5.645  17.454  0.00  0.00    +0.000 OA
ATOM      8  S   UNL     1       2.862   4.045  19.166  0.00  0.00    +0.000 S 
ATOM      9  H   UNL     1       3.885   2.944  15.893  0.00  0.00    +0.000 HD
ENDROOT
BRANCH   6  10
ATOM     10  C   UNL     1       5.593   4.759  15.515  0.00  0.00    +0.000 A 
ATOM     11  N   UNL     1       5.181   4.068  14.407  0.00  0.00    +0.000 NA
ATOM     12  C   UNL     1       6.045   4.021  13.371  0.00  0.00    +0.000 A 
ATOM     13 CL   UNL     1       5.487   3.135  12.015  0.00  0.00    +0.000 Cl
ATOM     14  C   UNL     1       7.292   4.617  13.362  0.00  0.00    +0.000 A 
ATOM     15  C   UNL     1       7.684   5.326  14.493  0.00  0.00    +0.000 A 
ATOM     16  C   UNL     1       6.831   5.410  15.595  0.00  0.00    +0.000 A 
ATOM     17 CL   UNL     1       7.409   6.313  16.944  0.00  0.00    +0.000 Cl
ENDBRANCH   6  10
BRANCH   1  19
ATOM     18  C   UNL     1       2.005   2.894  22.079  0.00  0.00    +0.000 C 
ATOM     19  C   UNL     1       0.978   3.055  20.969  0.00  0.00    +0.000 C 
ENDBRANCH   1  19
TORSDOF 2
ENDMDL
MODEL 5
REMARK VINA RESULT:      -6.3      4.932      6.308
REMARK  Name = 
REMARK  3 active torsions:
REMARK  status: ('A' for Active; 'I' for Inactive)
REMARK    1  A    between atoms: C_1  and  C_2
REMARK    2  A    between atoms: C_2  and  C_3
REMARK    3  A    between atoms: C_8  and  C_10
REMARK                            x       y       z     vdW  Elec       q    Type
REMARK                         _______ _______ _______ _____ _____    ______ ____
ROOT
ATOM      1  C   UNL     1       3.255   2.788  20.094  0.00  0.00    +0.000 A 
ATOM      2  N   UNL     1       2.711   2.755  21.292  0.00  0.00    +0.000 NA
ATOM      3  N   UNL     1       2.151   3.974  21.641  0.00  0.00    +0.000 NA
ATOM      4  C   UNL     1       2.332   4.887  20.714  0.00  0.00    +0.000 A 
ATOM      5  N   UNL     1       1.852   6.173  20.812  0.00  0.00    +0.000 N 
ATOM      6  C   UNL     1       2.152   7.218  19.961  0.00  0.00    +0.000 C 
ATOM      7  O   UNL     1       2.970   7.181  19.050  0.00  0.00    +0.000 OA
ATOM      8  S   UNL     1       3.144   4.316  19.325  0.00  0.00    +0.000 S 
ATOM      9  H   UNL     1       1.252   6.360  21.608  0.00  0.00    +0.000 HD
ENDROOT
BRANCH   6  10
ATOM     10  C   UNL     1       1.379   8.479  20.247  0.00  0.00    +0.000 A 
ATOM     11  N   UNL     1       0.918   8.563  21.534  0.00  0.00    +0.000 NA
ATOM     12  C   UNL     1       0.171   9.645  21.836  0.00  0.00    +0.000 A 
ATOM     13 CL   UNL     1      -0.390   9.696  23.454  0.00  0.00    +0.000 Cl
ATOM     14  C   UNL     1      -0.148  10.652  20.945  0.00  0.00    +0.000 A 
ATOM     15  C   UNL     1       0.342  10.553  19.646  0.00  0.00    +0.000 A 
ATOM     16  C   UNL     1       1.121   9.455  19.276  0.00  0.00    +0.000 A 
ATOM     17 CL   UNL     1       1.682   9.429  17.647  0.00  0.00    +0.000 Cl
ENDBRANCH   6  10
BRANCH   1  19
ATOM     18  C   UNL     1       3.522   1.562  17.942  0.00  0.00    +0.000 C 
ATOM     19  C   UNL     1       3.912   1.635  19.410  0.00  0.00    +0.000 C 
ENDBRANCH   1  19
TORSDOF 2
ENDMDL
MODEL 6
REMARK VINA RESULT:      -6.3      4.468      7.697
REMARK  Name = 
REMARK  3 active torsions:
REMARK  status: ('A' for Active; 'I' for Inactive)
REMARK    1  A    between atoms: C_1  and  C_2
REMARK    2  A    between atoms: C_2  and  C_3
REMARK    3  A    between atoms: C_8  and  C_10
REMARK                            x       y       z     vdW  Elec       q    Type
REMARK                         _______ _______ _______ _____ _____    ______ ____
ROOT
ATOM      1  C   UNL     1       0.190  10.064  21.228  0.00  0.00    +0.000 A 
ATOM      2  N   UNL     1       0.297   9.096  22.114  0.00  0.00    +0.000 NA
ATOM      3  N   UNL     1       1.059   8.040  21.636  0.00  0.00    +0.000 NA
ATOM      4  C   UNL     1       1.458   8.235  20.399  0.00  0.00    +0.000 A 
ATOM      5  N   UNL     1       2.245   7.344  19.707  0.00  0.00    +0.000 N 
ATOM      6  C   UNL     1       2.552   7.407  18.363  0.00  0.00    +0.000 C 
ATOM      7  O   UNL     1       2.087   8.211  17.564  0.00  0.00    +0.000 OA
ATOM      8  S   UNL     1       0.987   9.741  19.747  0.00  0.00    +0.000 S 
ATOM      9  H   UNL     1       2.594   6.556  20.241  0.00  0.00    +0.000 HD
ENDROOT
BRANCH   6  10
ATOM     10  C   UNL     1       3.538   6.361  17.912  0.00  0.00    +0.000 A 
ATOM     11  N   UNL     1       4.816   6.833  17.770  0.00  0.00    +0.000 NA
ATOM     12  C   UNL     1       5.735   5.956  17.315  0.00  0.00    +0.000 A 
ATOM     13 CL   UNL     1       7.313   6.598  17.145  0.00  0.00    +0.000 Cl
ATOM     14  C   UNL     1       5.469   4.638  16.994  0.00  0.00    +0.000 A 
ATOM     15  C   UNL     1       4.167   4.176  17.158  0.00  0.00    +0.000 A 
ATOM     16  C   UNL     1       3.174   5.039  17.626  0.00  0.00    +0.000 A 
ATOM     17 CL   UNL     1       1.596   4.368  17.799  0.00  0.00    +0.000 Cl
ENDBRANCH   6  10
BRANCH   1  19
ATOM     18  C   UNL     1      -1.076  11.461  22.857  0.00  0.00    +0.000 C 
ATOM     19  C   UNL     1      -0.534  11.353  21.441  0.00  0.00    +0.000 C 
ENDBRANCH   1  19
TORSDOF 2
ENDMDL
MODEL 7
REMARK VINA RESULT:      -6.1      4.517      7.387
REMARK  Name = 
REMARK  3 active torsions:
REMARK  status: ('A' for Active; 'I' for Inactive)
REMARK    1  A    between atoms: C_1  and  C_2
REMARK    2  A    between atoms: C_2  and  C_3
REMARK    3  A    between atoms: C_8  and  C_10
REMARK                            x       y       z     vdW  Elec       q    Type
REMARK                         _______ _______ _______ _____ _____    ______ ____
ROOT
ATOM      1  C   UNL     1       0.432  10.772  21.091  0.00  0.00    +0.000 A 
ATOM      2  N   UNL     1       0.398  10.193  22.274  0.00  0.00    +0.000 NA
ATOM      3  N   UNL     1       0.974   8.933  22.250  0.00  0.00    +0.000 NA
ATOM      4  C   UNL     1       1.379   8.594  21.046  0.00  0.00    +0.000 A 
ATOM      5  N   UNL     1       2.003   7.401  20.763  0.00  0.00    +0.000 N 
ATOM      6  C   UNL     1       2.295   6.917  19.504  0.00  0.00    +0.000 C 
ATOM      7  O   UNL     1       1.952   7.431  18.447  0.00  0.00    +0.000 OA
ATOM      8  S   UNL     1       1.144   9.807  19.868  0.00  0.00    +0.000 S 
ATOM      9  H   UNL     1       2.230   6.822  21.564  0.00  0.00    +0.000 HD
ENDROOT
BRANCH   6  10
ATOM     10  C   UNL     1       3.094   5.640  19.512  0.00  0.00    +0.000 A 
ATOM     11  N   UNL     1       4.392   5.799  19.102  0.00  0.00    +0.000 NA
ATOM     12  C   UNL     1       5.143   4.681  19.035  0.00  0.00    +0.000 A 
ATOM     13 CL   UNL     1       6.753   4.932  18.507  0.00  0.00    +0.000 Cl
ATOM     14  C   UNL     1       4.692   3.412  19.349  0.00  0.00    +0.000 A 
ATOM     15  C   UNL     1       3.375   3.275  19.776  0.00  0.00    +0.000 A 
ATOM     16  C   UNL     1       2.550   4.398  19.866  0.00  0.00    +0.000 A 
ATOM     17 CL   UNL     1       0.938   4.122  20.408  0.00  0.00    +0.000 Cl
ENDBRANCH   6  10
BRANCH   1  19
ATOM     18  C   UNL     1       1.024  13.028  20.217  0.00  0.00    +0.000 C 
ATOM     19  C   UNL     1      -0.073  12.143  20.785  0.00  0.00    +0.000 C 
ENDBRANCH   1  19
TORSDOF 2
ENDMDL
MODEL 8
REMARK VINA RESULT:      -6.1      4.225      7.336
REMARK  Name = 
REMARK  3 active torsions:
REMARK  status: ('A' for Active; 'I' for Inactive)
REMARK    1  A    between atoms: C_1  and  C_2
REMARK    2  A    between atoms: C_2  and  C_3
REMARK    3  A    between atoms: C_8  and  C_10
REMARK                            x       y       z     vdW  Elec       q    Type
REMARK                         _______ _______ _______ _____ _____    ______ ____
ROOT
ATOM      1  C   UNL     1       0.342   9.980  20.784  0.00  0.00    +0.000 A 
ATOM      2  N   UNL     1       0.648  10.608  19.668  0.00  0.00    +0.000 NA
ATOM      3  N   UNL     1       1.405   9.815  18.819  0.00  0.00    +0.000 NA
ATOM      4  C   UNL     1       1.676   8.641  19.345  0.00  0.00    +0.000 A 
ATOM      5  N   UNL     1       2.395   7.666  18.694  0.00  0.00    +0.000 N 
ATOM      6  C   UNL     1       2.856   6.490  19.250  0.00  0.00    +0.000 C 
ATOM      7  O   UNL     1       2.781   6.186  20.434  0.00  0.00    +0.000 OA
ATOM      8  S   UNL     1       0.980   8.393  20.884  0.00  0.00    +0.000 S 
ATOM      9  H   UNL     1       2.628   7.862  17.726  0.00  0.00    +0.000 HD
ENDROOT
BRANCH   6  10
ATOM     10  C   UNL     1       3.505   5.559  18.259  0.00  0.00    +0.000 A 
ATOM     11  N   UNL     1       4.751   5.964  17.858  0.00  0.00    +0.000 NA
ATOM     12  C   UNL     1       5.362   5.200  16.928  0.00  0.00    +0.000 A 
ATOM     13 CL   UNL     1       6.911   5.754  16.452  0.00  0.00    +0.000 Cl
ATOM     14  C   UNL     1       4.818   4.057  16.371  0.00  0.00    +0.000 A 
ATOM     15  C   UNL     1       3.557   3.657  16.803  0.00  0.00    +0.000 A 
ATOM     16  C   UNL     1       2.878   4.409  17.764  0.00  0.00    +0.000 A 
ATOM     17 CL   UNL     1       1.326   3.827  18.234  0.00  0.00    +0.000 Cl
ENDBRANCH   6  10
BRANCH   1  19
ATOM     18  C   UNL     1      -0.324   9.739  23.172  0.00  0.00    +0.000 C 
ATOM     19  C   UNL     1      -0.489  10.540  21.891  0.00  0.00    +0.000 C 
ENDBRANCH   1  19
TORSDOF 2
ENDMDL
MODEL 9
REMARK VINA RESULT:      -6.0      1.591      1.673
REMARK  Name = 
REMARK  3 active torsions:
REMARK  status: ('A' for Active; 'I' for Inactive)
REMARK    1  A    between atoms: C_1  and  C_2
REMARK    2  A    between atoms: C_2  and  C_3
REMARK    3  A    between atoms: C_8  and  C_10
REMARK                            x       y       z     vdW  Elec       q    Type
REMARK                         _______ _______ _______ _____ _____    ______ ____
ROOT
ATOM      1  C   UNL     1       7.078   4.815  13.972  0.00  0.00    +0.000 A 
ATOM      2  N   UNL     1       6.160   4.048  13.421  0.00  0.00    +0.000 NA
ATOM      3  N   UNL     1       5.151   3.725  14.314  0.00  0.00    +0.000 NA
ATOM      4  C   UNL     1       5.368   4.222  15.511  0.00  0.00    +0.000 A 
ATOM      5  N   UNL     1       4.504   4.061  16.569  0.00  0.00    +0.000 N 
ATOM      6  C   UNL     1       4.753   4.407  17.881  0.00  0.00    +0.000 C 
ATOM      7  O   UNL     1       5.821   4.817  18.318  0.00  0.00    +0.000 OA
ATOM      8  S   UNL     1       6.785   5.169  15.623  0.00  0.00    +0.000 S 
ATOM      9  H   UNL     1       3.620   3.613  16.351  0.00  0.00    +0.000 HD
ENDROOT
BRANCH   6  10
ATOM     10  C   UNL     1       3.570   4.226  18.796  0.00  0.00    +0.000 A 
ATOM     11  N   UNL     1       3.101   5.397  19.330  0.00  0.00    +0.000 NA
ATOM     12  C   UNL     1       2.076   5.295  20.201  0.00  0.00    +0.000 A 
ATOM     13 CL   UNL     1       1.537   6.786  20.848  0.00  0.00    +0.000 Cl
ATOM     14  C   UNL     1       1.482   4.104  20.577  0.00  0.00    +0.000 A 
ATOM     15  C   UNL     1       1.965   2.928  20.012  0.00  0.00    +0.000 A 
ATOM     16  C   UNL     1       3.024   2.973  19.103  0.00  0.00    +0.000 A 
ATOM     17 CL   UNL     1       3.544   1.462  18.458  0.00  0.00    +0.000 Cl
ENDBRANCH   6  10
BRANCH   1  19
ATOM     18  C   UNL     1       7.917   5.932  11.910  0.00  0.00    +0.000 C 
ATOM     19  C   UNL     1       8.277   5.366  13.274  0.00  0.00    +0.000 C 
ENDBRANCH   1  19
TORSDOF 2
ENDMDL
