MODEL 1
REMARK VINA RESULT:      -9.2      0.000      0.000
REMARK  Name = 
REMARK  6 active torsions:
REMARK  status: ('A' for Active; 'I' for Inactive)
REMARK    1  A    between atoms: C_2  and  O_10
REMARK    2  A    between atoms: N_3  and  C_4
REMARK    3  A    between atoms: O_10  and  C_11
REMARK    4  A    between atoms: C_11  and  C_12
REMARK    5  A    between atoms: C_15  and  C_16
REMARK    6  A    between atoms: C_15  and  C_22
REMARK                            x       y       z     vdW  Elec       q    Type
REMARK                         _______ _______ _______ _____ _____    ______ ____
ROOT
ATOM      1  C   UNL     1       5.461   5.740  17.964  0.00  0.00    +0.000 C 
ATOM      2  C   UNL     1       4.641   4.922  17.003  0.00  0.00    +0.000 C 
ATOM      3  O   UNL     1       3.288   5.211  17.340  0.00  0.00    +0.000 OA
ATOM      4  C   UNL     1       3.289   5.619  18.729  0.00  0.00    +0.000 C 
ATOM      5  O   UNL     1       4.671   5.699  19.162  0.00  0.00    +0.000 OA
ENDROOT
BRANCH   4   6
ATOM      6  C   UNL     1       2.673   7.022  18.809  0.00  0.00    +0.000 A 
ATOM      7  C   UNL     1       2.119   7.498  20.011  0.00  0.00    +0.000 A 
ATOM      8  C   UNL     1       1.410   8.700  20.045  0.00  0.00    +0.000 A 
ATOM      9  C   UNL     1       1.252   9.450  18.882  0.00  0.00    +0.000 A 
ATOM     10  C   UNL     1       1.838   9.023  17.693  0.00  0.00    +0.000 A 
ATOM     11  C   UNL     1       2.560   7.829  17.661  0.00  0.00    +0.000 A 
ENDBRANCH   4   6
BRANCH   4  12
ATOM     12  C   UNL     1       2.513   4.601  19.569  0.00  0.00    +0.000 A 
ATOM     13  C   UNL     1       1.412   3.901  19.041  0.00  0.00    +0.000 A 
ATOM     14  C   UNL     1       0.736   2.938  19.799  0.00  0.00    +0.000 A 
ATOM     15  C   UNL     1       1.149   2.650  21.099  0.00  0.00    +0.000 A 
ATOM     16  C   UNL     1       2.235   3.328  21.641  0.00  0.00    +0.000 A 
ATOM     17  C   UNL     1       2.911   4.290  20.884  0.00  0.00    +0.000 A 
ENDBRANCH   4  12
BRANCH   1  18
ATOM     18  C   UNL     1       5.709   7.187  17.490  0.00  0.00    +0.000 C 
BRANCH  18  19
ATOM     19  O   UNL     1       7.050   7.416  17.011  0.00  0.00    +0.000 OA
BRANCH  19  21
ATOM     20  O   UNL     1       8.476   7.402  18.774  0.00  0.00    +0.000 OA
ATOM     21  C   UNL     1       7.889   8.019  17.900  0.00  0.00    +0.000 C 
ATOM     22  N   UNL     1       7.913   9.364  17.654  0.00  0.00    +0.000 N 
ATOM     23  H   UNL     1       7.238   9.681  16.973  0.00  0.00    +0.000 HD
BRANCH  22  24
ATOM     24  C   UNL     1       8.682  10.324  18.338  0.00  0.00    +0.000 A 
ATOM     25  C   UNL     1       9.284  10.073  19.574  0.00  0.00    +0.000 A 
ATOM     26  C   UNL     1      10.018  11.064  20.231  0.00  0.00    +0.000 A 
ATOM     27  C   UNL     1      10.160  12.321  19.656  0.00  0.00    +0.000 A 
ATOM     28  C   UNL     1       9.585  12.582  18.414  0.00  0.00    +0.000 A 
ATOM     29  C   UNL     1       8.857  11.584  17.752  0.00  0.00    +0.000 A 
ENDBRANCH  22  24
ENDBRANCH  19  21
ENDBRANCH  18  19
ENDBRANCH   1  18
TORSDOF 6
ENDMDL
MODEL 2
REMARK VINA RESULT:      -9.0      0.578      1.323
REMARK  Name = 
REMARK  6 active torsions:
REMARK  status: ('A' for Active; 'I' for Inactive)
REMARK    1  A    between atoms: C_2  and  O_10
REMARK    2  A    between atoms: N_3  and  C_4
REMARK    3  A    between atoms: O_10  and  C_11
REMARK    4  A    between atoms: C_11  and  C_12
REMARK    5  A    between atoms: C_15  and  C_16
REMARK    6  A    between atoms: C_15  and  C_22
REMARK                            x       y       z     vdW  Elec       q    Type
REMARK                         _______ _______ _______ _____ _____    ______ ____
ROOT
ATOM      1  C   UNL     1       5.544   5.925  18.060  0.00  0.00    +0.000 C 
ATOM      2  C   UNL     1       4.901   5.129  16.956  0.00  0.00    +0.000 C 
ATOM      3  O   UNL     1       3.500   5.299  17.152  0.00  0.00    +0.000 OA
ATOM      4  C   UNL     1       3.316   5.599  18.556  0.00  0.00    +0.000 C 
ATOM      5  O   UNL     1       4.631   5.739  19.151  0.00  0.00    +0.000 OA
ENDROOT
BRANCH   4   6
ATOM      6  C   UNL     1       2.589   6.945  18.659  0.00  0.00    +0.000 A 
ATOM      7  C   UNL     1       2.481   7.794  17.542  0.00  0.00    +0.000 A 
ATOM      8  C   UNL     1       1.971   9.086  17.673  0.00  0.00    +0.000 A 
ATOM      9  C   UNL     1       1.552   9.549  18.918  0.00  0.00    +0.000 A 
ATOM     10  C   UNL     1       1.600   8.707  20.026  0.00  0.00    +0.000 A 
ATOM     11  C   UNL     1       2.096   7.409  19.894  0.00  0.00    +0.000 A 
ENDBRANCH   4   6
BRANCH   4  12
ATOM     12  C   UNL     1       2.531   4.468  19.228  0.00  0.00    +0.000 A 
ATOM     13  C   UNL     1       1.589   3.704  18.515  0.00  0.00    +0.000 A 
ATOM     14  C   UNL     1       0.909   2.642  19.123  0.00  0.00    +0.000 A 
ATOM     15  C   UNL     1       1.160   2.319  20.456  0.00  0.00    +0.000 A 
ATOM     16  C   UNL     1       2.088   3.059  21.180  0.00  0.00    +0.000 A 
ATOM     17  C   UNL     1       2.767   4.120  20.572  0.00  0.00    +0.000 A 
ENDBRANCH   4  12
BRANCH   1  18
ATOM     18  C   UNL     1       5.731   7.417  17.717  0.00  0.00    +0.000 C 
BRANCH  18  19
ATOM     19  O   UNL     1       7.005   7.714  17.108  0.00  0.00    +0.000 OA
BRANCH  19  21
ATOM     20  O   UNL     1       8.522   7.401  18.763  0.00  0.00    +0.000 OA
ATOM     21  C   UNL     1       7.973   8.143  17.966  0.00  0.00    +0.000 C 
ATOM     22  N   UNL     1       8.169   9.485  17.788  0.00  0.00    +0.000 N 
ATOM     23  H   UNL     1       7.503   9.932  17.174  0.00  0.00    +0.000 HD
BRANCH  22  24
ATOM     24  C   UNL     1       9.105  10.288  18.466  0.00  0.00    +0.000 A 
ATOM     25  C   UNL     1      10.132  10.972  17.811  0.00  0.00    +0.000 A 
ATOM     26  C   UNL     1      11.056  11.739  18.526  0.00  0.00    +0.000 A 
ATOM     27  C   UNL     1      10.962  11.830  19.910  0.00  0.00    +0.000 A 
ATOM     28  C   UNL     1       9.931  11.172  20.577  0.00  0.00    +0.000 A 
ATOM     29  C   UNL     1       8.999  10.411  19.857  0.00  0.00    +0.000 A 
ENDBRANCH  22  24
ENDBRANCH  19  21
ENDBRANCH  18  19
ENDBRANCH   1  18
TORSDOF 6
ENDMDL
MODEL 3
REMARK VINA RESULT:      -8.9      1.287      1.363
REMARK  Name = 
REMARK  6 active torsions:
REMARK  status: ('A' for Active; 'I' for Inactive)
REMARK    1  A    between atoms: C_2  and  O_10
REMARK    2  A    between atoms: N_3  and  C_4
REMARK    3  A    between atoms: O_10  and  C_11
REMARK    4  A    between atoms: C_11  and  C_12
REMARK    5  A    between atoms: C_15  and  C_16
REMARK    6  A    between atoms: C_15  and  C_22
REMARK                            x       y       z     vdW  Elec       q    Type
REMARK                         _______ _______ _______ _____ _____    ______ ____
ROOT
ATOM      1  C   UNL     1       6.031   6.066  17.569  0.00  0.00    +0.000 C 
ATOM      2  C   UNL     1       5.425   5.586  16.278  0.00  0.00    +0.000 C 
ATOM      3  O   UNL     1       4.017   5.641  16.493  0.00  0.00    +0.000 OA
ATOM      4  C   UNL     1       3.817   5.529  17.922  0.00  0.00    +0.000 C 
ATOM      5  O   UNL     1       5.123   5.547  18.552  0.00  0.00    +0.000 OA
ENDROOT
BRANCH   4   6
ATOM      6  C   UNL     1       3.035   6.765  18.386  0.00  0.00    +0.000 A 
ATOM      7  C   UNL     1       2.610   6.889  19.721  0.00  0.00    +0.000 A 
ATOM      8  C   UNL     1       1.759   7.925  20.107  0.00  0.00    +0.000 A 
ATOM      9  C   UNL     1       1.326   8.860  19.169  0.00  0.00    +0.000 A 
ATOM     10  C   UNL     1       1.778   8.786  17.854  0.00  0.00    +0.000 A 
ATOM     11  C   UNL     1       2.642   7.759  17.470  0.00  0.00    +0.000 A 
ENDBRANCH   4   6
BRANCH   4  12
ATOM     12  C   UNL     1       3.076   4.227  18.240  0.00  0.00    +0.000 A 
ATOM     13  C   UNL     1       1.675   4.191  18.365  0.00  0.00    +0.000 A 
ATOM     14  C   UNL     1       1.001   2.988  18.611  0.00  0.00    +0.000 A 
ATOM     15  C   UNL     1       1.713   1.796  18.731  0.00  0.00    +0.000 A 
ATOM     16  C   UNL     1       3.098   1.807  18.610  0.00  0.00    +0.000 A 
ATOM     17  C   UNL     1       3.772   3.008  18.365  0.00  0.00    +0.000 A 
ENDBRANCH   4  12
BRANCH   1  18
ATOM     18  C   UNL     1       6.159   7.600  17.659  0.00  0.00    +0.000 C 
BRANCH  18  19
ATOM     19  O   UNL     1       7.401   8.108  17.131  0.00  0.00    +0.000 OA
BRANCH  19  21
ATOM     20  O   UNL     1       8.751   7.781  18.923  0.00  0.00    +0.000 OA
ATOM     21  C   UNL     1       8.303   8.523  18.065  0.00  0.00    +0.000 C 
ATOM     22  N   UNL     1       8.562   9.854  17.880  0.00  0.00    +0.000 N 
ATOM     23  H   UNL     1       7.970  10.309  17.199  0.00  0.00    +0.000 HD
BRANCH  22  24
ATOM     24  C   UNL     1       9.461  10.640  18.624  0.00  0.00    +0.000 A 
ATOM     25  C   UNL     1       9.343  10.828  20.003  0.00  0.00    +0.000 A 
ATOM     26  C   UNL     1      10.244  11.638  20.699  0.00  0.00    +0.000 A 
ATOM     27  C   UNL     1      11.279  12.271  20.019  0.00  0.00    +0.000 A 
ATOM     28  C   UNL     1      11.424  12.077  18.648  0.00  0.00    +0.000 A 
ATOM     29  C   UNL     1      10.525  11.257  17.953  0.00  0.00    +0.000 A 
ENDBRANCH  22  24
ENDBRANCH  19  21
ENDBRANCH  18  19
ENDBRANCH   1  18
TORSDOF 6
ENDMDL
MODEL 4
REMARK VINA RESULT:      -8.7      1.543      1.876
REMARK  Name = 
REMARK  6 active torsions:
REMARK  status: ('A' for Active; 'I' for Inactive)
REMARK    1  A    between atoms: C_2  and  O_10
REMARK    2  A    between atoms: N_3  and  C_4
REMARK    3  A    between atoms: O_10  and  C_11
REMARK    4  A    between atoms: C_11  and  C_12
REMARK    5  A    between atoms: C_15  and  C_16
REMARK    6  A    between atoms: C_15  and  C_22
REMARK                            x       y       z     vdW  Elec       q    Type
REMARK                         _______ _______ _______ _____ _____    ______ ____
ROOT
ATOM      1  C   UNL     1       6.412   6.305  17.509  0.00  0.00    +0.000 C 
ATOM      2  C   UNL     1       5.934   5.697  16.218  0.00  0.00    +0.000 C 
ATOM      3  O   UNL     1       4.530   5.528  16.391  0.00  0.00    +0.000 OA
ATOM      4  C   UNL     1       4.303   5.426  17.817  0.00  0.00    +0.000 C 
ATOM      5  O   UNL     1       5.568   5.674  18.483  0.00  0.00    +0.000 OA
ENDROOT
BRANCH   4   6
ATOM      6  C   UNL     1       3.318   6.531  18.218  0.00  0.00    +0.000 A 
ATOM      7  C   UNL     1       3.026   7.590  17.340  0.00  0.00    +0.000 A 
ATOM      8  C   UNL     1       2.265   8.681  17.763  0.00  0.00    +0.000 A 
ATOM      9  C   UNL     1       1.774   8.727  19.066  0.00  0.00    +0.000 A 
ATOM     10  C   UNL     1       2.006   7.663  19.935  0.00  0.00    +0.000 A 
ATOM     11  C   UNL     1       2.754   6.565  19.508  0.00  0.00    +0.000 A 
ENDBRANCH   4   6
BRANCH   4  12
ATOM     12  C   UNL     1       3.772   4.030  18.158  0.00  0.00    +0.000 A 
ATOM     13  C   UNL     1       2.697   3.461  17.451  0.00  0.00    +0.000 A 
ATOM     14  C   UNL     1       2.247   2.167  17.737  0.00  0.00    +0.000 A 
ATOM     15  C   UNL     1       2.866   1.412  18.732  0.00  0.00    +0.000 A 
ATOM     16  C   UNL     1       3.931   1.953  19.443  0.00  0.00    +0.000 A 
ATOM     17  C   UNL     1       4.381   3.246  19.158  0.00  0.00    +0.000 A 
ENDBRANCH   4  12
BRANCH   1  18
ATOM     18  C   UNL     1       6.288   7.842  17.552  0.00  0.00    +0.000 C 
BRANCH  18  19
ATOM     19  O   UNL     1       7.470   8.529  17.092  0.00  0.00    +0.000 OA
BRANCH  19  21
ATOM     20  O   UNL     1       8.745   8.070  18.909  0.00  0.00    +0.000 OA
ATOM     21  C   UNL     1       8.362   8.864  18.067  0.00  0.00    +0.000 C 
ATOM     22  N   UNL     1       8.694  10.185  17.938  0.00  0.00    +0.000 N 
ATOM     23  H   UNL     1       8.147  10.693  17.257  0.00  0.00    +0.000 HD
BRANCH  22  24
ATOM     24  C   UNL     1       9.609  10.897  18.736  0.00  0.00    +0.000 A 
ATOM     25  C   UNL     1       9.421  11.102  20.105  0.00  0.00    +0.000 A 
ATOM     26  C   UNL     1      10.343  11.838  20.855  0.00  0.00    +0.000 A 
ATOM     27  C   UNL     1      11.468  12.378  20.240  0.00  0.00    +0.000 A 
ATOM     28  C   UNL     1      11.681  12.165  18.880  0.00  0.00    +0.000 A 
ATOM     29  C   UNL     1      10.760  11.418  18.132  0.00  0.00    +0.000 A 
ENDBRANCH  22  24
ENDBRANCH  19  21
ENDBRANCH  18  19
ENDBRANCH   1  18
TORSDOF 6
ENDMDL
MODEL 5
REMARK VINA RESULT:      -8.7      0.881      1.554
REMARK  Name = 
REMARK  6 active torsions:
REMARK  status: ('A' for Active; 'I' for Inactive)
REMARK    1  A    between atoms: C_2  and  O_10
REMARK    2  A    between atoms: N_3  and  C_4
REMARK    3  A    between atoms: O_10  and  C_11
REMARK    4  A    between atoms: C_11  and  C_12
REMARK    5  A    between atoms: C_15  and  C_16
REMARK    6  A    between atoms: C_15  and  C_22
REMARK                            x       y       z     vdW  Elec       q    Type
REMARK                         _______ _______ _______ _____ _____    ______ ____
ROOT
ATOM      1  C   UNL     1       5.981   5.440  18.233  0.00  0.00    +0.000 C 
ATOM      2  C   UNL     1       5.347   4.722  17.072  0.00  0.00    +0.000 C 
ATOM      3  O   UNL     1       3.952   4.986  17.198  0.00  0.00    +0.000 OA
ATOM      4  C   UNL     1       3.711   5.260  18.598  0.00  0.00    +0.000 C 
ATOM      5  O   UNL     1       4.998   5.291  19.268  0.00  0.00    +0.000 OA
ENDROOT
BRANCH   4   6
ATOM      6  C   UNL     1       3.076   6.652  18.703  0.00  0.00    +0.000 A 
ATOM      7  C   UNL     1       2.405   7.052  19.873  0.00  0.00    +0.000 A 
ATOM      8  C   UNL     1       1.684   8.247  19.911  0.00  0.00    +0.000 A 
ATOM      9  C   UNL     1       1.629   9.066  18.786  0.00  0.00    +0.000 A 
ATOM     10  C   UNL     1       2.330   8.714  17.635  0.00  0.00    +0.000 A 
ATOM     11  C   UNL     1       3.064   7.528  17.600  0.00  0.00    +0.000 A 
ENDBRANCH   4   6
BRANCH   4  12
ATOM     12  C   UNL     1       2.813   4.171  19.192  0.00  0.00    +0.000 A 
ATOM     13  C   UNL     1       3.006   3.695  20.502  0.00  0.00    +0.000 A 
ATOM     14  C   UNL     1       2.152   2.733  21.055  0.00  0.00    +0.000 A 
ATOM     15  C   UNL     1       1.085   2.230  20.312  0.00  0.00    +0.000 A 
ATOM     16  C   UNL     1       0.874   2.688  19.016  0.00  0.00    +0.000 A 
ATOM     17  C   UNL     1       1.727   3.649  18.463  0.00  0.00    +0.000 A 
ENDBRANCH   4  12
BRANCH   1  18
ATOM     18  C   UNL     1       6.291   6.924  17.947  0.00  0.00    +0.000 C 
BRANCH  18  19
ATOM     19  O   UNL     1       7.682   7.267  18.118  0.00  0.00    +0.000 OA
BRANCH  19  21
ATOM     20  O   UNL     1       7.470   9.324  17.190  0.00  0.00    +0.000 OA
ATOM     21  C   UNL     1       7.966   8.597  18.033  0.00  0.00    +0.000 C 
ATOM     22  N   UNL     1       8.881   8.923  18.997  0.00  0.00    +0.000 N 
ATOM     23  H   UNL     1       9.268   8.135  19.496  0.00  0.00    +0.000 HD
BRANCH  22  24
ATOM     24  C   UNL     1       9.404  10.205  19.252  0.00  0.00    +0.000 A 
ATOM     25  C   UNL     1       9.989  10.996  18.260  0.00  0.00    +0.000 A 
ATOM     26  C   UNL     1      10.518  12.253  18.563  0.00  0.00    +0.000 A 
ATOM     27  C   UNL     1      10.467  12.735  19.867  0.00  0.00    +0.000 A 
ATOM     28  C   UNL     1       9.868  11.968  20.863  0.00  0.00    +0.000 A 
ATOM     29  C   UNL     1       9.328  10.711  20.556  0.00  0.00    +0.000 A 
ENDBRANCH  22  24
ENDBRANCH  19  21
ENDBRANCH  18  19
ENDBRANCH   1  18
TORSDOF 6
ENDMDL
MODEL 6
REMARK VINA RESULT:      -8.6      3.032      7.125
REMARK  Name = 
REMARK  6 active torsions:
REMARK  status: ('A' for Active; 'I' for Inactive)
REMARK    1  A    between atoms: C_2  and  O_10
REMARK    2  A    between atoms: N_3  and  C_4
REMARK    3  A    between atoms: O_10  and  C_11
REMARK    4  A    between atoms: C_11  and  C_12
REMARK    5  A    between atoms: C_15  and  C_16
REMARK    6  A    between atoms: C_15  and  C_22
REMARK                            x       y       z     vdW  Elec       q    Type
REMARK                         _______ _______ _______ _____ _____    ______ ____
ROOT
ATOM      1  C   UNL     1       3.513   5.358  17.358  0.00  0.00    +0.000 C 
ATOM      2  C   UNL     1       3.863   3.894  17.344  0.00  0.00    +0.000 C 
ATOM      3  O   UNL     1       5.261   3.855  17.074  0.00  0.00    +0.000 OA
ATOM      4  C   UNL     1       5.576   5.078  16.366  0.00  0.00    +0.000 C 
ATOM      5  O   UNL     1       4.377   5.895  16.346  0.00  0.00    +0.000 OA
ENDROOT
BRANCH   4   6
ATOM      6  C   UNL     1       6.656   5.820  17.164  0.00  0.00    +0.000 A 
ATOM      7  C   UNL     1       7.309   5.199  18.244  0.00  0.00    +0.000 A 
ATOM      8  C   UNL     1       8.167   5.923  19.073  0.00  0.00    +0.000 A 
ATOM      9  C   UNL     1       8.396   7.275  18.831  0.00  0.00    +0.000 A 
ATOM     10  C   UNL     1       7.802   7.896  17.734  0.00  0.00    +0.000 A 
ATOM     11  C   UNL     1       6.955   7.169  16.895  0.00  0.00    +0.000 A 
ENDBRANCH   4   6
BRANCH   4  12
ATOM     12  C   UNL     1       6.035   4.749  14.943  0.00  0.00    +0.000 A 
ATOM     13  C   UNL     1       7.225   5.282  14.414  0.00  0.00    +0.000 A 
ATOM     14  C   UNL     1       7.663   4.940  13.129  0.00  0.00    +0.000 A 
ATOM     15  C   UNL     1       6.923   4.053  12.348  0.00  0.00    +0.000 A 
ATOM     16  C   UNL     1       5.745   3.512  12.850  0.00  0.00    +0.000 A 
ATOM     17  C   UNL     1       5.307   3.854  14.134  0.00  0.00    +0.000 A 
ENDBRANCH   4  12
BRANCH   1  18
ATOM     18  C   UNL     1       3.741   6.035  18.725  0.00  0.00    +0.000 C 
BRANCH  18  19
ATOM     19  O   UNL     1       3.077   5.367  19.818  0.00  0.00    +0.000 OA
BRANCH  19  21
ATOM     20  O   UNL     1       1.011   5.442  20.748  0.00  0.00    +0.000 OA
ATOM     21  C   UNL     1       1.998   6.024  20.330  0.00  0.00    +0.000 C 
ATOM     22  N   UNL     1       2.216   7.372  20.256  0.00  0.00    +0.000 N 
ATOM     23  H   UNL     1       3.042   7.639  19.740  0.00  0.00    +0.000 HD
BRANCH  22  24
ATOM     24  C   UNL     1       1.348   8.384  20.710  0.00  0.00    +0.000 A 
ATOM     25  C   UNL     1       1.069   8.592  22.063  0.00  0.00    +0.000 A 
ATOM     26  C   UNL     1       0.181   9.592  22.468  0.00  0.00    +0.000 A 
ATOM     27  C   UNL     1      -0.439  10.398  21.520  0.00  0.00    +0.000 A 
ATOM     28  C   UNL     1      -0.156  10.218  20.168  0.00  0.00    +0.000 A 
ATOM     29  C   UNL     1       0.743   9.221  19.764  0.00  0.00    +0.000 A 
ENDBRANCH  22  24
ENDBRANCH  19  21
ENDBRANCH  18  19
ENDBRANCH   1  18
TORSDOF 6
ENDMDL
MODEL 7
REMARK VINA RESULT:      -8.6      1.740      2.243
REMARK  Name = 
REMARK  6 active torsions:
REMARK  status: ('A' for Active; 'I' for Inactive)
REMARK    1  A    between atoms: C_2  and  O_10
REMARK    2  A    between atoms: N_3  and  C_4
REMARK    3  A    between atoms: O_10  and  C_11
REMARK    4  A    between atoms: C_11  and  C_12
REMARK    5  A    between atoms: C_15  and  C_16
REMARK    6  A    between atoms: C_15  and  C_22
REMARK                            x       y       z     vdW  Elec       q    Type
REMARK                         _______ _______ _______ _____ _____    ______ ____
ROOT
ATOM      1  C   UNL     1       7.054   5.804  17.558  0.00  0.00    +0.000 C 
ATOM      2  C   UNL     1       6.567   5.294  16.229  0.00  0.00    +0.000 C 
ATOM      3  O   UNL     1       5.146   5.286  16.339  0.00  0.00    +0.000 OA
ATOM      4  C   UNL     1       4.846   5.169  17.750  0.00  0.00    +0.000 C 
ATOM      5  O   UNL     1       6.100   5.247  18.475  0.00  0.00    +0.000 OA
ENDROOT
BRANCH   4   6
ATOM      6  C   UNL     1       3.978   6.369  18.149  0.00  0.00    +0.000 A 
ATOM      7  C   UNL     1       3.271   6.375  19.365  0.00  0.00    +0.000 A 
ATOM      8  C   UNL     1       2.352   7.386  19.652  0.00  0.00    +0.000 A 
ATOM      9  C   UNL     1       2.133   8.412  18.736  0.00  0.00    +0.000 A 
ATOM     10  C   UNL     1       2.862   8.454  17.550  0.00  0.00    +0.000 A 
ATOM     11  C   UNL     1       3.792   7.452  17.268  0.00  0.00    +0.000 A 
ENDBRANCH   4   6
BRANCH   4  12
ATOM     12  C   UNL     1       4.142   3.836  18.020  0.00  0.00    +0.000 A 
ATOM     13  C   UNL     1       4.527   3.007  19.090  0.00  0.00    +0.000 A 
ATOM     14  C   UNL     1       3.849   1.811  19.360  0.00  0.00    +0.000 A 
ATOM     15  C   UNL     1       2.769   1.423  18.568  0.00  0.00    +0.000 A 
ATOM     16  C   UNL     1       2.370   2.227  17.506  0.00  0.00    +0.000 A 
ATOM     17  C   UNL     1       3.047   3.421  17.237  0.00  0.00    +0.000 A 
ENDBRANCH   4  12
BRANCH   1  18
ATOM     18  C   UNL     1       7.107   7.342  17.649  0.00  0.00    +0.000 C 
BRANCH  18  19
ATOM     19  O   UNL     1       8.224   7.838  18.416  0.00  0.00    +0.000 OA
BRANCH  19  21
ATOM     20  O   UNL     1       7.784   9.914  17.620  0.00  0.00    +0.000 OA
ATOM     21  C   UNL     1       8.391   9.190  18.391  0.00  0.00    +0.000 C 
ATOM     22  N   UNL     1       9.333   9.544  19.318  0.00  0.00    +0.000 N 
ATOM     23  H   UNL     1       9.814   8.767  19.749  0.00  0.00    +0.000 HD
BRANCH  22  24
ATOM     24  C   UNL     1       9.761  10.851  19.615  0.00  0.00    +0.000 A 
ATOM     25  C   UNL     1       9.342  11.547  20.752  0.00  0.00    +0.000 A 
ATOM     26  C   UNL     1       9.773  12.854  20.994  0.00  0.00    +0.000 A 
ATOM     27  C   UNL     1      10.632  13.481  20.099  0.00  0.00    +0.000 A 
ATOM     28  C   UNL     1      11.076  12.795  18.972  0.00  0.00    +0.000 A 
ATOM     29  C   UNL     1      10.651  11.480  18.735  0.00  0.00    +0.000 A 
ENDBRANCH  22  24
ENDBRANCH  19  21
ENDBRANCH  18  19
ENDBRANCH   1  18
TORSDOF 6
ENDMDL
MODEL 8
REMARK VINA RESULT:      -8.6      2.453      3.980
REMARK  Name = 
REMARK  6 active torsions:
REMARK  status: ('A' for Active; 'I' for Inactive)
REMARK    1  A    between atoms: C_2  and  O_10
REMARK    2  A    between atoms: N_3  and  C_4
REMARK    3  A    between atoms: O_10  and  C_11
REMARK    4  A    between atoms: C_11  and  C_12
REMARK    5  A    between atoms: C_15  and  C_16
REMARK    6  A    between atoms: C_15  and  C_22
REMARK                            x       y       z     vdW  Elec       q    Type
REMARK                         _______ _______ _______ _____ _____    ______ ____
ROOT
ATOM      1  C   UNL     1       6.116   6.677  18.204  0.00  0.00    +0.000 C 
ATOM      2  C   UNL     1       6.565   5.462  18.971  0.00  0.00    +0.000 C 
ATOM      3  O   UNL     1       6.249   4.359  18.125  0.00  0.00    +0.000 OA
ATOM      4  C   UNL     1       5.164   4.795  17.272  0.00  0.00    +0.000 C 
ATOM      5  O   UNL     1       4.939   6.204  17.531  0.00  0.00    +0.000 OA
ENDROOT
BRANCH   4   6
ATOM      6  C   UNL     1       5.615   4.634  15.815  0.00  0.00    +0.000 A 
ATOM      7  C   UNL     1       4.694   4.294  14.808  0.00  0.00    +0.000 A 
ATOM      8  C   UNL     1       5.126   3.983  13.519  0.00  0.00    +0.000 A 
ATOM      9  C   UNL     1       6.484   4.016  13.210  0.00  0.00    +0.000 A 
ATOM     10  C   UNL     1       7.408   4.402  14.179  0.00  0.00    +0.000 A 
ATOM     11  C   UNL     1       6.976   4.728  15.465  0.00  0.00    +0.000 A 
ENDBRANCH   4   6
BRANCH   4  12
ATOM     12  C   UNL     1       3.905   3.977  17.578  0.00  0.00    +0.000 A 
ATOM     13  C   UNL     1       3.968   2.589  17.801  0.00  0.00    +0.000 A 
ATOM     14  C   UNL     1       2.820   1.856  18.126  0.00  0.00    +0.000 A 
ATOM     15  C   UNL     1       1.587   2.495  18.240  0.00  0.00    +0.000 A 
ATOM     16  C   UNL     1       1.501   3.867  18.026  0.00  0.00    +0.000 A 
ATOM     17  C   UNL     1       2.648   4.600  17.701  0.00  0.00    +0.000 A 
ENDBRANCH   4  12
BRANCH   1  18
ATOM     18  C   UNL     1       7.170   7.206  17.211  0.00  0.00    +0.000 C 
BRANCH  18  19
ATOM     19  O   UNL     1       7.409   8.624  17.324  0.00  0.00    +0.000 OA
BRANCH  19  21
ATOM     20  O   UNL     1       8.876   8.207  19.002  0.00  0.00    +0.000 OA
ATOM     21  C   UNL     1       8.408   8.978  18.181  0.00  0.00    +0.000 C 
ATOM     22  N   UNL     1       8.735  10.290  17.973  0.00  0.00    +0.000 N 
ATOM     23  H   UNL     1       8.121  10.784  17.341  0.00  0.00    +0.000 HD
BRANCH  22  24
ATOM     24  C   UNL     1       9.740  11.016  18.640  0.00  0.00    +0.000 A 
ATOM     25  C   UNL     1       9.718  11.252  20.017  0.00  0.00    +0.000 A 
ATOM     26  C   UNL     1      10.724  12.000  20.634  0.00  0.00    +0.000 A 
ATOM     27  C   UNL     1      11.768  12.520  19.878  0.00  0.00    +0.000 A 
ATOM     28  C   UNL     1      11.817  12.276  18.508  0.00  0.00    +0.000 A 
ATOM     29  C   UNL     1      10.812  11.518  17.891  0.00  0.00    +0.000 A 
ENDBRANCH  22  24
ENDBRANCH  19  21
ENDBRANCH  18  19
ENDBRANCH   1  18
TORSDOF 6
ENDMDL
MODEL 9
REMARK VINA RESULT:      -8.5      3.146      5.014
REMARK  Name = 
REMARK  6 active torsions:
REMARK  status: ('A' for Active; 'I' for Inactive)
REMARK    1  A    between atoms: C_2  and  O_10
REMARK    2  A    between atoms: N_3  and  C_4
REMARK    3  A    between atoms: O_10  and  C_11
REMARK    4  A    between atoms: C_11  and  C_12
REMARK    5  A    between atoms: C_15  and  C_16
REMARK    6  A    between atoms: C_15  and  C_22
REMARK                            x       y       z     vdW  Elec       q    Type
REMARK                         _______ _______ _______ _____ _____    ______ ____
ROOT
ATOM      1  C   UNL     1       5.430   5.216  18.162  0.00  0.00    +0.000 C 
ATOM      2  C   UNL     1       4.550   4.390  17.262  0.00  0.00    +0.000 C 
ATOM      3  O   UNL     1       3.221   4.786  17.589  0.00  0.00    +0.000 OA
ATOM      4  C   UNL     1       3.264   5.282  18.948  0.00  0.00    +0.000 C 
ATOM      5  O   UNL     1       4.653   5.302  19.365  0.00  0.00    +0.000 OA
ENDROOT
BRANCH   4   6
ATOM      6  C   UNL     1       2.737   6.723  18.940  0.00  0.00    +0.000 A 
ATOM      7  C   UNL     1       2.167   7.288  20.096  0.00  0.00    +0.000 A 
ATOM      8  C   UNL     1       1.537   8.532  20.047  0.00  0.00    +0.000 A 
ATOM      9  C   UNL     1       1.476   9.237  18.847  0.00  0.00    +0.000 A 
ATOM     10  C   UNL     1       2.080   8.719  17.704  0.00  0.00    +0.000 A 
ATOM     11  C   UNL     1       2.724   7.482  17.755  0.00  0.00    +0.000 A 
ENDBRANCH   4   6
BRANCH   4  12
ATOM     12  C   UNL     1       2.434   4.371  19.858  0.00  0.00    +0.000 A 
ATOM     13  C   UNL     1       1.241   3.775  19.409  0.00  0.00    +0.000 A 
ATOM     14  C   UNL     1       0.512   2.907  20.231  0.00  0.00    +0.000 A 
ATOM     15  C   UNL     1       0.964   2.611  21.516  0.00  0.00    +0.000 A 
ATOM     16  C   UNL     1       2.142   3.187  21.981  0.00  0.00    +0.000 A 
ATOM     17  C   UNL     1       2.870   4.055  21.160  0.00  0.00    +0.000 A 
ENDBRANCH   4  12
BRANCH   1  18
ATOM     18  C   UNL     1       5.762   6.610  17.592  0.00  0.00    +0.000 C 
BRANCH  18  19
ATOM     19  O   UNL     1       7.003   6.652  16.857  0.00  0.00    +0.000 OA
BRANCH  19  21
ATOM     20  O   UNL     1       7.949   4.650  16.373  0.00  0.00    +0.000 OA
ATOM     21  C   UNL     1       7.233   5.582  16.046  0.00  0.00    +0.000 C 
ATOM     22  N   UNL     1       6.574   5.765  14.861  0.00  0.00    +0.000 N 
ATOM     23  H   UNL     1       6.157   6.677  14.746  0.00  0.00    +0.000 HD
BRANCH  22  24
ATOM     24  C   UNL     1       6.541   4.867  13.777  0.00  0.00    +0.000 A 
ATOM     25  C   UNL     1       7.522   4.842  12.783  0.00  0.00    +0.000 A 
ATOM     26  C   UNL     1       7.436   3.950  11.710  0.00  0.00    +0.000 A 
ATOM     27  C   UNL     1       6.364   3.070  11.621  0.00  0.00    +0.000 A 
ATOM     28  C   UNL     1       5.388   3.067  12.615  0.00  0.00    +0.000 A 
ATOM     29  C   UNL     1       5.481   3.956  13.695  0.00  0.00    +0.000 A 
ENDBRANCH  22  24
ENDBRANCH  19  21
ENDBRANCH  18  19
ENDBRANCH   1  18
TORSDOF 6
ENDMDL
