MODEL 1
REMARK VINA RESULT:      -7.4      0.000      0.000
REMARK  Name = 
REMARK  5 active torsions:
REMARK  status: ('A' for Active; 'I' for Inactive)
REMARK    1  A    between atoms: C_2  and  C_21
REMARK    2  A    between atoms: N_3  and  C_4
REMARK    3  A    between atoms: C_5  and  C_6
REMARK    4  A    between atoms: N_14  and  C_15
REMARK    5  A    between atoms: C_24  and  N_25
REMARK                            x       y       z     vdW  Elec       q    Type
REMARK                         _______ _______ _______ _____ _____    ______ ____
ROOT
ATOM      1  C   UNL     1       4.541   5.204  18.960  0.00  0.00    +0.000 A 
ATOM      2  C   UNL     1       4.087   3.912  18.792  0.00  0.00    +0.000 A 
ATOM      3  C   UNL     1       5.094   3.294  18.020  0.00  0.00    +0.000 A 
ATOM      4  N   UNL     1       6.046   4.146  17.632  0.00  0.00    +0.000 NA
ATOM      5  N   UNL     1       5.745   5.303  18.272  0.00  0.00    +0.000 N 
ENDROOT
BRANCH   2   6
ATOM      6  C   UNL     1       2.807   3.386  19.248  0.00  0.00    +0.000 A 
ATOM      7  C   UNL     1       1.828   2.981  18.325  0.00  0.00    +0.000 A 
ATOM      8  C   UNL     1       0.580   2.529  18.752  0.00  0.00    +0.000 A 
ATOM      9  C   UNL     1       0.308   2.439  20.113  0.00  0.00    +0.000 A 
ATOM     10  C   UNL     1       1.289   2.783  21.042  0.00  0.00    +0.000 A 
ATOM     11  C   UNL     1       2.535   3.252  20.614  0.00  0.00    +0.000 A 
ENDBRANCH   2   6
BRANCH   5  12
ATOM     12  C   UNL     1       6.590   6.440  18.169  0.00  0.00    +0.000 A 
ATOM     13  C   UNL     1       6.244   7.483  17.307  0.00  0.00    +0.000 A 
ATOM     14  C   UNL     1       7.069   8.604  17.214  0.00  0.00    +0.000 A 
ATOM     15  C   UNL     1       8.247   8.682  17.956  0.00  0.00    +0.000 A 
ATOM     16  C   UNL     1       8.606   7.636  18.799  0.00  0.00    +0.000 A 
ATOM     17  C   UNL     1       7.782   6.517  18.903  0.00  0.00    +0.000 A 
ENDBRANCH   5  12
BRANCH   1  20
ATOM     18  O   UNL     1       2.529   6.561  17.660  0.00  0.00    +0.000 OA
ATOM     19  C   UNL     1       2.800   6.913  18.795  0.00  0.00    +0.000 C 
ATOM     20  N   UNL     1       3.825   6.250  19.545  0.00  0.00    +0.000 N 
ATOM     21  H   UNL     1       3.867   6.334  20.554  0.00  0.00    +0.000 HD
BRANCH  19  22
ATOM     22  C   UNL     1       1.996   7.893  19.560  0.00  0.00    +0.000 A 
ATOM     23  C   UNL     1       1.581   9.084  18.945  0.00  0.00    +0.000 A 
ATOM     24  C   UNL     1       0.824  10.017  19.665  0.00  0.00    +0.000 A 
ATOM     25  C   UNL     1       0.495   9.755  21.003  0.00  0.00    +0.000 A 
ATOM     26  C   UNL     1       0.902   8.559  21.614  0.00  0.00    +0.000 A 
ATOM     27  C   UNL     1       1.650   7.625  20.890  0.00  0.00    +0.000 A 
BRANCH  25  28
ATOM     28  N   UNL     1      -0.271  10.741  21.778  0.00  0.00    +0.000 N 
ATOM     29  O   UNL     1      -0.124  10.748  23.007  0.00  0.00    +0.000 OA
ATOM     30  O   UNL     1      -1.018  11.506  21.146  0.00  0.00    +0.000 OA
ENDBRANCH  25  28
ENDBRANCH  19  22
ENDBRANCH   1  20
TORSDOF 5
ENDMDL
MODEL 2
REMARK VINA RESULT:      -7.4      0.046      1.073
REMARK  Name = 
REMARK  5 active torsions:
REMARK  status: ('A' for Active; 'I' for Inactive)
REMARK    1  A    between atoms: C_2  and  C_21
REMARK    2  A    between atoms: N_3  and  C_4
REMARK    3  A    between atoms: C_5  and  C_6
REMARK    4  A    between atoms: N_14  and  C_15
REMARK    5  A    between atoms: C_24  and  N_25
REMARK                            x       y       z     vdW  Elec       q    Type
REMARK                         _______ _______ _______ _____ _____    ______ ____
ROOT
ATOM      1  C   UNL     1       4.533   5.217  18.951  0.00  0.00    +0.000 A 
ATOM      2  C   UNL     1       4.074   3.928  18.776  0.00  0.00    +0.000 A 
ATOM      3  C   UNL     1       5.075   3.312  17.994  0.00  0.00    +0.000 A 
ATOM      4  N   UNL     1       6.028   4.163  17.607  0.00  0.00    +0.000 NA
ATOM      5  N   UNL     1       5.734   5.316  18.257  0.00  0.00    +0.000 N 
ENDROOT
BRANCH   2   6
ATOM      6  C   UNL     1       2.795   3.402  19.235  0.00  0.00    +0.000 A 
ATOM      7  C   UNL     1       1.819   2.984  18.314  0.00  0.00    +0.000 A 
ATOM      8  C   UNL     1       0.572   2.532  18.744  0.00  0.00    +0.000 A 
ATOM      9  C   UNL     1       0.297   2.457  20.106  0.00  0.00    +0.000 A 
ATOM     10  C   UNL     1       1.275   2.814  21.033  0.00  0.00    +0.000 A 
ATOM     11  C   UNL     1       2.520   3.283  20.602  0.00  0.00    +0.000 A 
ENDBRANCH   2   6
BRANCH   5  12
ATOM     12  C   UNL     1       6.583   6.451  18.158  0.00  0.00    +0.000 A 
ATOM     13  C   UNL     1       6.237   7.501  17.303  0.00  0.00    +0.000 A 
ATOM     14  C   UNL     1       7.065   8.620  17.214  0.00  0.00    +0.000 A 
ATOM     15  C   UNL     1       8.245   8.690  17.953  0.00  0.00    +0.000 A 
ATOM     16  C   UNL     1       8.604   7.638  18.789  0.00  0.00    +0.000 A 
ATOM     17  C   UNL     1       7.777   6.521  18.889  0.00  0.00    +0.000 A 
ENDBRANCH   5  12
BRANCH   1  20
ATOM     18  O   UNL     1       2.539   6.610  17.663  0.00  0.00    +0.000 OA
ATOM     19  C   UNL     1       2.808   6.943  18.804  0.00  0.00    +0.000 C 
ATOM     20  N   UNL     1       3.824   6.261  19.548  0.00  0.00    +0.000 N 
ATOM     21  H   UNL     1       3.863   6.330  20.558  0.00  0.00    +0.000 HD
BRANCH  19  22
ATOM     22  C   UNL     1       2.010   7.919  19.579  0.00  0.00    +0.000 A 
ATOM     23  C   UNL     1       1.718   7.666  20.928  0.00  0.00    +0.000 A 
ATOM     24  C   UNL     1       0.960   8.584  21.665  0.00  0.00    +0.000 A 
ATOM     25  C   UNL     1       0.490   9.749  21.042  0.00  0.00    +0.000 A 
ATOM     26  C   UNL     1       0.790  10.008  19.696  0.00  0.00    +0.000 A 
ATOM     27  C   UNL     1       1.556   9.093  18.965  0.00  0.00    +0.000 A 
BRANCH  25  28
ATOM     28  N   UNL     1      -0.334  10.704  21.798  0.00  0.00    +0.000 N 
ATOM     29  O   UNL     1      -1.112  11.425  21.159  0.00  0.00    +0.000 OA
ATOM     30  O   UNL     1      -0.195  10.725  23.032  0.00  0.00    +0.000 OA
ENDBRANCH  25  28
ENDBRANCH  19  22
ENDBRANCH   1  20
TORSDOF 5
ENDMDL
MODEL 3
REMARK VINA RESULT:      -7.3      0.024      1.067
REMARK  Name = 
REMARK  5 active torsions:
REMARK  status: ('A' for Active; 'I' for Inactive)
REMARK    1  A    between atoms: C_2  and  C_21
REMARK    2  A    between atoms: N_3  and  C_4
REMARK    3  A    between atoms: C_5  and  C_6
REMARK    4  A    between atoms: N_14  and  C_15
REMARK    5  A    between atoms: C_24  and  N_25
REMARK                            x       y       z     vdW  Elec       q    Type
REMARK                         _______ _______ _______ _____ _____    ______ ____
ROOT
ATOM      1  C   UNL     1       4.540   5.186  18.956  0.00  0.00    +0.000 A 
ATOM      2  C   UNL     1       4.084   3.895  18.791  0.00  0.00    +0.000 A 
ATOM      3  C   UNL     1       5.090   3.273  18.020  0.00  0.00    +0.000 A 
ATOM      4  N   UNL     1       6.044   4.122  17.630  0.00  0.00    +0.000 NA
ATOM      5  N   UNL     1       5.744   5.281  18.268  0.00  0.00    +0.000 N 
ENDROOT
BRANCH   2   6
ATOM      6  C   UNL     1       2.803   3.371  19.247  0.00  0.00    +0.000 A 
ATOM      7  C   UNL     1       1.816   2.984  18.325  0.00  0.00    +0.000 A 
ATOM      8  C   UNL     1       0.567   2.534  18.753  0.00  0.00    +0.000 A 
ATOM      9  C   UNL     1       0.302   2.432  20.115  0.00  0.00    +0.000 A 
ATOM     10  C   UNL     1       1.290   2.758  21.043  0.00  0.00    +0.000 A 
ATOM     11  C   UNL     1       2.537   3.225  20.613  0.00  0.00    +0.000 A 
ENDBRANCH   2   6
BRANCH   5  12
ATOM     12  C   UNL     1       6.592   6.416  18.162  0.00  0.00    +0.000 A 
ATOM     13  C   UNL     1       7.757   6.483  18.931  0.00  0.00    +0.000 A 
ATOM     14  C   UNL     1       8.595   7.593  18.818  0.00  0.00    +0.000 A 
ATOM     15  C   UNL     1       8.268   8.646  17.964  0.00  0.00    +0.000 A 
ATOM     16  C   UNL     1       7.098   8.593  17.214  0.00  0.00    +0.000 A 
ATOM     17  C   UNL     1       6.262   7.482  17.314  0.00  0.00    +0.000 A 
ENDBRANCH   5  12
BRANCH   1  20
ATOM     18  O   UNL     1       2.529   6.542  17.654  0.00  0.00    +0.000 OA
ATOM     19  C   UNL     1       2.801   6.897  18.788  0.00  0.00    +0.000 C 
ATOM     20  N   UNL     1       3.826   6.234  19.538  0.00  0.00    +0.000 N 
ATOM     21  H   UNL     1       3.869   6.320  20.547  0.00  0.00    +0.000 HD
BRANCH  19  22
ATOM     22  C   UNL     1       2.000   7.880  19.551  0.00  0.00    +0.000 A 
ATOM     23  C   UNL     1       1.597   9.077  18.937  0.00  0.00    +0.000 A 
ATOM     24  C   UNL     1       0.843  10.012  19.656  0.00  0.00    +0.000 A 
ATOM     25  C   UNL     1       0.503   9.747  20.990  0.00  0.00    +0.000 A 
ATOM     26  C   UNL     1       0.896   8.546  21.600  0.00  0.00    +0.000 A 
ATOM     27  C   UNL     1       1.643   7.609  20.877  0.00  0.00    +0.000 A 
BRANCH  25  28
ATOM     28  N   UNL     1      -0.261  10.737  21.764  0.00  0.00    +0.000 N 
ATOM     29  O   UNL     1      -1.010  11.501  21.142  0.00  0.00    +0.000 OA
ATOM     30  O   UNL     1      -0.105  10.741  22.996  0.00  0.00    +0.000 OA
ENDBRANCH  25  28
ENDBRANCH  19  22
ENDBRANCH   1  20
TORSDOF 5
ENDMDL
MODEL 4
REMARK VINA RESULT:      -7.3      0.097      1.274
REMARK  Name = 
REMARK  5 active torsions:
REMARK  status: ('A' for Active; 'I' for Inactive)
REMARK    1  A    between atoms: C_2  and  C_21
REMARK    2  A    between atoms: N_3  and  C_4
REMARK    3  A    between atoms: C_5  and  C_6
REMARK    4  A    between atoms: N_14  and  C_15
REMARK    5  A    between atoms: C_24  and  N_25
REMARK                            x       y       z     vdW  Elec       q    Type
REMARK                         _______ _______ _______ _____ _____    ______ ____
ROOT
ATOM      1  C   UNL     1       4.503   5.226  18.907  0.00  0.00    +0.000 A 
ATOM      2  C   UNL     1       4.029   3.945  18.712  0.00  0.00    +0.000 A 
ATOM      3  C   UNL     1       5.029   3.326  17.932  0.00  0.00    +0.000 A 
ATOM      4  N   UNL     1       5.996   4.169  17.564  0.00  0.00    +0.000 NA
ATOM      5  N   UNL     1       5.711   5.318  18.226  0.00  0.00    +0.000 N 
ENDROOT
BRANCH   2   6
ATOM      6  C   UNL     1       2.738   3.430  19.153  0.00  0.00    +0.000 A 
ATOM      7  C   UNL     1       2.383   3.452  20.512  0.00  0.00    +0.000 A 
ATOM      8  C   UNL     1       1.174   2.910  20.948  0.00  0.00    +0.000 A 
ATOM      9  C   UNL     1       0.285   2.373  20.022  0.00  0.00    +0.000 A 
ATOM     10  C   UNL     1       0.598   2.396  18.664  0.00  0.00    +0.000 A 
ATOM     11  C   UNL     1       1.818   2.924  18.228  0.00  0.00    +0.000 A 
ENDBRANCH   2   6
BRANCH   5  12
ATOM     12  C   UNL     1       6.575   6.443  18.148  0.00  0.00    +0.000 A 
ATOM     13  C   UNL     1       6.254   7.504  17.297  0.00  0.00    +0.000 A 
ATOM     14  C   UNL     1       7.098   8.613  17.230  0.00  0.00    +0.000 A 
ATOM     15  C   UNL     1       8.268   8.662  17.986  0.00  0.00    +0.000 A 
ATOM     16  C   UNL     1       8.602   7.599  18.817  0.00  0.00    +0.000 A 
ATOM     17  C   UNL     1       7.759   6.491  18.896  0.00  0.00    +0.000 A 
ENDBRANCH   5  12
BRANCH   1  20
ATOM     18  O   UNL     1       2.509   6.632  17.632  0.00  0.00    +0.000 OA
ATOM     19  C   UNL     1       2.785   6.961  18.773  0.00  0.00    +0.000 C 
ATOM     20  N   UNL     1       3.802   6.271  19.510  0.00  0.00    +0.000 N 
ATOM     21  H   UNL     1       3.845   6.337  20.520  0.00  0.00    +0.000 HD
BRANCH  19  22
ATOM     22  C   UNL     1       1.996   7.939  19.554  0.00  0.00    +0.000 A 
ATOM     23  C   UNL     1       1.693   7.674  20.899  0.00  0.00    +0.000 A 
ATOM     24  C   UNL     1       0.942   8.594  21.642  0.00  0.00    +0.000 A 
ATOM     25  C   UNL     1       0.491   9.772  21.030  0.00  0.00    +0.000 A 
ATOM     26  C   UNL     1       0.803  10.042  19.688  0.00  0.00    +0.000 A 
ATOM     27  C   UNL     1       1.561   9.125  18.951  0.00  0.00    +0.000 A 
BRANCH  25  28
ATOM     28  N   UNL     1      -0.324  10.730  21.791  0.00  0.00    +0.000 N 
ATOM     29  O   UNL     1      -0.174  10.766  23.018  0.00  0.00    +0.000 OA
ATOM     30  O   UNL     1      -1.114  11.442  21.149  0.00  0.00    +0.000 OA
ENDBRANCH  25  28
ENDBRANCH  19  22
ENDBRANCH   1  20
TORSDOF 5
ENDMDL
MODEL 5
REMARK VINA RESULT:      -7.3      0.119      1.270
REMARK  Name = 
REMARK  5 active torsions:
REMARK  status: ('A' for Active; 'I' for Inactive)
REMARK    1  A    between atoms: C_2  and  C_21
REMARK    2  A    between atoms: N_3  and  C_4
REMARK    3  A    between atoms: C_5  and  C_6
REMARK    4  A    between atoms: N_14  and  C_15
REMARK    5  A    between atoms: C_24  and  N_25
REMARK                            x       y       z     vdW  Elec       q    Type
REMARK                         _______ _______ _______ _____ _____    ______ ____
ROOT
ATOM      1  C   UNL     1       4.502   5.205  18.881  0.00  0.00    +0.000 A 
ATOM      2  C   UNL     1       4.035   3.923  18.680  0.00  0.00    +0.000 A 
ATOM      3  C   UNL     1       5.029   3.318  17.880  0.00  0.00    +0.000 A 
ATOM      4  N   UNL     1       5.985   4.173  17.508  0.00  0.00    +0.000 NA
ATOM      5  N   UNL     1       5.700   5.313  18.185  0.00  0.00    +0.000 N 
ENDROOT
BRANCH   2   6
ATOM      6  C   UNL     1       2.753   3.394  19.132  0.00  0.00    +0.000 A 
ATOM      7  C   UNL     1       2.404   3.426  20.492  0.00  0.00    +0.000 A 
ATOM      8  C   UNL     1       1.205   2.872  20.940  0.00  0.00    +0.000 A 
ATOM      9  C   UNL     1       0.321   2.310  20.025  0.00  0.00    +0.000 A 
ATOM     10  C   UNL     1       0.627   2.322  18.665  0.00  0.00    +0.000 A 
ATOM     11  C   UNL     1       1.838   2.863  18.218  0.00  0.00    +0.000 A 
ENDBRANCH   2   6
BRANCH   5  12
ATOM     12  C   UNL     1       6.555   6.445  18.108  0.00  0.00    +0.000 A 
ATOM     13  C   UNL     1       7.718   6.487  18.881  0.00  0.00    +0.000 A 
ATOM     14  C   UNL     1       8.563   7.594  18.795  0.00  0.00    +0.000 A 
ATOM     15  C   UNL     1       8.245   8.667  17.964  0.00  0.00    +0.000 A 
ATOM     16  C   UNL     1       7.077   8.639  17.210  0.00  0.00    +0.000 A 
ATOM     17  C   UNL     1       6.233   7.532  17.284  0.00  0.00    +0.000 A 
ENDBRANCH   5  12
BRANCH   1  20
ATOM     18  O   UNL     1       2.526   6.652  17.625  0.00  0.00    +0.000 OA
ATOM     19  C   UNL     1       2.794   6.952  18.775  0.00  0.00    +0.000 C 
ATOM     20  N   UNL     1       3.801   6.239  19.504  0.00  0.00    +0.000 N 
ATOM     21  H   UNL     1       3.836   6.280  20.516  0.00  0.00    +0.000 HD
BRANCH  19  22
ATOM     22  C   UNL     1       2.003   7.915  19.574  0.00  0.00    +0.000 A 
ATOM     23  C   UNL     1       1.540   9.098  18.979  0.00  0.00    +0.000 A 
ATOM     24  C   UNL     1       0.795  10.015  19.731  0.00  0.00    +0.000 A 
ATOM     25  C   UNL     1       0.526   9.744  21.081  0.00  0.00    +0.000 A 
ATOM     26  C   UNL     1       0.980   8.556  21.673  0.00  0.00    +0.000 A 
ATOM     27  C   UNL     1       1.717   7.638  20.916  0.00  0.00    +0.000 A 
BRANCH  25  28
ATOM     28  N   UNL     1      -0.227  10.715  21.888  0.00  0.00    +0.000 N 
ATOM     29  O   UNL     1      -0.117  10.649  23.119  0.00  0.00    +0.000 OA
ATOM     30  O   UNL     1      -0.928  11.540  21.280  0.00  0.00    +0.000 OA
ENDBRANCH  25  28
ENDBRANCH  19  22
ENDBRANCH   1  20
TORSDOF 5
ENDMDL
MODEL 6
REMARK VINA RESULT:      -7.2      0.073      1.661
REMARK  Name = 
REMARK  5 active torsions:
REMARK  status: ('A' for Active; 'I' for Inactive)
REMARK    1  A    between atoms: C_2  and  C_21
REMARK    2  A    between atoms: N_3  and  C_4
REMARK    3  A    between atoms: C_5  and  C_6
REMARK    4  A    between atoms: N_14  and  C_15
REMARK    5  A    between atoms: C_24  and  N_25
REMARK                            x       y       z     vdW  Elec       q    Type
REMARK                         _______ _______ _______ _____ _____    ______ ____
ROOT
ATOM      1  C   UNL     1       4.520   5.236  18.930  0.00  0.00    +0.000 A 
ATOM      2  C   UNL     1       4.051   3.951  18.755  0.00  0.00    +0.000 A 
ATOM      3  C   UNL     1       5.054   3.323  17.986  0.00  0.00    +0.000 A 
ATOM      4  N   UNL     1       6.019   4.164  17.606  0.00  0.00    +0.000 NA
ATOM      5  N   UNL     1       5.729   5.322  18.249  0.00  0.00    +0.000 N 
ENDROOT
BRANCH   2   6
ATOM      6  C   UNL     1       2.762   3.439  19.203  0.00  0.00    +0.000 A 
ATOM      7  C   UNL     1       2.471   3.325  20.572  0.00  0.00    +0.000 A 
ATOM      8  C   UNL     1       1.262   2.784  21.008  0.00  0.00    +0.000 A 
ATOM      9  C   UNL     1       0.310   2.383  20.076  0.00  0.00    +0.000 A 
ATOM     10  C   UNL     1       0.561   2.542  18.714  0.00  0.00    +0.000 A 
ATOM     11  C   UNL     1       1.780   3.069  18.277  0.00  0.00    +0.000 A 
ENDBRANCH   2   6
BRANCH   5  12
ATOM     12  C   UNL     1       6.589   6.448  18.154  0.00  0.00    +0.000 A 
ATOM     13  C   UNL     1       7.749   6.500  18.931  0.00  0.00    +0.000 A 
ATOM     14  C   UNL     1       8.599   7.602  18.829  0.00  0.00    +0.000 A 
ATOM     15  C   UNL     1       8.290   8.661  17.976  0.00  0.00    +0.000 A 
ATOM     16  C   UNL     1       7.125   8.623  17.218  0.00  0.00    +0.000 A 
ATOM     17  C   UNL     1       6.276   7.521  17.308  0.00  0.00    +0.000 A 
ENDBRANCH   5  12
BRANCH   1  20
ATOM     18  O   UNL     1       2.476   6.568  17.655  0.00  0.00    +0.000 OA
ATOM     19  C   UNL     1       2.771   6.938  18.779  0.00  0.00    +0.000 C 
ATOM     20  N   UNL     1       3.815   6.289  19.515  0.00  0.00    +0.000 N 
ATOM     21  H   UNL     1       3.878   6.388  20.521  0.00  0.00    +0.000 HD
BRANCH  19  22
ATOM     22  C   UNL     1       1.982   7.928  19.546  0.00  0.00    +0.000 A 
ATOM     23  C   UNL     1       1.651   7.667  20.885  0.00  0.00    +0.000 A 
ATOM     24  C   UNL     1       0.901   8.598  21.614  0.00  0.00    +0.000 A 
ATOM     25  C   UNL     1       0.478   9.783  20.995  0.00  0.00    +0.000 A 
ATOM     26  C   UNL     1       0.819  10.048  19.660  0.00  0.00    +0.000 A 
ATOM     27  C   UNL     1       1.576   9.120  18.936  0.00  0.00    +0.000 A 
BRANCH  25  28
ATOM     28  N   UNL     1      -0.337  10.752  21.741  0.00  0.00    +0.000 N 
ATOM     29  O   UNL     1      -1.197  11.385  21.116  0.00  0.00    +0.000 OA
ATOM     30  O   UNL     1      -0.108  10.872  22.956  0.00  0.00    +0.000 OA
ENDBRANCH  25  28
ENDBRANCH  19  22
ENDBRANCH   1  20
TORSDOF 5
ENDMDL
MODEL 7
REMARK VINA RESULT:      -7.2      0.639      5.370
REMARK  Name = 
REMARK  5 active torsions:
REMARK  status: ('A' for Active; 'I' for Inactive)
REMARK    1  A    between atoms: C_2  and  C_21
REMARK    2  A    between atoms: N_3  and  C_4
REMARK    3  A    between atoms: C_5  and  C_6
REMARK    4  A    between atoms: N_14  and  C_15
REMARK    5  A    between atoms: C_24  and  N_25
REMARK                            x       y       z     vdW  Elec       q    Type
REMARK                         _______ _______ _______ _____ _____    ______ ____
ROOT
ATOM      1  C   UNL     1       4.443   5.306  18.766  0.00  0.00    +0.000 A 
ATOM      2  C   UNL     1       5.709   5.329  18.218  0.00  0.00    +0.000 A 
ATOM      3  C   UNL     1       5.958   3.982  17.878  0.00  0.00    +0.000 A 
ATOM      4  N   UNL     1       4.987   3.157  18.278  0.00  0.00    +0.000 NA
ATOM      5  N   UNL     1       4.022   3.981  18.758  0.00  0.00    +0.000 N 
ENDROOT
BRANCH   2   6
ATOM      6  C   UNL     1       6.584   6.491  18.125  0.00  0.00    +0.000 A 
ATOM      7  C   UNL     1       7.785   6.544  18.852  0.00  0.00    +0.000 A 
ATOM      8  C   UNL     1       8.600   7.675  18.812  0.00  0.00    +0.000 A 
ATOM      9  C   UNL     1       8.241   8.756  18.012  0.00  0.00    +0.000 A 
ATOM     10  C   UNL     1       7.081   8.695  17.241  0.00  0.00    +0.000 A 
ATOM     11  C   UNL     1       6.255   7.567  17.294  0.00  0.00    +0.000 A 
ENDBRANCH   2   6
BRANCH   5  12
ATOM     12  C   UNL     1       2.778   3.467  19.210  0.00  0.00    +0.000 A 
ATOM     13  C   UNL     1       2.490   3.456  20.578  0.00  0.00    +0.000 A 
ATOM     14  C   UNL     1       1.263   2.962  21.020  0.00  0.00    +0.000 A 
ATOM     15  C   UNL     1       0.332   2.457  20.113  0.00  0.00    +0.000 A 
ATOM     16  C   UNL     1       0.623   2.445  18.754  0.00  0.00    +0.000 A 
ATOM     17  C   UNL     1       1.844   2.946  18.304  0.00  0.00    +0.000 A 
ENDBRANCH   5  12
BRANCH   1  20
ATOM     18  O   UNL     1       2.207   6.524  17.720  0.00  0.00    +0.000 OA
ATOM     19  C   UNL     1       2.649   6.967  18.765  0.00  0.00    +0.000 C 
ATOM     20  N   UNL     1       3.802   6.382  19.382  0.00  0.00    +0.000 N 
ATOM     21  H   UNL     1       4.005   6.544  20.362  0.00  0.00    +0.000 HD
BRANCH  19  22
ATOM     22  C   UNL     1       1.952   7.990  19.578  0.00  0.00    +0.000 A 
ATOM     23  C   UNL     1       1.725   7.759  20.943  0.00  0.00    +0.000 A 
ATOM     24  C   UNL     1       1.063   8.721  21.715  0.00  0.00    +0.000 A 
ATOM     25  C   UNL     1       0.623   9.908  21.112  0.00  0.00    +0.000 A 
ATOM     26  C   UNL     1       0.860  10.144  19.749  0.00  0.00    +0.000 A 
ATOM     27  C   UNL     1       1.530   9.184  18.982  0.00  0.00    +0.000 A 
BRANCH  25  28
ATOM     28  N   UNL     1      -0.102  10.911  21.906  0.00  0.00    +0.000 N 
ATOM     29  O   UNL     1      -0.547  11.902  21.314  0.00  0.00    +0.000 OA
ATOM     30  O   UNL     1      -0.221  10.696  23.123  0.00  0.00    +0.000 OA
ENDBRANCH  25  28
ENDBRANCH  19  22
ENDBRANCH   1  20
TORSDOF 5
ENDMDL
MODEL 8
REMARK VINA RESULT:      -7.1      0.649      5.243
REMARK  Name = 
REMARK  5 active torsions:
REMARK  status: ('A' for Active; 'I' for Inactive)
REMARK    1  A    between atoms: C_2  and  C_21
REMARK    2  A    between atoms: N_3  and  C_4
REMARK    3  A    between atoms: C_5  and  C_6
REMARK    4  A    between atoms: N_14  and  C_15
REMARK    5  A    between atoms: C_24  and  N_25
REMARK                            x       y       z     vdW  Elec       q    Type
REMARK                         _______ _______ _______ _____ _____    ______ ____
ROOT
ATOM      1  C   UNL     1       4.458   5.322  18.747  0.00  0.00    +0.000 A 
ATOM      2  C   UNL     1       5.726   5.353  18.205  0.00  0.00    +0.000 A 
ATOM      3  C   UNL     1       5.984   4.009  17.859  0.00  0.00    +0.000 A 
ATOM      4  N   UNL     1       5.015   3.178  18.251  0.00  0.00    +0.000 NA
ATOM      5  N   UNL     1       4.044   3.995  18.730  0.00  0.00    +0.000 N 
ENDROOT
BRANCH   2   6
ATOM      6  C   UNL     1       6.596   6.520  18.121  0.00  0.00    +0.000 A 
ATOM      7  C   UNL     1       7.795   6.575  18.850  0.00  0.00    +0.000 A 
ATOM      8  C   UNL     1       8.605   7.710  18.819  0.00  0.00    +0.000 A 
ATOM      9  C   UNL     1       8.242   8.794  18.026  0.00  0.00    +0.000 A 
ATOM     10  C   UNL     1       7.084   8.733  17.253  0.00  0.00    +0.000 A 
ATOM     11  C   UNL     1       6.263   7.601  17.297  0.00  0.00    +0.000 A 
ENDBRANCH   2   6
BRANCH   5  12
ATOM     12  C   UNL     1       2.800   3.472  19.174  0.00  0.00    +0.000 A 
ATOM     13  C   UNL     1       1.956   2.827  18.266  0.00  0.00    +0.000 A 
ATOM     14  C   UNL     1       0.740   2.304  18.706  0.00  0.00    +0.000 A 
ATOM     15  C   UNL     1       0.348   2.440  20.037  0.00  0.00    +0.000 A 
ATOM     16  C   UNL     1       1.175   3.101  20.939  0.00  0.00    +0.000 A 
ATOM     17  C   UNL     1       2.396   3.617  20.509  0.00  0.00    +0.000 A 
ENDBRANCH   5  12
BRANCH   1  20
ATOM     18  O   UNL     1       2.224   6.537  17.693  0.00  0.00    +0.000 OA
ATOM     19  C   UNL     1       2.657   6.976  18.744  0.00  0.00    +0.000 C 
ATOM     20  N   UNL     1       3.809   6.391  19.364  0.00  0.00    +0.000 N 
ATOM     21  H   UNL     1       4.005   6.549  20.346  0.00  0.00    +0.000 HD
BRANCH  19  22
ATOM     22  C   UNL     1       1.952   7.991  19.557  0.00  0.00    +0.000 A 
ATOM     23  C   UNL     1       1.516   9.184  18.959  0.00  0.00    +0.000 A 
ATOM     24  C   UNL     1       0.852  10.149  19.725  0.00  0.00    +0.000 A 
ATOM     25  C   UNL     1       0.635   9.919  21.091  0.00  0.00    +0.000 A 
ATOM     26  C   UNL     1       1.061   8.722  21.687  0.00  0.00    +0.000 A 
ATOM     27  C   UNL     1       1.717   7.755  20.917  0.00  0.00    +0.000 A 
BRANCH  25  28
ATOM     28  N   UNL     1      -0.032  10.940  21.911  0.00  0.00    +0.000 N 
ATOM     29  O   UNL     1      -0.410  11.975  21.349  0.00  0.00    +0.000 OA
ATOM     30  O   UNL     1      -0.174  10.695  23.121  0.00  0.00    +0.000 OA
ENDBRANCH  25  28
ENDBRANCH  19  22
ENDBRANCH   1  20
TORSDOF 5
ENDMDL
MODEL 9
REMARK VINA RESULT:      -7.1      0.631      5.262
REMARK  Name = 
REMARK  5 active torsions:
REMARK  status: ('A' for Active; 'I' for Inactive)
REMARK    1  A    between atoms: C_2  and  C_21
REMARK    2  A    between atoms: N_3  and  C_4
REMARK    3  A    between atoms: C_5  and  C_6
REMARK    4  A    between atoms: N_14  and  C_15
REMARK    5  A    between atoms: C_24  and  N_25
REMARK                            x       y       z     vdW  Elec       q    Type
REMARK                         _______ _______ _______ _____ _____    ______ ____
ROOT
ATOM      1  C   UNL     1       4.430   5.287  18.797  0.00  0.00    +0.000 A 
ATOM      2  C   UNL     1       5.697   5.321  18.255  0.00  0.00    +0.000 A 
ATOM      3  C   UNL     1       5.956   3.977  17.907  0.00  0.00    +0.000 A 
ATOM      4  N   UNL     1       4.988   3.145  18.299  0.00  0.00    +0.000 NA
ATOM      5  N   UNL     1       4.017   3.960  18.779  0.00  0.00    +0.000 N 
ENDROOT
BRANCH   2   6
ATOM      6  C   UNL     1       6.566   6.488  18.172  0.00  0.00    +0.000 A 
ATOM      7  C   UNL     1       6.222   7.583  17.362  0.00  0.00    +0.000 A 
ATOM      8  C   UNL     1       7.074   8.680  17.234  0.00  0.00    +0.000 A 
ATOM      9  C   UNL     1       8.269   8.711  17.947  0.00  0.00    +0.000 A 
ATOM     10  C   UNL     1       8.597   7.658  18.799  0.00  0.00    +0.000 A 
ATOM     11  C   UNL     1       7.750   6.551  18.915  0.00  0.00    +0.000 A 
ENDBRANCH   2   6
BRANCH   5  12
ATOM     12  C   UNL     1       2.773   3.436  19.223  0.00  0.00    +0.000 A 
ATOM     13  C   UNL     1       1.828   3.010  18.287  0.00  0.00    +0.000 A 
ATOM     14  C   UNL     1       0.612   2.485  18.725  0.00  0.00    +0.000 A 
ATOM     15  C   UNL     1       0.322   2.404  20.086  0.00  0.00    +0.000 A 
ATOM     16  C   UNL     1       1.251   2.848  21.020  0.00  0.00    +0.000 A 
ATOM     17  C   UNL     1       2.472   3.365  20.590  0.00  0.00    +0.000 A 
ENDBRANCH   5  12
BRANCH   1  20
ATOM     18  O   UNL     1       2.245   6.557  17.705  0.00  0.00    +0.000 OA
ATOM     19  C   UNL     1       2.656   6.970  18.776  0.00  0.00    +0.000 C 
ATOM     20  N   UNL     1       3.780   6.356  19.417  0.00  0.00    +0.000 N 
ATOM     21  H   UNL     1       3.951   6.492  20.407  0.00  0.00    +0.000 HD
BRANCH  19  22
ATOM     22  C   UNL     1       1.943   7.981  19.589  0.00  0.00    +0.000 A 
ATOM     23  C   UNL     1       1.693   7.733  20.947  0.00  0.00    +0.000 A 
ATOM     24  C   UNL     1       1.016   8.684  21.720  0.00  0.00    +0.000 A 
ATOM     25  C   UNL     1       0.583   9.878  21.123  0.00  0.00    +0.000 A 
ATOM     26  C   UNL     1       0.842  10.130  19.768  0.00  0.00    +0.000 A 
ATOM     27  C   UNL     1       1.528   9.181  19.000  0.00  0.00    +0.000 A 
BRANCH  25  28
ATOM     28  N   UNL     1      -0.157  10.869  21.917  0.00  0.00    +0.000 N 
ATOM     29  O   UNL     1      -0.688  11.810  21.314  0.00  0.00    +0.000 OA
ATOM     30  O   UNL     1      -0.202  10.696  23.146  0.00  0.00    +0.000 OA
ENDBRANCH  25  28
ENDBRANCH  19  22
ENDBRANCH   1  20
TORSDOF 5
ENDMDL
