MODEL 1
REMARK VINA RESULT:      -7.6      0.000      0.000
REMARK  Name = 
REMARK  3 active torsions:
REMARK  status: ('A' for Active; 'I' for Inactive)
REMARK    1  A    between atoms: C_1  and  O_2
REMARK    2  A    between atoms: O_2  and  C_3
REMARK    3  A    between atoms: N_10  and  N_11
REMARK                            x       y       z     vdW  Elec       q    Type
REMARK                         _______ _______ _______ _____ _____    ______ ____
ROOT
ATOM      1  C   UNL     1       0.967  11.701  19.145  0.00  0.00    +0.000 A 
ATOM      2  C   UNL     1       0.077  12.778  19.252  0.00  0.00    +0.000 A 
ATOM      3  C   UNL     1      -1.037  12.702  20.082  0.00  0.00    +0.000 A 
ATOM      4  C   UNL     1      -1.280  11.558  20.850  0.00  0.00    +0.000 A 
ATOM      5  C   UNL     1      -0.363  10.494  20.775  0.00  0.00    +0.000 A 
ATOM      6  S   UNL     1      -0.361   8.993  21.628  0.00  0.00    +0.000 S 
ATOM      7  C   UNL     1       1.078   8.511  20.814  0.00  0.00    +0.000 A 
ATOM      8  N   UNL     1       1.659   7.303  21.060  0.00  0.00    +0.000 N 
ATOM      9  N   UNL     1       1.546   9.407  19.979  0.00  0.00    +0.000 NA
ATOM     10  C   UNL     1       0.754  10.540  19.935  0.00  0.00    +0.000 A 
ATOM     11  H   UNL     1       1.154   6.695  21.699  0.00  0.00    +0.000 HD
ENDROOT
BRANCH   8  12
ATOM     12  N   UNL     1       2.417   6.682  20.102  0.00  0.00    +0.000 NA
ATOM     13  C   UNL     1       2.191   5.426  19.846  0.00  0.00    +0.000 C 
ATOM     14  C   UNL     1       1.156   4.580  20.570  0.00  0.00    +0.000 C 
ATOM     15  C   UNL     1       1.769   3.235  20.929  0.00  0.00    +0.000 C 
ATOM     16  C   UNL     1       2.165   2.472  19.672  0.00  0.00    +0.000 C 
ATOM     17  C   UNL     1       2.964   3.315  18.722  0.00  0.00    +0.000 A 
ATOM     18  C   UNL     1       3.695   2.705  17.695  0.00  0.00    +0.000 A 
ATOM     19  C   UNL     1       4.417   3.486  16.802  0.00  0.00    +0.000 A 
ATOM     20  C   UNL     1       4.382   4.862  16.957  0.00  0.00    +0.000 A 
ATOM     21  N   UNL     1       3.679   5.491  17.922  0.00  0.00    +0.000 NA
ATOM     22  C   UNL     1       2.983   4.711  18.789  0.00  0.00    +0.000 A 
ENDBRANCH   8  12
BRANCH   1  24
ATOM     23  C   UNL     1       2.482  13.265  18.216  0.00  0.00    +0.000 C 
ATOM     24  O   UNL     1       2.030  11.913  18.274  0.00  0.00    +0.000 OA
ENDBRANCH   1  24
TORSDOF 2
ENDMDL
MODEL 2
REMARK VINA RESULT:      -7.4      3.009      8.039
REMARK  Name = 
REMARK  3 active torsions:
REMARK  status: ('A' for Active; 'I' for Inactive)
REMARK    1  A    between atoms: C_1  and  O_2
REMARK    2  A    between atoms: O_2  and  C_3
REMARK    3  A    between atoms: N_10  and  N_11
REMARK                            x       y       z     vdW  Elec       q    Type
REMARK                         _______ _______ _______ _____ _____    ______ ____
ROOT
ATOM      1  C   UNL     1       2.589   4.384  19.873  0.00  0.00    +0.000 A 
ATOM      2  C   UNL     1       3.448   3.281  19.972  0.00  0.00    +0.000 A 
ATOM      3  C   UNL     1       4.633   3.235  19.246  0.00  0.00    +0.000 A 
ATOM      4  C   UNL     1       5.010   4.301  18.422  0.00  0.00    +0.000 A 
ATOM      5  C   UNL     1       4.168   5.426  18.357  0.00  0.00    +0.000 A 
ATOM      6  S   UNL     1       4.382   6.900  17.482  0.00  0.00    +0.000 S 
ATOM      7  C   UNL     1       2.874   7.488  18.070  0.00  0.00    +0.000 A 
ATOM      8  N   UNL     1       2.409   8.719  17.716  0.00  0.00    +0.000 N 
ATOM      9  N   UNL     1       2.256   6.663  18.880  0.00  0.00    +0.000 NA
ATOM     10  C   UNL     1       2.963   5.489  19.063  0.00  0.00    +0.000 A 
ATOM     11  H   UNL     1       2.977   9.226  17.042  0.00  0.00    +0.000 HD
ENDROOT
BRANCH   8  12
ATOM     12  N   UNL     1       1.064   8.981  17.695  0.00  0.00    +0.000 NA
ATOM     13  C   UNL     1       0.640  10.106  18.197  0.00  0.00    +0.000 C 
ATOM     14  C   UNL     1       1.541  11.144  18.846  0.00  0.00    +0.000 C 
ATOM     15  C   UNL     1       0.904  11.623  20.141  0.00  0.00    +0.000 C 
ATOM     16  C   UNL     1      -0.430  12.304  19.863  0.00  0.00    +0.000 C 
ATOM     17  C   UNL     1      -1.314  11.483  18.972  0.00  0.00    +0.000 A 
ATOM     18  C   UNL     1      -2.681  11.774  18.886  0.00  0.00    +0.000 A 
ATOM     19  C   UNL     1      -3.496  11.029  18.043  0.00  0.00    +0.000 A 
ATOM     20  C   UNL     1      -2.917  10.013  17.302  0.00  0.00    +0.000 A 
ATOM     21  N   UNL     1      -1.603   9.708  17.343  0.00  0.00    +0.000 NA
ATOM     22  C   UNL     1      -0.822  10.444  18.176  0.00  0.00    +0.000 A 
ENDBRANCH   8  12
BRANCH   1  24
ATOM     23  C   UNL     1       1.280   3.043  21.321  0.00  0.00    +0.000 C 
ATOM     24  O   UNL     1       1.437   4.291  20.647  0.00  0.00    +0.000 OA
ENDBRANCH   1  24
TORSDOF 2
ENDMDL
MODEL 3
REMARK VINA RESULT:      -7.3      2.417      3.525
REMARK  Name = 
REMARK  3 active torsions:
REMARK  status: ('A' for Active; 'I' for Inactive)
REMARK    1  A    between atoms: C_1  and  O_2
REMARK    2  A    between atoms: O_2  and  C_3
REMARK    3  A    between atoms: N_10  and  N_11
REMARK                            x       y       z     vdW  Elec       q    Type
REMARK                         _______ _______ _______ _____ _____    ______ ____
ROOT
ATOM      1  C   UNL     1      -1.763  10.634  18.229  0.00  0.00    +0.000 A 
ATOM      2  C   UNL     1      -2.339  11.861  18.586  0.00  0.00    +0.000 A 
ATOM      3  C   UNL     1      -1.549  12.912  19.040  0.00  0.00    +0.000 A 
ATOM      4  C   UNL     1      -0.159  12.779  19.124  0.00  0.00    +0.000 A 
ATOM      5  C   UNL     1       0.422  11.561  18.724  0.00  0.00    +0.000 A 
ATOM      6  S   UNL     1       2.089  11.115  18.664  0.00  0.00    +0.000 S 
ATOM      7  C   UNL     1       1.667   9.546  18.095  0.00  0.00    +0.000 A 
ATOM      8  N   UNL     1       2.622   8.611  17.826  0.00  0.00    +0.000 N 
ATOM      9  N   UNL     1       0.379   9.362  17.935  0.00  0.00    +0.000 NA
ATOM     10  C   UNL     1      -0.352  10.484  18.282  0.00  0.00    +0.000 A 
ATOM     11  H   UNL     1       3.576   8.883  18.043  0.00  0.00    +0.000 HD
ENDROOT
BRANCH   8  12
ATOM     12  N   UNL     1       2.337   7.273  17.912  0.00  0.00    +0.000 NA
ATOM     13  C   UNL     1       3.295   6.417  17.703  0.00  0.00    +0.000 C 
ATOM     14  C   UNL     1       4.717   6.802  17.329  0.00  0.00    +0.000 C 
ATOM     15  C   UNL     1       5.197   5.912  16.192  0.00  0.00    +0.000 C 
ATOM     16  C   UNL     1       5.232   4.454  16.631  0.00  0.00    +0.000 C 
ATOM     17  C   UNL     1       3.956   4.027  17.294  0.00  0.00    +0.000 A 
ATOM     18  C   UNL     1       3.674   2.664  17.452  0.00  0.00    +0.000 A 
ATOM     19  C   UNL     1       2.504   2.269  18.086  0.00  0.00    +0.000 A 
ATOM     20  C   UNL     1       1.648   3.251  18.554  0.00  0.00    +0.000 A 
ATOM     21  N   UNL     1       1.887   4.574  18.436  0.00  0.00    +0.000 NA
ATOM     22  C   UNL     1       3.033   4.943  17.809  0.00  0.00    +0.000 A 
ENDBRANCH   8  12
BRANCH   1  24
ATOM     23  C   UNL     1      -3.015   9.758  16.419  0.00  0.00    +0.000 C 
ATOM     24  O   UNL     1      -2.672   9.672  17.801  0.00  0.00    +0.000 OA
ENDBRANCH   1  24
TORSDOF 2
ENDMDL
MODEL 4
REMARK VINA RESULT:      -7.2      1.900      2.831
REMARK  Name = 
REMARK  3 active torsions:
REMARK  status: ('A' for Active; 'I' for Inactive)
REMARK    1  A    between atoms: C_1  and  O_2
REMARK    2  A    between atoms: O_2  and  C_3
REMARK    3  A    between atoms: N_10  and  N_11
REMARK                            x       y       z     vdW  Elec       q    Type
REMARK                         _______ _______ _______ _____ _____    ______ ____
ROOT
ATOM      1  C   UNL     1      -1.264  10.601  18.692  0.00  0.00    +0.000 A 
ATOM      2  C   UNL     1      -1.857  11.868  18.779  0.00  0.00    +0.000 A 
ATOM      3  C   UNL     1      -1.649  12.676  19.892  0.00  0.00    +0.000 A 
ATOM      4  C   UNL     1      -0.820  12.255  20.938  0.00  0.00    +0.000 A 
ATOM      5  C   UNL     1      -0.190  11.001  20.828  0.00  0.00    +0.000 A 
ATOM      6  S   UNL     1       0.915  10.237  21.913  0.00  0.00    +0.000 S 
ATOM      7  C   UNL     1       1.011   8.865  20.878  0.00  0.00    +0.000 A 
ATOM      8  N   UNL     1       1.794   7.794  21.193  0.00  0.00    +0.000 N 
ATOM      9  N   UNL     1       0.292   8.966  19.786  0.00  0.00    +0.000 NA
ATOM     10  C   UNL     1      -0.398  10.163  19.729  0.00  0.00    +0.000 A 
ATOM     11  H   UNL     1       2.256   7.840  22.096  0.00  0.00    +0.000 HD
ENDROOT
BRANCH   8  12
ATOM     12  N   UNL     1       1.488   6.542  20.730  0.00  0.00    +0.000 NA
ATOM     13  C   UNL     1       2.275   5.993  19.850  0.00  0.00    +0.000 C 
ATOM     14  C   UNL     1       3.505   6.668  19.267  0.00  0.00    +0.000 C 
ATOM     15  C   UNL     1       3.529   6.457  17.760  0.00  0.00    +0.000 C 
ATOM     16  C   UNL     1       3.637   4.974  17.429  0.00  0.00    +0.000 C 
ATOM     17  C   UNL     1       2.639   4.146  18.184  0.00  0.00    +0.000 A 
ATOM     18  C   UNL     1       2.358   2.840  17.766  0.00  0.00    +0.000 A 
ATOM     19  C   UNL     1       1.452   2.066  18.479  0.00  0.00    +0.000 A 
ATOM     20  C   UNL     1       0.853   2.620  19.597  0.00  0.00    +0.000 A 
ATOM     21  N   UNL     1       1.105   3.869  20.042  0.00  0.00    +0.000 NA
ATOM     22  C   UNL     1       1.991   4.613  19.332  0.00  0.00    +0.000 A 
ENDBRANCH   8  12
BRANCH   1  24
ATOM     23  C   UNL     1      -2.925  10.015  17.109  0.00  0.00    +0.000 C 
ATOM     24  O   UNL     1      -1.567   9.900  17.529  0.00  0.00    +0.000 OA
ENDBRANCH   1  24
TORSDOF 2
ENDMDL
MODEL 5
REMARK VINA RESULT:      -7.1      2.901      7.960
REMARK  Name = 
REMARK  3 active torsions:
REMARK  status: ('A' for Active; 'I' for Inactive)
REMARK    1  A    between atoms: C_1  and  O_2
REMARK    2  A    between atoms: O_2  and  C_3
REMARK    3  A    between atoms: N_10  and  N_11
REMARK                            x       y       z     vdW  Elec       q    Type
REMARK                         _______ _______ _______ _____ _____    ______ ____
ROOT
ATOM      1  C   UNL     1       6.294   6.594  17.332  0.00  0.00    +0.000 A 
ATOM      2  C   UNL     1       6.994   5.405  17.575  0.00  0.00    +0.000 A 
ATOM      3  C   UNL     1       6.363   4.316  18.167  0.00  0.00    +0.000 A 
ATOM      4  C   UNL     1       5.007   4.373  18.507  0.00  0.00    +0.000 A 
ATOM      5  C   UNL     1       4.295   5.552  18.222  0.00  0.00    +0.000 A 
ATOM      6  S   UNL     1       2.622   5.905  18.472  0.00  0.00    +0.000 S 
ATOM      7  C   UNL     1       2.843   7.489  17.836  0.00  0.00    +0.000 A 
ATOM      8  N   UNL     1       1.804   8.367  17.749  0.00  0.00    +0.000 N 
ATOM      9  N   UNL     1       4.067   7.743  17.440  0.00  0.00    +0.000 NA
ATOM     10  C   UNL     1       4.911   6.666  17.645  0.00  0.00    +0.000 A 
ATOM     11  H   UNL     1       0.923   8.044  18.139  0.00  0.00    +0.000 HD
ENDROOT
BRANCH   8  12
ATOM     12  N   UNL     1       2.024   9.719  17.782  0.00  0.00    +0.000 NA
ATOM     13  C   UNL     1       1.215  10.466  18.478  0.00  0.00    +0.000 C 
ATOM     14  C   UNL     1       0.007   9.939  19.235  0.00  0.00    +0.000 C 
ATOM     15  C   UNL     1      -1.185  10.846  18.973  0.00  0.00    +0.000 C 
ATOM     16  C   UNL     1      -0.914  12.252  19.493  0.00  0.00    +0.000 C 
ATOM     17  C   UNL     1       0.415  12.781  19.039  0.00  0.00    +0.000 A 
ATOM     18  C   UNL     1       0.685  14.152  19.124  0.00  0.00    +0.000 A 
ATOM     19  C   UNL     1       1.923  14.639  18.726  0.00  0.00    +0.000 A 
ATOM     20  C   UNL     1       2.863  13.737  18.257  0.00  0.00    +0.000 A 
ATOM     21  N   UNL     1       2.649  12.407  18.171  0.00  0.00    +0.000 NA
ATOM     22  C   UNL     1       1.432  11.949  18.561  0.00  0.00    +0.000 A 
ENDBRANCH   8  12
BRANCH   1  24
ATOM     23  C   UNL     1       7.883   8.320  17.656  0.00  0.00    +0.000 C 
ATOM     24  O   UNL     1       7.053   7.602  16.745  0.00  0.00    +0.000 OA
ENDBRANCH   1  24
TORSDOF 2
ENDMDL
MODEL 6
REMARK VINA RESULT:      -7.0      0.946      1.009
REMARK  Name = 
REMARK  3 active torsions:
REMARK  status: ('A' for Active; 'I' for Inactive)
REMARK    1  A    between atoms: C_1  and  O_2
REMARK    2  A    between atoms: O_2  and  C_3
REMARK    3  A    between atoms: N_10  and  N_11
REMARK                            x       y       z     vdW  Elec       q    Type
REMARK                         _______ _______ _______ _____ _____    ______ ____
ROOT
ATOM      1  C   UNL     1       1.038  12.203  20.498  0.00  0.00    +0.000 A 
ATOM      2  C   UNL     1       0.151  13.236  20.830  0.00  0.00    +0.000 A 
ATOM      3  C   UNL     1      -1.020  12.971  21.532  0.00  0.00    +0.000 A 
ATOM      4  C   UNL     1      -1.328  11.670  21.946  0.00  0.00    +0.000 A 
ATOM      5  C   UNL     1      -0.416  10.641  21.650  0.00  0.00    +0.000 A 
ATOM      6  S   UNL     1      -0.487   8.966  22.066  0.00  0.00    +0.000 S 
ATOM      7  C   UNL     1       1.003   8.681  21.251  0.00  0.00    +0.000 A 
ATOM      8  N   UNL     1       1.555   7.436  21.202  0.00  0.00    +0.000 N 
ATOM      9  N   UNL     1       1.537   9.755  20.721  0.00  0.00    +0.000 NA
ATOM     10  C   UNL     1       0.759  10.879  20.930  0.00  0.00    +0.000 A 
ATOM     11  H   UNL     1       1.000   6.694  21.618  0.00  0.00    +0.000 HD
ENDROOT
BRANCH   8  12
ATOM     12  N   UNL     1       2.375   7.074  20.166  0.00  0.00    +0.000 NA
ATOM     13  C   UNL     1       2.356   5.838  19.758  0.00  0.00    +0.000 C 
ATOM     14  C   UNL     1       1.502   4.747  20.383  0.00  0.00    +0.000 C 
ATOM     15  C   UNL     1       2.343   3.492  20.566  0.00  0.00    +0.000 C 
ATOM     16  C   UNL     1       2.820   2.966  19.218  0.00  0.00    +0.000 C 
ATOM     17  C   UNL     1       3.436   4.041  18.372  0.00  0.00    +0.000 A 
ATOM     18  C   UNL     1       4.226   3.693  17.269  0.00  0.00    +0.000 A 
ATOM     19  C   UNL     1       4.776   4.688  16.472  0.00  0.00    +0.000 A 
ATOM     20  C   UNL     1       4.515   6.008  16.797  0.00  0.00    +0.000 A 
ATOM     21  N   UNL     1       3.749   6.387  17.841  0.00  0.00    +0.000 NA
ATOM     22  C   UNL     1       3.222   5.402  18.612  0.00  0.00    +0.000 A 
ENDBRANCH   8  12
BRANCH   1  24
ATOM     23  C   UNL     1       1.995  12.620  18.373  0.00  0.00    +0.000 C 
ATOM     24  O   UNL     1       2.163  12.612  19.789  0.00  0.00    +0.000 OA
ENDBRANCH   1  24
TORSDOF 2
ENDMDL
MODEL 7
REMARK VINA RESULT:      -6.8      2.108      3.472
REMARK  Name = 
REMARK  3 active torsions:
REMARK  status: ('A' for Active; 'I' for Inactive)
REMARK    1  A    between atoms: C_1  and  O_2
REMARK    2  A    between atoms: O_2  and  C_3
REMARK    3  A    between atoms: N_10  and  N_11
REMARK                            x       y       z     vdW  Elec       q    Type
REMARK                         _______ _______ _______ _____ _____    ______ ____
ROOT
ATOM      1  C   UNL     1      -0.114  11.139  21.323  0.00  0.00    +0.000 A 
ATOM      2  C   UNL     1      -0.250  12.475  21.721  0.00  0.00    +0.000 A 
ATOM      3  C   UNL     1       0.406  13.492  21.035  0.00  0.00    +0.000 A 
ATOM      4  C   UNL     1       1.195  13.207  19.915  0.00  0.00    +0.000 A 
ATOM      5  C   UNL     1       1.295  11.870  19.491  0.00  0.00    +0.000 A 
ATOM      6  S   UNL     1       2.138  11.216  18.133  0.00  0.00    +0.000 S 
ATOM      7  C   UNL     1       1.633   9.627  18.560  0.00  0.00    +0.000 A 
ATOM      8  N   UNL     1       1.999   8.544  17.818  0.00  0.00    +0.000 N 
ATOM      9  N   UNL     1       0.870   9.576  19.626  0.00  0.00    +0.000 NA
ATOM     10  C   UNL     1       0.660  10.828  20.174  0.00  0.00    +0.000 A 
ATOM     11  H   UNL     1       2.632   8.735  17.047  0.00  0.00    +0.000 HD
ENDROOT
BRANCH   8  12
ATOM     12  N   UNL     1       2.095   7.302  18.389  0.00  0.00    +0.000 NA
ATOM     13  C   UNL     1       3.186   6.615  18.208  0.00  0.00    +0.000 C 
ATOM     14  C   UNL     1       4.360   7.086  17.367  0.00  0.00    +0.000 C 
ATOM     15  C   UNL     1       4.832   5.944  16.478  0.00  0.00    +0.000 C 
ATOM     16  C   UNL     1       5.329   4.778  17.322  0.00  0.00    +0.000 C 
ATOM     17  C   UNL     1       4.358   4.400  18.402  0.00  0.00    +0.000 A 
ATOM     18  C   UNL     1       4.476   3.162  19.044  0.00  0.00    +0.000 A 
ATOM     19  C   UNL     1       3.591   2.822  20.059  0.00  0.00    +0.000 A 
ATOM     20  C   UNL     1       2.612   3.736  20.409  0.00  0.00    +0.000 A 
ATOM     21  N   UNL     1       2.471   4.945  19.826  0.00  0.00    +0.000 NA
ATOM     22  C   UNL     1       3.342   5.260  18.833  0.00  0.00    +0.000 A 
ENDBRANCH   8  12
BRANCH   1  24
ATOM     23  C   UNL     1      -0.060   9.655  23.168  0.00  0.00    +0.000 C 
ATOM     24  O   UNL     1      -0.819  10.228  22.105  0.00  0.00    +0.000 OA
ENDBRANCH   1  24
TORSDOF 2
ENDMDL
MODEL 8
REMARK VINA RESULT:      -6.8      2.737      8.267
REMARK  Name = 
REMARK  3 active torsions:
REMARK  status: ('A' for Active; 'I' for Inactive)
REMARK    1  A    between atoms: C_1  and  O_2
REMARK    2  A    between atoms: O_2  and  C_3
REMARK    3  A    between atoms: N_10  and  N_11
REMARK                            x       y       z     vdW  Elec       q    Type
REMARK                         _______ _______ _______ _____ _____    ______ ____
ROOT
ATOM      1  C   UNL     1       2.886   3.048  20.199  0.00  0.00    +0.000 A 
ATOM      2  C   UNL     1       3.117   1.824  19.558  0.00  0.00    +0.000 A 
ATOM      3  C   UNL     1       3.280   1.762  18.179  0.00  0.00    +0.000 A 
ATOM      4  C   UNL     1       3.245   2.925  17.401  0.00  0.00    +0.000 A 
ATOM      5  C   UNL     1       3.056   4.159  18.051  0.00  0.00    +0.000 A 
ATOM      6  S   UNL     1       3.018   5.750  17.382  0.00  0.00    +0.000 S 
ATOM      7  C   UNL     1       2.736   6.420  18.942  0.00  0.00    +0.000 A 
ATOM      8  N   UNL     1       2.595   7.764  19.121  0.00  0.00    +0.000 N 
ATOM      9  N   UNL     1       2.693   5.532  19.906  0.00  0.00    +0.000 NA
ATOM     10  C   UNL     1       2.872   4.244  19.434  0.00  0.00    +0.000 A 
ATOM     11  H   UNL     1       2.605   8.322  18.272  0.00  0.00    +0.000 HD
ENDROOT
BRANCH   8  12
ATOM     12  N   UNL     1       1.859   8.259  20.165  0.00  0.00    +0.000 NA
ATOM     13  C   UNL     1       1.135   9.323  19.968  0.00  0.00    +0.000 C 
ATOM     14  C   UNL     1       1.077  10.084  18.654  0.00  0.00    +0.000 C 
ATOM     15  C   UNL     1       1.179  11.577  18.933  0.00  0.00    +0.000 C 
ATOM     16  C   UNL     1      -0.002  12.047  19.771  0.00  0.00    +0.000 C 
ATOM     17  C   UNL     1      -0.231  11.178  20.973  0.00  0.00    +0.000 A 
ATOM     18  C   UNL     1      -1.033  11.638  22.024  0.00  0.00    +0.000 A 
ATOM     19  C   UNL     1      -1.264  10.825  23.126  0.00  0.00    +0.000 A 
ATOM     20  C   UNL     1      -0.689   9.565  23.143  0.00  0.00    +0.000 A 
ATOM     21  N   UNL     1       0.078   9.077  22.145  0.00  0.00    +0.000 NA
ATOM     22  C   UNL     1       0.296   9.887  21.078  0.00  0.00    +0.000 A 
ENDBRANCH   8  12
BRANCH   1  24
ATOM     23  C   UNL     1       1.438   2.533  22.002  0.00  0.00    +0.000 C 
ATOM     24  O   UNL     1       2.733   2.959  21.579  0.00  0.00    +0.000 OA
ENDBRANCH   1  24
TORSDOF 2
ENDMDL
MODEL 9
REMARK VINA RESULT:      -6.8      0.940      1.005
REMARK  Name = 
REMARK  3 active torsions:
REMARK  status: ('A' for Active; 'I' for Inactive)
REMARK    1  A    between atoms: C_1  and  O_2
REMARK    2  A    between atoms: O_2  and  C_3
REMARK    3  A    between atoms: N_10  and  N_11
REMARK                            x       y       z     vdW  Elec       q    Type
REMARK                         _______ _______ _______ _____ _____    ______ ____
ROOT
ATOM      1  C   UNL     1       1.371  12.585  18.679  0.00  0.00    +0.000 A 
ATOM      2  C   UNL     1       0.562  13.730  18.687  0.00  0.00    +0.000 A 
ATOM      3  C   UNL     1      -0.671  13.726  19.330  0.00  0.00    +0.000 A 
ATOM      4  C   UNL     1      -1.121  12.588  20.009  0.00  0.00    +0.000 A 
ATOM      5  C   UNL     1      -0.288  11.454  20.037  0.00  0.00    +0.000 A 
ATOM      6  S   UNL     1      -0.538   9.937  20.825  0.00  0.00    +0.000 S 
ATOM      7  C   UNL     1       0.969   9.358  20.226  0.00  0.00    +0.000 A 
ATOM      8  N   UNL     1       1.409   8.100  20.514  0.00  0.00    +0.000 N 
ATOM      9  N   UNL     1       1.632  10.232  19.507  0.00  0.00    +0.000 NA
ATOM     10  C   UNL     1       0.947  11.427  19.383  0.00  0.00    +0.000 A 
ATOM     11  H   UNL     1       0.763   7.521  21.044  0.00  0.00    +0.000 HD
ENDROOT
BRANCH   8  12
ATOM     12  N   UNL     1       2.257   7.442  19.664  0.00  0.00    +0.000 NA
ATOM     13  C   UNL     1       2.278   6.141  19.687  0.00  0.00    +0.000 C 
ATOM     14  C   UNL     1       1.442   5.291  20.630  0.00  0.00    +0.000 C 
ATOM     15  C   UNL     1       2.312   4.194  21.224  0.00  0.00    +0.000 C 
ATOM     16  C   UNL     1       2.828   3.268  20.131  0.00  0.00    +0.000 C 
ATOM     17  C   UNL     1       3.430   4.021  18.982  0.00  0.00    +0.000 A 
ATOM     18  C   UNL     1       4.250   3.354  18.063  0.00  0.00    +0.000 A 
ATOM     19  C   UNL     1       4.788   4.047  16.986  0.00  0.00    +0.000 A 
ATOM     20  C   UNL     1       4.487   5.391  16.854  0.00  0.00    +0.000 A 
ATOM     21  N   UNL     1       3.691   6.070  17.708  0.00  0.00    +0.000 NA
ATOM     22  C   UNL     1       3.176   5.378  18.757  0.00  0.00    +0.000 A 
ENDBRANCH   8  12
BRANCH   1  24
ATOM     23  C   UNL     1       3.212  13.990  18.183  0.00  0.00    +0.000 C 
ATOM     24  O   UNL     1       2.571  12.730  17.991  0.00  0.00    +0.000 OA
ENDBRANCH   1  24
TORSDOF 2
ENDMDL
