MODEL 1
REMARK VINA RESULT:      -7.5      0.000      0.000
REMARK  Name = 
REMARK  5 active torsions:
REMARK  status: ('A' for Active; 'I' for Inactive)
REMARK    1  A    between atoms: C_2  and  C_3
REMARK    2  A    between atoms: C_3  and  C_4
REMARK    3  A    between atoms: C_4  and  N_5
REMARK    4  A    between atoms: C_6  and  C_8
REMARK    5  A    between atoms: N_13  and  C_14
REMARK                            x       y       z     vdW  Elec       q    Type
REMARK                         _______ _______ _______ _____ _____    ______ ____
ROOT
ATOM      1  O   UNL     1       2.430   7.348  18.654  0.00  0.00    +0.000 OA
ATOM      2  C   UNL     1       3.313   6.720  18.077  0.00  0.00    +0.000 C 
ATOM      3  N   UNL     1       3.509   5.348  18.144  0.00  0.00    +0.000 N 
ATOM      4  H   UNL     1       4.379   4.994  17.765  0.00  0.00    +0.000 HD
ENDROOT
BRANCH   3   5
ATOM      5  C   UNL     1       2.722   4.436  18.877  0.00  0.00    +0.000 A 
ATOM      6  C   UNL     1       1.777   3.588  18.289  0.00  0.00    +0.000 A 
ATOM      7  C   UNL     1       1.001   2.744  19.080  0.00  0.00    +0.000 A 
ATOM      8  F   UNL     1       0.094   1.947  18.501  0.00  0.00    +0.000 F 
ATOM      9  C   UNL     1       1.147   2.720  20.459  0.00  0.00    +0.000 A 
ATOM     10  C   UNL     1       2.108   3.531  21.034  0.00  0.00    +0.000 A 
ATOM     11  F   UNL     1       2.269   3.517  22.366  0.00  0.00    +0.000 F 
ATOM     12  C   UNL     1       2.908   4.374  20.263  0.00  0.00    +0.000 A 
ENDBRANCH   3   5
BRANCH   2  13
ATOM     13  C   UNL     1       4.293   7.415  17.154  0.00  0.00    +0.000 C 
BRANCH  13  14
ATOM     14  C   UNL     1       5.589   6.623  17.052  0.00  0.00    +0.000 C 
BRANCH  14  15
ATOM     15  N   UNL     1       5.783   6.073  15.722  0.00  0.00    +0.000 N 
ATOM     16  C   UNL     1       6.780   5.166  15.454  0.00  0.00    +0.000 C 
ATOM     17  O   UNL     1       7.538   4.745  16.324  0.00  0.00    +0.000 OA
ATOM     18  H   UNL     1       5.154   6.361  14.987  0.00  0.00    +0.000 HD
BRANCH  16  19
ATOM     19  C   UNL     1       6.863   4.714  14.076  0.00  0.00    +0.000 A 
ATOM     20  C   UNL     1       7.721   5.093  12.999  0.00  0.00    +0.000 A 
ATOM     21  C   UNL     1       7.350   4.334  11.912  0.00  0.00    +0.000 A 
ATOM     22  O   UNL     1       6.323   3.512  12.238  0.00  0.00    +0.000 OA
ATOM     23  C   UNL     1       6.036   3.742  13.542  0.00  0.00    +0.000 A 
ENDBRANCH  16  19
ENDBRANCH  14  15
ENDBRANCH  13  14
ENDBRANCH   2  13
TORSDOF 5
ENDMDL
MODEL 2
REMARK VINA RESULT:      -7.5      1.789      2.550
REMARK  Name = 
REMARK  5 active torsions:
REMARK  status: ('A' for Active; 'I' for Inactive)
REMARK    1  A    between atoms: C_2  and  C_3
REMARK    2  A    between atoms: C_3  and  C_4
REMARK    3  A    between atoms: C_4  and  N_5
REMARK    4  A    between atoms: C_6  and  C_8
REMARK    5  A    between atoms: N_13  and  C_14
REMARK                            x       y       z     vdW  Elec       q    Type
REMARK                         _______ _______ _______ _____ _____    ______ ____
ROOT
ATOM      1  O   UNL     1       5.036   5.872  18.631  0.00  0.00    +0.000 OA
ATOM      2  C   UNL     1       5.642   4.818  18.804  0.00  0.00    +0.000 C 
ATOM      3  N   UNL     1       5.079   3.613  19.198  0.00  0.00    +0.000 N 
ATOM      4  H   UNL     1       5.720   2.879  19.474  0.00  0.00    +0.000 HD
ENDROOT
BRANCH   3   5
ATOM      5  C   UNL     1       3.711   3.386  19.459  0.00  0.00    +0.000 A 
ATOM      6  C   UNL     1       3.230   2.895  20.676  0.00  0.00    +0.000 A 
ATOM      7  C   UNL     1       1.868   2.652  20.848  0.00  0.00    +0.000 A 
ATOM      8  F   UNL     1       1.426   2.172  22.017  0.00  0.00    +0.000 F 
ATOM      9  C   UNL     1       0.963   2.893  19.825  0.00  0.00    +0.000 A 
ATOM     10  C   UNL     1       1.437   3.415  18.635  0.00  0.00    +0.000 A 
ATOM     11  F   UNL     1       0.576   3.661  17.636  0.00  0.00    +0.000 F 
ATOM     12  C   UNL     1       2.793   3.681  18.443  0.00  0.00    +0.000 A 
ENDBRANCH   3   5
BRANCH   2  13
ATOM     13  C   UNL     1       7.131   4.720  18.544  0.00  0.00    +0.000 C 
BRANCH  13  14
ATOM     14  C   UNL     1       7.549   5.687  17.444  0.00  0.00    +0.000 C 
BRANCH  14  15
ATOM     15  N   UNL     1       7.486   5.072  16.130  0.00  0.00    +0.000 N 
ATOM     16  C   UNL     1       6.492   5.383  15.234  0.00  0.00    +0.000 C 
ATOM     17  O   UNL     1       5.624   6.217  15.477  0.00  0.00    +0.000 OA
ATOM     18  H   UNL     1       8.204   4.410  15.876  0.00  0.00    +0.000 HD
BRANCH  16  19
ATOM     19  C   UNL     1       6.549   4.678  13.965  0.00  0.00    +0.000 A 
ATOM     20  C   UNL     1       5.737   3.640  13.414  0.00  0.00    +0.000 A 
ATOM     21  C   UNL     1       6.253   3.352  12.171  0.00  0.00    +0.000 A 
ATOM     22  O   UNL     1       7.327   4.137  11.911  0.00  0.00    +0.000 OA
ATOM     23  C   UNL     1       7.498   4.935  12.993  0.00  0.00    +0.000 A 
ENDBRANCH  16  19
ENDBRANCH  14  15
ENDBRANCH  13  14
ENDBRANCH   2  13
TORSDOF 5
ENDMDL
MODEL 3
REMARK VINA RESULT:      -7.5      1.859      2.396
REMARK  Name = 
REMARK  5 active torsions:
REMARK  status: ('A' for Active; 'I' for Inactive)
REMARK    1  A    between atoms: C_2  and  C_3
REMARK    2  A    between atoms: C_3  and  C_4
REMARK    3  A    between atoms: C_4  and  N_5
REMARK    4  A    between atoms: C_6  and  C_8
REMARK    5  A    between atoms: N_13  and  C_14
REMARK                            x       y       z     vdW  Elec       q    Type
REMARK                         _______ _______ _______ _____ _____    ______ ____
ROOT
ATOM      1  O   UNL     1       6.818   4.031  18.547  0.00  0.00    +0.000 OA
ATOM      2  C   UNL     1       6.485   5.209  18.635  0.00  0.00    +0.000 C 
ATOM      3  N   UNL     1       5.186   5.679  18.765  0.00  0.00    +0.000 N 
ATOM      4  H   UNL     1       5.048   6.675  18.645  0.00  0.00    +0.000 HD
ENDROOT
BRANCH   3   5
ATOM      5  C   UNL     1       4.023   4.884  18.830  0.00  0.00    +0.000 A 
ATOM      6  C   UNL     1       3.741   3.857  17.924  0.00  0.00    +0.000 A 
ATOM      7  C   UNL     1       2.549   3.141  18.020  0.00  0.00    +0.000 A 
ATOM      8  F   UNL     1       2.291   2.168  17.138  0.00  0.00    +0.000 F 
ATOM      9  C   UNL     1       1.622   3.424  19.012  0.00  0.00    +0.000 A 
ATOM     10  C   UNL     1       1.921   4.415  19.930  0.00  0.00    +0.000 A 
ATOM     11  F   UNL     1       1.039   4.699  20.901  0.00  0.00    +0.000 F 
ATOM     12  C   UNL     1       3.113   5.136  19.864  0.00  0.00    +0.000 A 
ENDBRANCH   3   5
BRANCH   2  13
ATOM     13  C   UNL     1       7.521   6.315  18.658  0.00  0.00    +0.000 C 
BRANCH  13  14
ATOM     14  C   UNL     1       7.547   7.055  17.328  0.00  0.00    +0.000 C 
BRANCH  14  15
ATOM     15  N   UNL     1       7.439   6.147  16.201  0.00  0.00    +0.000 N 
ATOM     16  C   UNL     1       6.276   6.027  15.477  0.00  0.00    +0.000 C 
ATOM     17  O   UNL     1       5.279   6.701  15.719  0.00  0.00    +0.000 OA
ATOM     18  H   UNL     1       8.250   5.604  15.943  0.00  0.00    +0.000 HD
BRANCH  16  19
ATOM     19  C   UNL     1       6.312   5.068  14.387  0.00  0.00    +0.000 A 
ATOM     20  C   UNL     1       5.412   4.028  14.003  0.00  0.00    +0.000 A 
ATOM     21  C   UNL     1       5.951   3.431  12.886  0.00  0.00    +0.000 A 
ATOM     22  O   UNL     1       7.121   4.026  12.550  0.00  0.00    +0.000 OA
ATOM     23  C   UNL     1       7.332   5.013  13.454  0.00  0.00    +0.000 A 
ENDBRANCH  16  19
ENDBRANCH  14  15
ENDBRANCH  13  14
ENDBRANCH   2  13
TORSDOF 5
ENDMDL
MODEL 4
REMARK VINA RESULT:      -7.4      3.259      4.792
REMARK  Name = 
REMARK  5 active torsions:
REMARK  status: ('A' for Active; 'I' for Inactive)
REMARK    1  A    between atoms: C_2  and  C_3
REMARK    2  A    between atoms: C_3  and  C_4
REMARK    3  A    between atoms: C_4  and  N_5
REMARK    4  A    between atoms: C_6  and  C_8
REMARK    5  A    between atoms: N_13  and  C_14
REMARK                            x       y       z     vdW  Elec       q    Type
REMARK                         _______ _______ _______ _____ _____    ______ ____
ROOT
ATOM      1  O   UNL     1       1.175   4.350  19.609  0.00  0.00    +0.000 OA
ATOM      2  C   UNL     1       2.311   4.575  20.017  0.00  0.00    +0.000 C 
ATOM      3  N   UNL     1       2.870   5.829  20.215  0.00  0.00    +0.000 N 
ATOM      4  H   UNL     1       3.868   5.862  20.380  0.00  0.00    +0.000 HD
ENDROOT
BRANCH   3   5
ATOM      5  C   UNL     1       2.226   7.064  19.991  0.00  0.00    +0.000 A 
ATOM      6  C   UNL     1       1.440   7.709  20.952  0.00  0.00    +0.000 A 
ATOM      7  C   UNL     1       0.796   8.906  20.647  0.00  0.00    +0.000 A 
ATOM      8  F   UNL     1       0.039   9.503  21.575  0.00  0.00    +0.000 F 
ATOM      9  C   UNL     1       0.921   9.487  19.393  0.00  0.00    +0.000 A 
ATOM     10  C   UNL     1       1.729   8.868  18.458  0.00  0.00    +0.000 A 
ATOM     11  F   UNL     1       1.867   9.418  17.242  0.00  0.00    +0.000 F 
ATOM     12  C   UNL     1       2.397   7.677  18.743  0.00  0.00    +0.000 A 
ENDBRANCH   3   5
BRANCH   2  13
ATOM     13  C   UNL     1       3.239   3.444  20.409  0.00  0.00    +0.000 C 
BRANCH  13  14
ATOM     14  C   UNL     1       3.511   2.535  19.217  0.00  0.00    +0.000 C 
BRANCH  14  15
ATOM     15  N   UNL     1       4.572   3.054  18.372  0.00  0.00    +0.000 N 
ATOM     16  C   UNL     1       4.306   3.645  17.161  0.00  0.00    +0.000 C 
ATOM     17  O   UNL     1       3.163   3.799  16.740  0.00  0.00    +0.000 OA
ATOM     18  H   UNL     1       5.524   2.984  18.701  0.00  0.00    +0.000 HD
BRANCH  16  19
ATOM     19  C   UNL     1       5.468   4.103  16.419  0.00  0.00    +0.000 A 
ATOM     20  C   UNL     1       5.751   4.142  15.019  0.00  0.00    +0.000 A 
ATOM     21  C   UNL     1       7.012   4.678  14.884  0.00  0.00    +0.000 A 
ATOM     22  O   UNL     1       7.531   4.974  16.100  0.00  0.00    +0.000 OA
ATOM     23  C   UNL     1       6.597   4.629  17.020  0.00  0.00    +0.000 A 
ENDBRANCH  16  19
ENDBRANCH  14  15
ENDBRANCH  13  14
ENDBRANCH   2  13
TORSDOF 5
ENDMDL
MODEL 5
REMARK VINA RESULT:      -7.4      1.823      2.364
REMARK  Name = 
REMARK  5 active torsions:
REMARK  status: ('A' for Active; 'I' for Inactive)
REMARK    1  A    between atoms: C_2  and  C_3
REMARK    2  A    between atoms: C_3  and  C_4
REMARK    3  A    between atoms: C_4  and  N_5
REMARK    4  A    between atoms: C_6  and  C_8
REMARK    5  A    between atoms: N_13  and  C_14
REMARK                            x       y       z     vdW  Elec       q    Type
REMARK                         _______ _______ _______ _____ _____    ______ ____
ROOT
ATOM      1  O   UNL     1       6.133   3.726  18.837  0.00  0.00    +0.000 OA
ATOM      2  C   UNL     1       5.991   4.894  19.187  0.00  0.00    +0.000 C 
ATOM      3  N   UNL     1       4.781   5.524  19.440  0.00  0.00    +0.000 N 
ATOM      4  H   UNL     1       4.806   6.531  19.544  0.00  0.00    +0.000 HD
ENDROOT
BRANCH   3   5
ATOM      5  C   UNL     1       3.505   4.930  19.347  0.00  0.00    +0.000 A 
ATOM      6  C   UNL     1       2.739   4.928  18.177  0.00  0.00    +0.000 A 
ATOM      7  C   UNL     1       1.466   4.361  18.171  0.00  0.00    +0.000 A 
ATOM      8  F   UNL     1       0.743   4.378  17.044  0.00  0.00    +0.000 F 
ATOM      9  C   UNL     1       0.932   3.787  19.314  0.00  0.00    +0.000 A 
ATOM     10  C   UNL     1       1.707   3.756  20.459  0.00  0.00    +0.000 A 
ATOM     11  F   UNL     1       1.210   3.198  21.574  0.00  0.00    +0.000 F 
ATOM     12  C   UNL     1       2.990   4.302  20.488  0.00  0.00    +0.000 A 
ENDBRANCH   3   5
BRANCH   2  13
ATOM     13  C   UNL     1       7.189   5.787  19.436  0.00  0.00    +0.000 C 
BRANCH  13  14
ATOM     14  C   UNL     1       7.531   6.587  18.187  0.00  0.00    +0.000 C 
BRANCH  14  15
ATOM     15  N   UNL     1       7.401   5.789  16.981  0.00  0.00    +0.000 N 
ATOM     16  C   UNL     1       6.458   6.074  16.023  0.00  0.00    +0.000 C 
ATOM     17  O   UNL     1       5.697   7.034  16.115  0.00  0.00    +0.000 OA
ATOM     18  H   UNL     1       8.036   5.015  16.848  0.00  0.00    +0.000 HD
BRANCH  16  19
ATOM     19  C   UNL     1       6.436   5.180  14.879  0.00  0.00    +0.000 A 
ATOM     20  C   UNL     1       5.552   4.119  14.515  0.00  0.00    +0.000 A 
ATOM     21  C   UNL     1       6.011   3.613  13.320  0.00  0.00    +0.000 A 
ATOM     22  O   UNL     1       7.117   4.284  12.917  0.00  0.00    +0.000 OA
ATOM     23  C   UNL     1       7.366   5.229  13.856  0.00  0.00    +0.000 A 
ENDBRANCH  16  19
ENDBRANCH  14  15
ENDBRANCH  13  14
ENDBRANCH   2  13
TORSDOF 5
ENDMDL
MODEL 6
REMARK VINA RESULT:      -7.4      3.135      4.683
REMARK  Name = 
REMARK  5 active torsions:
REMARK  status: ('A' for Active; 'I' for Inactive)
REMARK    1  A    between atoms: C_2  and  C_3
REMARK    2  A    between atoms: C_3  and  C_4
REMARK    3  A    between atoms: C_4  and  N_5
REMARK    4  A    between atoms: C_6  and  C_8
REMARK    5  A    between atoms: N_13  and  C_14
REMARK                            x       y       z     vdW  Elec       q    Type
REMARK                         _______ _______ _______ _____ _____    ______ ____
ROOT
ATOM      1  O   UNL     1       1.488   4.076  18.878  0.00  0.00    +0.000 OA
ATOM      2  C   UNL     1       2.287   4.188  19.804  0.00  0.00    +0.000 C 
ATOM      3  N   UNL     1       2.690   5.380  20.389  0.00  0.00    +0.000 N 
ATOM      4  H   UNL     1       3.484   5.334  21.016  0.00  0.00    +0.000 HD
ENDROOT
BRANCH   3   5
ATOM      5  C   UNL     1       2.244   6.669  20.029  0.00  0.00    +0.000 A 
ATOM      6  C   UNL     1       1.488   7.486  20.875  0.00  0.00    +0.000 A 
ATOM      7  C   UNL     1       1.042   8.731  20.436  0.00  0.00    +0.000 A 
ATOM      8  F   UNL     1       0.310   9.496  21.256  0.00  0.00    +0.000 F 
ATOM      9  C   UNL     1       1.338   9.190  19.161  0.00  0.00    +0.000 A 
ATOM     10  C   UNL     1       2.119   8.396  18.341  0.00  0.00    +0.000 A 
ATOM     11  F   UNL     1       2.421   8.825  17.106  0.00  0.00    +0.000 F 
ATOM     12  C   UNL     1       2.590   7.152  18.761  0.00  0.00    +0.000 A 
ENDBRANCH   3   5
BRANCH   2  13
ATOM     13  C   UNL     1       2.902   2.968  20.458  0.00  0.00    +0.000 C 
BRANCH  13  14
ATOM     14  C   UNL     1       4.313   2.732  19.936  0.00  0.00    +0.000 C 
BRANCH  14  15
ATOM     15  N   UNL     1       4.496   3.284  18.606  0.00  0.00    +0.000 N 
ATOM     16  C   UNL     1       5.499   4.183  18.329  0.00  0.00    +0.000 C 
ATOM     17  O   UNL     1       6.312   4.542  19.175  0.00  0.00    +0.000 OA
ATOM     18  H   UNL     1       3.873   2.983  17.871  0.00  0.00    +0.000 HD
BRANCH  16  19
ATOM     19  C   UNL     1       5.551   4.661  16.958  0.00  0.00    +0.000 A 
ATOM     20  C   UNL     1       5.709   3.976  15.715  0.00  0.00    +0.000 A 
ATOM     21  C   UNL     1       5.685   4.936  14.728  0.00  0.00    +0.000 A 
ATOM     22  O   UNL     1       5.524   6.167  15.271  0.00  0.00    +0.000 OA
ATOM     23  C   UNL     1       5.440   5.996  16.612  0.00  0.00    +0.000 A 
ENDBRANCH  16  19
ENDBRANCH  14  15
ENDBRANCH  13  14
ENDBRANCH   2  13
TORSDOF 5
ENDMDL
MODEL 7
REMARK VINA RESULT:      -7.3      3.635      7.101
REMARK  Name = 
REMARK  5 active torsions:
REMARK  status: ('A' for Active; 'I' for Inactive)
REMARK    1  A    between atoms: C_2  and  C_3
REMARK    2  A    between atoms: C_3  and  C_4
REMARK    3  A    between atoms: C_4  and  N_5
REMARK    4  A    between atoms: C_6  and  C_8
REMARK    5  A    between atoms: N_13  and  C_14
REMARK                            x       y       z     vdW  Elec       q    Type
REMARK                         _______ _______ _______ _____ _____    ______ ____
ROOT
ATOM      1  O   UNL     1       5.714   6.775  16.316  0.00  0.00    +0.000 OA
ATOM      2  C   UNL     1       6.607   6.045  16.738  0.00  0.00    +0.000 C 
ATOM      3  N   UNL     1       7.292   5.090  16.001  0.00  0.00    +0.000 N 
ATOM      4  H   UNL     1       7.871   4.443  16.521  0.00  0.00    +0.000 HD
ENDROOT
BRANCH   3   5
ATOM      5  C   UNL     1       7.090   4.800  14.635  0.00  0.00    +0.000 A 
ATOM      6  C   UNL     1       6.286   3.749  14.182  0.00  0.00    +0.000 A 
ATOM      7  C   UNL     1       6.168   3.491  12.818  0.00  0.00    +0.000 A 
ATOM      8  F   UNL     1       5.402   2.474  12.403  0.00  0.00    +0.000 F 
ATOM      9  C   UNL     1       6.837   4.266  11.882  0.00  0.00    +0.000 A 
ATOM     10  C   UNL     1       7.600   5.328  12.331  0.00  0.00    +0.000 A 
ATOM     11  F   UNL     1       8.249   6.093  11.440  0.00  0.00    +0.000 F 
ATOM     12  C   UNL     1       7.723   5.616  13.690  0.00  0.00    +0.000 A 
ENDBRANCH   3   5
BRANCH   2  13
ATOM     13  C   UNL     1       7.100   6.159  18.166  0.00  0.00    +0.000 C 
BRANCH  13  14
ATOM     14  C   UNL     1       6.574   5.006  19.010  0.00  0.00    +0.000 C 
BRANCH  14  15
ATOM     15  N   UNL     1       5.186   4.705  18.709  0.00  0.00    +0.000 N 
ATOM     16  C   UNL     1       4.570   3.576  19.193  0.00  0.00    +0.000 C 
ATOM     17  O   UNL     1       5.143   2.780  19.931  0.00  0.00    +0.000 OA
ATOM     18  H   UNL     1       4.667   5.356  18.138  0.00  0.00    +0.000 HD
BRANCH  16  19
ATOM     19  C   UNL     1       3.184   3.399  18.797  0.00  0.00    +0.000 A 
ATOM     20  C   UNL     1       2.065   2.825  19.474  0.00  0.00    +0.000 A 
ATOM     21  C   UNL     1       0.991   2.925  18.618  0.00  0.00    +0.000 A 
ATOM     22  O   UNL     1       1.364   3.520  17.459  0.00  0.00    +0.000 OA
ATOM     23  C   UNL     1       2.683   3.806  17.573  0.00  0.00    +0.000 A 
ENDBRANCH  16  19
ENDBRANCH  14  15
ENDBRANCH  13  14
ENDBRANCH   2  13
TORSDOF 5
ENDMDL
MODEL 8
REMARK VINA RESULT:      -7.3      2.979      4.231
REMARK  Name = 
REMARK  5 active torsions:
REMARK  status: ('A' for Active; 'I' for Inactive)
REMARK    1  A    between atoms: C_2  and  C_3
REMARK    2  A    between atoms: C_3  and  C_4
REMARK    3  A    between atoms: C_4  and  N_5
REMARK    4  A    between atoms: C_6  and  C_8
REMARK    5  A    between atoms: N_13  and  C_14
REMARK                            x       y       z     vdW  Elec       q    Type
REMARK                         _______ _______ _______ _____ _____    ______ ____
ROOT
ATOM      1  O   UNL     1       0.949   3.834  19.258  0.00  0.00    +0.000 OA
ATOM      2  C   UNL     1       2.162   3.902  19.442  0.00  0.00    +0.000 C 
ATOM      3  N   UNL     1       2.896   5.070  19.590  0.00  0.00    +0.000 N 
ATOM      4  H   UNL     1       3.904   4.981  19.555  0.00  0.00    +0.000 HD
ENDROOT
BRANCH   3   5
ATOM      5  C   UNL     1       2.376   6.381  19.565  0.00  0.00    +0.000 A 
ATOM      6  C   UNL     1       2.443   7.215  18.444  0.00  0.00    +0.000 A 
ATOM      7  C   UNL     1       1.949   8.517  18.505  0.00  0.00    +0.000 A 
ATOM      8  F   UNL     1       2.030   9.304  17.426  0.00  0.00    +0.000 F 
ATOM      9  C   UNL     1       1.380   9.013  19.668  0.00  0.00    +0.000 A 
ATOM     10  C   UNL     1       1.280   8.174  20.763  0.00  0.00    +0.000 A 
ATOM     11  F   UNL     1       0.727   8.634  21.896  0.00  0.00    +0.000 F 
ATOM     12  C   UNL     1       1.753   6.862  20.723  0.00  0.00    +0.000 A 
ENDBRANCH   3   5
BRANCH   2  13
ATOM     13  C   UNL     1       3.003   2.651  19.580  0.00  0.00    +0.000 C 
BRANCH  13  14
ATOM     14  C   UNL     1       4.482   3.005  19.668  0.00  0.00    +0.000 C 
BRANCH  14  15
ATOM     15  N   UNL     1       5.050   3.282  18.361  0.00  0.00    +0.000 N 
ATOM     16  C   UNL     1       5.736   4.445  18.103  0.00  0.00    +0.000 C 
ATOM     17  O   UNL     1       5.935   5.296  18.965  0.00  0.00    +0.000 OA
ATOM     18  H   UNL     1       4.944   2.589  17.635  0.00  0.00    +0.000 HD
BRANCH  16  19
ATOM     19  C   UNL     1       6.234   4.591  16.746  0.00  0.00    +0.000 A 
ATOM     20  C   UNL     1       5.997   3.836  15.557  0.00  0.00    +0.000 A 
ATOM     21  C   UNL     1       6.735   4.429  14.558  0.00  0.00    +0.000 A 
ATOM     22  O   UNL     1       7.413   5.497  15.042  0.00  0.00    +0.000 OA
ATOM     23  C   UNL     1       7.106   5.593  16.358  0.00  0.00    +0.000 A 
ENDBRANCH  16  19
ENDBRANCH  14  15
ENDBRANCH  13  14
ENDBRANCH   2  13
TORSDOF 5
ENDMDL
MODEL 9
REMARK VINA RESULT:      -7.3      3.098      4.476
REMARK  Name = 
REMARK  5 active torsions:
REMARK  status: ('A' for Active; 'I' for Inactive)
REMARK    1  A    between atoms: C_2  and  C_3
REMARK    2  A    between atoms: C_3  and  C_4
REMARK    3  A    between atoms: C_4  and  N_5
REMARK    4  A    between atoms: C_6  and  C_8
REMARK    5  A    between atoms: N_13  and  C_14
REMARK                            x       y       z     vdW  Elec       q    Type
REMARK                         _______ _______ _______ _____ _____    ______ ____
ROOT
ATOM      1  O   UNL     1       1.421   4.490  18.363  0.00  0.00    +0.000 OA
ATOM      2  C   UNL     1       2.355   4.508  19.160  0.00  0.00    +0.000 C 
ATOM      3  N   UNL     1       2.792   5.616  19.872  0.00  0.00    +0.000 N 
ATOM      4  H   UNL     1       3.679   5.527  20.352  0.00  0.00    +0.000 HD
ENDROOT
BRANCH   3   5
ATOM      5  C   UNL     1       2.234   6.910  19.811  0.00  0.00    +0.000 A 
ATOM      6  C   UNL     1       1.547   7.503  20.875  0.00  0.00    +0.000 A 
ATOM      7  C   UNL     1       0.982   8.769  20.730  0.00  0.00    +0.000 A 
ATOM      8  F   UNL     1       0.319   9.317  21.755  0.00  0.00    +0.000 F 
ATOM      9  C   UNL     1       1.088   9.468  19.536  0.00  0.00    +0.000 A 
ATOM     10  C   UNL     1       1.801   8.895  18.499  0.00  0.00    +0.000 A 
ATOM     11  F   UNL     1       1.920   9.559  17.339  0.00  0.00    +0.000 F 
ATOM     12  C   UNL     1       2.389   7.637  18.624  0.00  0.00    +0.000 A 
ENDBRANCH   3   5
BRANCH   2  13
ATOM     13  C   UNL     1       3.124   3.247  19.493  0.00  0.00    +0.000 C 
BRANCH  13  14
ATOM     14  C   UNL     1       4.621   3.525  19.532  0.00  0.00    +0.000 C 
BRANCH  14  15
ATOM     15  N   UNL     1       5.186   3.628  18.199  0.00  0.00    +0.000 N 
ATOM     16  C   UNL     1       5.567   4.837  17.667  0.00  0.00    +0.000 C 
ATOM     17  O   UNL     1       5.483   5.888  18.295  0.00  0.00    +0.000 OA
ATOM     18  H   UNL     1       5.311   2.781  17.664  0.00  0.00    +0.000 HD
BRANCH  16  19
ATOM     19  C   UNL     1       6.103   4.787  16.317  0.00  0.00    +0.000 A 
ATOM     20  C   UNL     1       5.628   4.157  15.126  0.00  0.00    +0.000 A 
ATOM     21  C   UNL     1       6.542   4.442  14.137  0.00  0.00    +0.000 A 
ATOM     22  O   UNL     1       7.549   5.203  14.629  0.00  0.00    +0.000 OA
ATOM     23  C   UNL     1       7.278   5.410  15.941  0.00  0.00    +0.000 A 
ENDBRANCH  16  19
ENDBRANCH  14  15
ENDBRANCH  13  14
ENDBRANCH   2  13
TORSDOF 5
ENDMDL
