MODEL 1
REMARK VINA RESULT:      -7.7      0.000      0.000
REMARK  Name = 
REMARK  13 active torsions:
REMARK  status: ('A' for Active; 'I' for Inactive)
REMARK    1  A    between atoms: C_1  and  O_2
REMARK    2  A    between atoms: O_2  and  C_3
REMARK    3  A    between atoms: C_6  and  C_7
REMARK    4  A    between atoms: C_7  and  C_8
REMARK    5  A    between atoms: C_7  and  N_29
REMARK    6  A    between atoms: C_8  and  N_9
REMARK    7  A    between atoms: N_9  and  C_10
REMARK    8  A    between atoms: C_13  and  S_14
REMARK    9  A    between atoms: S_14  and  N_17
REMARK   10  A    between atoms: N_20  and  C_21
REMARK   11  A    between atoms: C_25  and  N_26
REMARK   12  A    between atoms: N_29  and  C_30
REMARK   13  A    between atoms: N_29  and  C_31
REMARK                            x       y       z     vdW  Elec       q    Type
REMARK                         _______ _______ _______ _____ _____    ______ ____
ROOT
ATOM      1  C   UNL     1       1.217   8.780  19.945  0.00  0.00    +0.000 A 
ATOM      2  C   UNL     1       1.024   9.178  18.615  0.00  0.00    +0.000 A 
ATOM      3  C   UNL     1       0.180  10.241  18.269  0.00  0.00    +0.000 A 
ATOM      4  C   UNL     1      -0.456  10.985  19.269  0.00  0.00    +0.000 A 
ATOM      5  C   UNL     1      -0.271  10.649  20.609  0.00  0.00    +0.000 A 
ATOM      6  C   UNL     1       0.571   9.564  20.926  0.00  0.00    +0.000 A 
ENDROOT
BRANCH   4   7
ATOM      7  S   UNL     1      -1.626  12.243  18.795  0.00  0.00    +0.000 S 
ATOM      8  O   UNL     1      -1.518  13.295  19.786  0.00  0.00    +0.000 OA
ATOM      9  O   UNL     1      -1.390  12.518  17.394  0.00  0.00    +0.000 OA
BRANCH   7  10
ATOM     10  N   UNL     1      -3.141  11.538  18.957  0.00  0.00    +0.000 NA
ATOM     11  C   UNL     1      -3.747  10.785  17.837  0.00  0.00    +0.000 C 
ATOM     12  C   UNL     1      -4.742  11.656  17.046  0.00  0.00    +0.000 C 
ATOM     13  N   UNL     1      -5.751  12.340  17.879  0.00  0.00    +0.000 NA
ATOM     14  C   UNL     1      -6.498  13.308  17.071  0.00  0.00    +0.000 C 
ATOM     15  C   UNL     1      -5.153  13.013  19.049  0.00  0.00    +0.000 C 
ATOM     16  C   UNL     1      -4.163  12.144  19.838  0.00  0.00    +0.000 C 
ENDBRANCH   7  10
ENDBRANCH   4   7
BRANCH   6  17
ATOM     17  N   UNL     1       0.784   9.287  22.343  0.00  0.00    +0.000 N 
ATOM     18  O   UNL     1       1.947   9.350  22.771  0.00  0.00    +0.000 OA
ATOM     19  O   UNL     1      -0.212   8.975  23.009  0.00  0.00    +0.000 OA
ENDBRANCH   6  17
BRANCH   1  20
ATOM     20  N   UNL     1       2.070   7.729  20.273  0.00  0.00    +0.000 N 
ATOM     21  H   UNL     1       2.162   7.543  21.271  0.00  0.00    +0.000 HD
BRANCH  20  22
ATOM     22  C   UNL     1       2.362   6.607  19.367  0.00  0.00    +0.000 C 
BRANCH  22  23
ATOM     23  C   UNL     1       3.502   5.637  19.845  0.00  0.00    +0.000 C 
BRANCH  23  27
ATOM     24  C   UNL     1       6.599   5.664  16.795  0.00  0.00    +0.000 A 
ATOM     25  C   UNL     1       5.402   6.348  16.600  0.00  0.00    +0.000 A 
ATOM     26  C   UNL     1       4.448   6.409  17.617  0.00  0.00    +0.000 A 
ATOM     27  C   UNL     1       4.648   5.725  18.829  0.00  0.00    +0.000 A 
ATOM     28  C   UNL     1       5.857   5.037  19.013  0.00  0.00    +0.000 A 
ATOM     29  C   UNL     1       6.833   5.018  18.009  0.00  0.00    +0.000 A 
BRANCH  24  31
ATOM     30  C   UNL     1       7.021   4.840  14.627  0.00  0.00    +0.000 C 
ATOM     31  O   UNL     1       7.441   5.650  15.717  0.00  0.00    +0.000 OA
ENDBRANCH  24  31
ENDBRANCH  23  27
BRANCH  23  32
ATOM     32  N   UNL     1       3.004   4.237  20.059  0.00  0.00    +0.000 NA
ATOM     33  C   UNL     1       2.220   4.115  21.299  0.00  0.00    +0.000 C 
ATOM     34  C   UNL     1       2.164   3.761  18.950  0.00  0.00    +0.000 C 
ENDBRANCH  23  32
ENDBRANCH  22  23
ENDBRANCH  20  22
ENDBRANCH   1  20
TORSDOF 9
ENDMDL
MODEL 2
REMARK VINA RESULT:      -7.5      2.492      3.407
REMARK  Name = 
REMARK  13 active torsions:
REMARK  status: ('A' for Active; 'I' for Inactive)
REMARK    1  A    between atoms: C_1  and  O_2
REMARK    2  A    between atoms: O_2  and  C_3
REMARK    3  A    between atoms: C_6  and  C_7
REMARK    4  A    between atoms: C_7  and  C_8
REMARK    5  A    between atoms: C_7  and  N_29
REMARK    6  A    between atoms: C_8  and  N_9
REMARK    7  A    between atoms: N_9  and  C_10
REMARK    8  A    between atoms: C_13  and  S_14
REMARK    9  A    between atoms: S_14  and  N_17
REMARK   10  A    between atoms: N_20  and  C_21
REMARK   11  A    between atoms: C_25  and  N_26
REMARK   12  A    between atoms: N_29  and  C_30
REMARK   13  A    between atoms: N_29  and  C_31
REMARK                            x       y       z     vdW  Elec       q    Type
REMARK                         _______ _______ _______ _____ _____    ______ ____
ROOT
ATOM      1  C   UNL     1       1.321   8.689  20.291  0.00  0.00    +0.000 A 
ATOM      2  C   UNL     1       1.233   9.009  18.930  0.00  0.00    +0.000 A 
ATOM      3  C   UNL     1       0.548  10.141  18.471  0.00  0.00    +0.000 A 
ATOM      4  C   UNL     1      -0.026  11.031  19.385  0.00  0.00    +0.000 A 
ATOM      5  C   UNL     1       0.062  10.775  20.752  0.00  0.00    +0.000 A 
ATOM      6  C   UNL     1       0.744   9.620  21.184  0.00  0.00    +0.000 A 
ENDROOT
BRANCH   4   7
ATOM      7  S   UNL     1      -1.004  12.387  18.769  0.00  0.00    +0.000 S 
ATOM      8  O   UNL     1      -1.517  11.969  17.480  0.00  0.00    +0.000 OA
ATOM      9  O   UNL     1      -1.904  12.764  19.838  0.00  0.00    +0.000 OA
BRANCH   7  10
ATOM     10  N   UNL     1       0.077  13.645  18.509  0.00  0.00    +0.000 NA
ATOM     11  C   UNL     1       1.529  13.382  18.400  0.00  0.00    +0.000 C 
ATOM     12  C   UNL     1       2.251  13.647  19.735  0.00  0.00    +0.000 C 
ATOM     13  N   UNL     1       1.958  14.963  20.337  0.00  0.00    +0.000 NA
ATOM     14  C   UNL     1       2.505  15.028  21.695  0.00  0.00    +0.000 C 
ATOM     15  C   UNL     1       0.513  15.262  20.360  0.00  0.00    +0.000 C 
ATOM     16  C   UNL     1      -0.206  15.001  19.028  0.00  0.00    +0.000 C 
ENDBRANCH   7  10
ENDBRANCH   4   7
BRANCH   6  17
ATOM     17  N   UNL     1       0.863   9.425  22.625  0.00  0.00    +0.000 N 
ATOM     18  O   UNL     1       2.005   9.425  23.111  0.00  0.00    +0.000 OA
ATOM     19  O   UNL     1      -0.187   9.239  23.255  0.00  0.00    +0.000 OA
ENDBRANCH   6  17
BRANCH   1  20
ATOM     20  N   UNL     1       2.017   7.566  20.732  0.00  0.00    +0.000 N 
ATOM     21  H   UNL     1       2.526   7.690  21.607  0.00  0.00    +0.000 HD
BRANCH  20  22
ATOM     22  C   UNL     1       1.642   6.189  20.380  0.00  0.00    +0.000 C 
BRANCH  22  23
ATOM     23  C   UNL     1       2.817   5.145  20.406  0.00  0.00    +0.000 C 
BRANCH  23  27
ATOM     24  C   UNL     1       5.569   6.001  17.152  0.00  0.00    +0.000 A 
ATOM     25  C   UNL     1       4.210   6.277  17.027  0.00  0.00    +0.000 A 
ATOM     26  C   UNL     1       3.346   6.082  18.105  0.00  0.00    +0.000 A 
ATOM     27  C   UNL     1       3.818   5.540  19.312  0.00  0.00    +0.000 A 
ATOM     28  C   UNL     1       5.189   5.263  19.427  0.00  0.00    +0.000 A 
ATOM     29  C   UNL     1       6.061   5.504  18.359  0.00  0.00    +0.000 A 
BRANCH  24  31
ATOM     30  C   UNL     1       6.878   5.032  15.447  0.00  0.00    +0.000 C 
ATOM     31  O   UNL     1       6.310   6.203  16.020  0.00  0.00    +0.000 OA
ENDBRANCH  24  31
ENDBRANCH  23  27
BRANCH  23  32
ATOM     32  N   UNL     1       2.324   3.732  20.279  0.00  0.00    +0.000 NA
ATOM     33  C   UNL     1       2.391   3.008  21.558  0.00  0.00    +0.000 C 
ATOM     34  C   UNL     1       0.936   3.660  19.796  0.00  0.00    +0.000 C 
ENDBRANCH  23  32
ENDBRANCH  22  23
ENDBRANCH  20  22
ENDBRANCH   1  20
TORSDOF 9
ENDMDL
MODEL 3
REMARK VINA RESULT:      -7.5      2.337      2.845
REMARK  Name = 
REMARK  13 active torsions:
REMARK  status: ('A' for Active; 'I' for Inactive)
REMARK    1  A    between atoms: C_1  and  O_2
REMARK    2  A    between atoms: O_2  and  C_3
REMARK    3  A    between atoms: C_6  and  C_7
REMARK    4  A    between atoms: C_7  and  C_8
REMARK    5  A    between atoms: C_7  and  N_29
REMARK    6  A    between atoms: C_8  and  N_9
REMARK    7  A    between atoms: N_9  and  C_10
REMARK    8  A    between atoms: C_13  and  S_14
REMARK    9  A    between atoms: S_14  and  N_17
REMARK   10  A    between atoms: N_20  and  C_21
REMARK   11  A    between atoms: C_25  and  N_26
REMARK   12  A    between atoms: N_29  and  C_30
REMARK   13  A    between atoms: N_29  and  C_31
REMARK                            x       y       z     vdW  Elec       q    Type
REMARK                         _______ _______ _______ _____ _____    ______ ____
ROOT
ATOM      1  C   UNL     1       1.234   8.854  20.141  0.00  0.00    +0.000 A 
ATOM      2  C   UNL     1       1.075   9.301  18.822  0.00  0.00    +0.000 A 
ATOM      3  C   UNL     1       0.381  10.477  18.511  0.00  0.00    +0.000 A 
ATOM      4  C   UNL     1      -0.129  11.281  19.535  0.00  0.00    +0.000 A 
ATOM      5  C   UNL     1       0.031  10.897  20.865  0.00  0.00    +0.000 A 
ATOM      6  C   UNL     1       0.720   9.701  21.148  0.00  0.00    +0.000 A 
ENDROOT
BRANCH   4   7
ATOM      7  S   UNL     1      -1.121  12.698  19.106  0.00  0.00    +0.000 S 
ATOM      8  O   UNL     1      -1.039  12.833  17.666  0.00  0.00    +0.000 OA
ATOM      9  O   UNL     1      -2.398  12.521  19.762  0.00  0.00    +0.000 OA
BRANCH   7  10
ATOM     10  N   UNL     1      -0.345  14.020  19.790  0.00  0.00    +0.000 NA
ATOM     11  C   UNL     1      -0.889  14.671  21.003  0.00  0.00    +0.000 C 
ATOM     12  C   UNL     1      -1.717  15.921  20.646  0.00  0.00    +0.000 C 
ATOM     13  N   UNL     1      -1.029  16.874  19.752  0.00  0.00    +0.000 NA
ATOM     14  C   UNL     1      -1.968  17.903  19.296  0.00  0.00    +0.000 C 
ATOM     15  C   UNL     1      -0.406  16.208  18.592  0.00  0.00    +0.000 C 
ATOM     16  C   UNL     1       0.421  14.964  18.947  0.00  0.00    +0.000 C 
ENDBRANCH   7  10
ENDBRANCH   4   7
BRANCH   6  17
ATOM     17  N   UNL     1       0.917   9.370  22.555  0.00  0.00    +0.000 N 
ATOM     18  O   UNL     1      -0.093   9.138  23.237  0.00  0.00    +0.000 OA
ATOM     19  O   UNL     1       2.082   9.381  22.976  0.00  0.00    +0.000 OA
ENDBRANCH   6  17
BRANCH   1  20
ATOM     20  N   UNL     1       1.938   7.689  20.435  0.00  0.00    +0.000 N 
ATOM     21  H   UNL     1       1.860   7.368  21.399  0.00  0.00    +0.000 HD
BRANCH  20  22
ATOM     22  C   UNL     1       2.277   6.670  19.430  0.00  0.00    +0.000 C 
BRANCH  22  23
ATOM     23  C   UNL     1       3.380   5.638  19.864  0.00  0.00    +0.000 C 
BRANCH  23  27
ATOM     24  C   UNL     1       6.487   5.703  16.825  0.00  0.00    +0.000 A 
ATOM     25  C   UNL     1       5.322   6.450  16.668  0.00  0.00    +0.000 A 
ATOM     26  C   UNL     1       4.368   6.494  17.686  0.00  0.00    +0.000 A 
ATOM     27  C   UNL     1       4.533   5.733  18.856  0.00  0.00    +0.000 A 
ATOM     28  C   UNL     1       5.710   4.983  19.002  0.00  0.00    +0.000 A 
ATOM     29  C   UNL     1       6.687   4.978  17.999  0.00  0.00    +0.000 A 
BRANCH  24  31
ATOM     30  C   UNL     1       7.030   4.770  14.729  0.00  0.00    +0.000 C 
ATOM     31  O   UNL     1       7.332   5.713  15.749  0.00  0.00    +0.000 OA
ENDBRANCH  24  31
ENDBRANCH  23  27
BRANCH  23  32
ATOM     32  N   UNL     1       2.832   4.248  20.010  0.00  0.00    +0.000 NA
ATOM     33  C   UNL     1       2.114   4.070  21.283  0.00  0.00    +0.000 C 
ATOM     34  C   UNL     1       1.910   3.887  18.922  0.00  0.00    +0.000 C 
ENDBRANCH  23  32
ENDBRANCH  22  23
ENDBRANCH  20  22
ENDBRANCH   1  20
TORSDOF 9
ENDMDL
MODEL 4
REMARK VINA RESULT:      -7.4      3.029      9.643
REMARK  Name = 
REMARK  13 active torsions:
REMARK  status: ('A' for Active; 'I' for Inactive)
REMARK    1  A    between atoms: C_1  and  O_2
REMARK    2  A    between atoms: O_2  and  C_3
REMARK    3  A    between atoms: C_6  and  C_7
REMARK    4  A    between atoms: C_7  and  C_8
REMARK    5  A    between atoms: C_7  and  N_29
REMARK    6  A    between atoms: C_8  and  N_9
REMARK    7  A    between atoms: N_9  and  C_10
REMARK    8  A    between atoms: C_13  and  S_14
REMARK    9  A    between atoms: S_14  and  N_17
REMARK   10  A    between atoms: N_20  and  C_21
REMARK   11  A    between atoms: C_25  and  N_26
REMARK   12  A    between atoms: N_29  and  C_30
REMARK   13  A    between atoms: N_29  and  C_31
REMARK                            x       y       z     vdW  Elec       q    Type
REMARK                         _______ _______ _______ _____ _____    ______ ____
ROOT
ATOM      1  C   UNL     1       1.146   9.361  18.987  0.00  0.00    +0.000 A 
ATOM      2  C   UNL     1       1.657   9.027  17.726  0.00  0.00    +0.000 A 
ATOM      3  C   UNL     1       2.505   7.929  17.531  0.00  0.00    +0.000 A 
ATOM      4  C   UNL     1       2.819   7.087  18.603  0.00  0.00    +0.000 A 
ATOM      5  C   UNL     1       2.309   7.357  19.872  0.00  0.00    +0.000 A 
ATOM      6  C   UNL     1       1.471   8.478  20.041  0.00  0.00    +0.000 A 
ENDROOT
BRANCH   4   7
ATOM      7  S   UNL     1       4.004   5.780  18.355  0.00  0.00    +0.000 S 
ATOM      8  O   UNL     1       4.640   6.041  17.080  0.00  0.00    +0.000 OA
ATOM      9  O   UNL     1       4.787   5.697  19.569  0.00  0.00    +0.000 OA
BRANCH   7  10
ATOM     10  N   UNL     1       3.102   4.373  18.200  0.00  0.00    +0.000 NA
ATOM     11  C   UNL     1       1.629   4.400  18.344  0.00  0.00    +0.000 C 
ATOM     12  C   UNL     1       1.195   3.978  19.761  0.00  0.00    +0.000 C 
ATOM     13  N   UNL     1       1.785   2.708  20.229  0.00  0.00    +0.000 NA
ATOM     14  C   UNL     1       1.494   2.511  21.652  0.00  0.00    +0.000 C 
ATOM     15  C   UNL     1       3.242   2.646  19.998  0.00  0.00    +0.000 C 
ATOM     16  C   UNL     1       3.675   3.064  18.585  0.00  0.00    +0.000 C 
ENDBRANCH   7  10
ENDBRANCH   4   7
BRANCH   6  17
ATOM     17  N   UNL     1       0.911   8.687  21.372  0.00  0.00    +0.000 N 
ATOM     18  O   UNL     1      -0.091   8.025  21.683  0.00  0.00    +0.000 OA
ATOM     19  O   UNL     1       1.459   9.540  22.084  0.00  0.00    +0.000 OA
ENDBRANCH   6  17
BRANCH   1  20
ATOM     20  N   UNL     1       0.293  10.448  19.162  0.00  0.00    +0.000 N 
ATOM     21  H   UNL     1       0.648  11.336  18.808  0.00  0.00    +0.000 HD
BRANCH  20  22
ATOM     22  C   UNL     1      -1.167  10.324  19.279  0.00  0.00    +0.000 C 
BRANCH  22  23
ATOM     23  C   UNL     1      -1.989  11.568  18.778  0.00  0.00    +0.000 C 
BRANCH  23  27
ATOM     24  C   UNL     1      -3.834  13.159  22.379  0.00  0.00    +0.000 A 
ATOM     25  C   UNL     1      -2.494  12.779  22.373  0.00  0.00    +0.000 A 
ATOM     26  C   UNL     1      -1.885  12.352  21.193  0.00  0.00    +0.000 A 
ATOM     27  C   UNL     1      -2.627  12.231  20.006  0.00  0.00    +0.000 A 
ATOM     28  C   UNL     1      -3.977  12.614  20.023  0.00  0.00    +0.000 A 
ATOM     29  C   UNL     1      -4.574  13.088  21.198  0.00  0.00    +0.000 A 
BRANCH  24  31
ATOM     30  C   UNL     1      -4.334  12.510  24.589  0.00  0.00    +0.000 C 
ATOM     31  O   UNL     1      -4.327  13.530  23.599  0.00  0.00    +0.000 OA
ENDBRANCH  24  31
ENDBRANCH  23  27
BRANCH  23  32
ATOM     32  N   UNL     1      -2.985  11.199  17.717  0.00  0.00    +0.000 NA
ATOM     33  C   UNL     1      -2.455  11.424  16.362  0.00  0.00    +0.000 C 
ATOM     34  C   UNL     1      -3.410   9.794  17.804  0.00  0.00    +0.000 C 
ENDBRANCH  23  32
ENDBRANCH  22  23
ENDBRANCH  20  22
ENDBRANCH   1  20
TORSDOF 9
ENDMDL
MODEL 5
REMARK VINA RESULT:      -7.4      3.336      9.840
REMARK  Name = 
REMARK  13 active torsions:
REMARK  status: ('A' for Active; 'I' for Inactive)
REMARK    1  A    between atoms: C_1  and  O_2
REMARK    2  A    between atoms: O_2  and  C_3
REMARK    3  A    between atoms: C_6  and  C_7
REMARK    4  A    between atoms: C_7  and  C_8
REMARK    5  A    between atoms: C_7  and  N_29
REMARK    6  A    between atoms: C_8  and  N_9
REMARK    7  A    between atoms: N_9  and  C_10
REMARK    8  A    between atoms: C_13  and  S_14
REMARK    9  A    between atoms: S_14  and  N_17
REMARK   10  A    between atoms: N_20  and  C_21
REMARK   11  A    between atoms: C_25  and  N_26
REMARK   12  A    between atoms: N_29  and  C_30
REMARK   13  A    between atoms: N_29  and  C_31
REMARK                            x       y       z     vdW  Elec       q    Type
REMARK                         _______ _______ _______ _____ _____    ______ ____
ROOT
ATOM      1  C   UNL     1       1.029   9.595  19.481  0.00  0.00    +0.000 A 
ATOM      2  C   UNL     1       1.460   9.249  18.193  0.00  0.00    +0.000 A 
ATOM      3  C   UNL     1       2.147   8.057  17.931  0.00  0.00    +0.000 A 
ATOM      4  C   UNL     1       2.371   7.137  18.961  0.00  0.00    +0.000 A 
ATOM      5  C   UNL     1       1.934   7.420  20.253  0.00  0.00    +0.000 A 
ATOM      6  C   UNL     1       1.259   8.635  20.490  0.00  0.00    +0.000 A 
ENDROOT
BRANCH   4   7
ATOM      7  S   UNL     1       3.362   5.694  18.627  0.00  0.00    +0.000 S 
ATOM      8  O   UNL     1       3.636   5.081  19.911  0.00  0.00    +0.000 OA
ATOM      9  O   UNL     1       2.681   4.958  17.585  0.00  0.00    +0.000 OA
BRANCH   7  10
ATOM     10  N   UNL     1       4.814   6.273  18.014  0.00  0.00    +0.000 NA
ATOM     11  C   UNL     1       4.862   6.953  16.701  0.00  0.00    +0.000 C 
ATOM     12  C   UNL     1       5.302   5.988  15.583  0.00  0.00    +0.000 C 
ATOM     13  N   UNL     1       6.539   5.237  15.877  0.00  0.00    +0.000 NA
ATOM     14  C   UNL     1       6.748   4.196  14.866  0.00  0.00    +0.000 C 
ATOM     15  C   UNL     1       6.527   4.638  17.225  0.00  0.00    +0.000 C 
ATOM     16  C   UNL     1       6.091   5.600  18.340  0.00  0.00    +0.000 C 
ENDBRANCH   7  10
ENDBRANCH   4   7
BRANCH   6  17
ATOM     17  N   UNL     1       0.765   8.861  21.845  0.00  0.00    +0.000 N 
ATOM     18  O   UNL     1      -0.415   8.562  22.082  0.00  0.00    +0.000 OA
ATOM     19  O   UNL     1       1.555   9.370  22.652  0.00  0.00    +0.000 OA
ENDBRANCH   6  17
BRANCH   1  20
ATOM     20  N   UNL     1       0.336  10.779  19.723  0.00  0.00    +0.000 N 
ATOM     21  H   UNL     1      -0.491  10.683  20.312  0.00  0.00    +0.000 HD
BRANCH  20  22
ATOM     22  C   UNL     1       0.962  12.109  19.682  0.00  0.00    +0.000 C 
BRANCH  22  23
ATOM     23  C   UNL     1       0.747  12.993  20.964  0.00  0.00    +0.000 C 
BRANCH  23  27
ATOM     24  C   UNL     1      -3.238  12.458  22.617  0.00  0.00    +0.000 A 
ATOM     25  C   UNL     1      -3.044  13.191  21.449  0.00  0.00    +0.000 A 
ATOM     26  C   UNL     1      -1.775  13.286  20.876  0.00  0.00    +0.000 A 
ATOM     27  C   UNL     1      -0.660  12.702  21.501  0.00  0.00    +0.000 A 
ATOM     28  C   UNL     1      -0.867  11.967  22.679  0.00  0.00    +0.000 A 
ATOM     29  C   UNL     1      -2.149  11.834  23.226  0.00  0.00    +0.000 A 
BRANCH  24  31
ATOM     30  C   UNL     1      -4.635  12.434  24.516  0.00  0.00    +0.000 C 
ATOM     31  O   UNL     1      -4.517  12.463  23.099  0.00  0.00    +0.000 OA
ENDBRANCH  24  31
ENDBRANCH  23  27
BRANCH  23  32
ATOM     32  N   UNL     1       0.993  14.449  20.697  0.00  0.00    +0.000 NA
ATOM     33  C   UNL     1       1.687  15.106  21.817  0.00  0.00    +0.000 C 
ATOM     34  C   UNL     1       1.791  14.675  19.482  0.00  0.00    +0.000 C 
ENDBRANCH  23  32
ENDBRANCH  22  23
ENDBRANCH  20  22
ENDBRANCH   1  20
TORSDOF 9
ENDMDL
MODEL 6
REMARK VINA RESULT:      -7.3      3.082      9.492
REMARK  Name = 
REMARK  13 active torsions:
REMARK  status: ('A' for Active; 'I' for Inactive)
REMARK    1  A    between atoms: C_1  and  O_2
REMARK    2  A    between atoms: O_2  and  C_3
REMARK    3  A    between atoms: C_6  and  C_7
REMARK    4  A    between atoms: C_7  and  C_8
REMARK    5  A    between atoms: C_7  and  N_29
REMARK    6  A    between atoms: C_8  and  N_9
REMARK    7  A    between atoms: N_9  and  C_10
REMARK    8  A    between atoms: C_13  and  S_14
REMARK    9  A    between atoms: S_14  and  N_17
REMARK   10  A    between atoms: N_20  and  C_21
REMARK   11  A    between atoms: C_25  and  N_26
REMARK   12  A    between atoms: N_29  and  C_30
REMARK   13  A    between atoms: N_29  and  C_31
REMARK                            x       y       z     vdW  Elec       q    Type
REMARK                         _______ _______ _______ _____ _____    ______ ____
ROOT
ATOM      1  C   UNL     1       1.017   9.315  19.240  0.00  0.00    +0.000 A 
ATOM      2  C   UNL     1       1.514   9.086  17.950  0.00  0.00    +0.000 A 
ATOM      3  C   UNL     1       2.383   8.025  17.663  0.00  0.00    +0.000 A 
ATOM      4  C   UNL     1       2.734   7.116  18.666  0.00  0.00    +0.000 A 
ATOM      5  C   UNL     1       2.240   7.282  19.958  0.00  0.00    +0.000 A 
ATOM      6  C   UNL     1       1.381   8.367  20.222  0.00  0.00    +0.000 A 
ENDROOT
BRANCH   4   7
ATOM      7  S   UNL     1       3.944   5.858  18.304  0.00  0.00    +0.000 S 
ATOM      8  O   UNL     1       4.497   6.185  17.006  0.00  0.00    +0.000 OA
ATOM      9  O   UNL     1       4.797   5.760  19.469  0.00  0.00    +0.000 OA
BRANCH   7  10
ATOM     10  N   UNL     1       3.079   4.428  18.149  0.00  0.00    +0.000 NA
ATOM     11  C   UNL     1       1.606   4.417  18.289  0.00  0.00    +0.000 C 
ATOM     12  C   UNL     1       1.178   3.986  19.705  0.00  0.00    +0.000 C 
ATOM     13  N   UNL     1       1.800   2.733  20.177  0.00  0.00    +0.000 NA
ATOM     14  C   UNL     1       1.510   2.531  21.599  0.00  0.00    +0.000 C 
ATOM     15  C   UNL     1       3.258   2.709  19.950  0.00  0.00    +0.000 C 
ATOM     16  C   UNL     1       3.685   3.135  18.538  0.00  0.00    +0.000 C 
ENDBRANCH   7  10
ENDBRANCH   4   7
BRANCH   6  17
ATOM     17  N   UNL     1       0.839   8.466  21.573  0.00  0.00    +0.000 N 
ATOM     18  O   UNL     1       1.606   8.843  22.472  0.00  0.00    +0.000 OA
ATOM     19  O   UNL     1      -0.343   8.131  21.730  0.00  0.00    +0.000 OA
ENDBRANCH   6  17
BRANCH   1  20
ATOM     20  N   UNL     1       0.143  10.367  19.507  0.00  0.00    +0.000 N 
ATOM     21  H   UNL     1      -0.278  10.353  20.435  0.00  0.00    +0.000 HD
BRANCH  20  22
ATOM     22  C   UNL     1       0.222  11.676  18.840  0.00  0.00    +0.000 C 
BRANCH  22  23
ATOM     23  C   UNL     1      -0.682  12.802  19.463  0.00  0.00    +0.000 C 
BRANCH  23  27
ATOM     24  C   UNL     1      -4.861  11.891  18.690  0.00  0.00    +0.000 A 
ATOM     25  C   UNL     1      -3.874  11.535  17.775  0.00  0.00    +0.000 A 
ATOM     26  C   UNL     1      -2.527  11.751  18.068  0.00  0.00    +0.000 A 
ATOM     27  C   UNL     1      -2.146  12.393  19.259  0.00  0.00    +0.000 A 
ATOM     28  C   UNL     1      -3.150  12.749  20.173  0.00  0.00    +0.000 A 
ATOM     29  C   UNL     1      -4.498  12.488  19.897  0.00  0.00    +0.000 A 
BRANCH  24  31
ATOM     30  C   UNL     1      -6.707  10.424  18.707  0.00  0.00    +0.000 C 
ATOM     31  O   UNL     1      -6.145  11.658  18.279  0.00  0.00    +0.000 OA
ENDBRANCH  24  31
ENDBRANCH  23  27
BRANCH  23  32
ATOM     32  N   UNL     1      -0.361  14.159  18.908  0.00  0.00    +0.000 NA
ATOM     33  C   UNL     1      -0.753  15.238  19.829  0.00  0.00    +0.000 C 
ATOM     34  C   UNL     1       1.071  14.323  18.610  0.00  0.00    +0.000 C 
ENDBRANCH  23  32
ENDBRANCH  22  23
ENDBRANCH  20  22
ENDBRANCH   1  20
TORSDOF 9
ENDMDL
MODEL 7
REMARK VINA RESULT:      -7.3      3.077      9.707
REMARK  Name = 
REMARK  13 active torsions:
REMARK  status: ('A' for Active; 'I' for Inactive)
REMARK    1  A    between atoms: C_1  and  O_2
REMARK    2  A    between atoms: O_2  and  C_3
REMARK    3  A    between atoms: C_6  and  C_7
REMARK    4  A    between atoms: C_7  and  C_8
REMARK    5  A    between atoms: C_7  and  N_29
REMARK    6  A    between atoms: C_8  and  N_9
REMARK    7  A    between atoms: N_9  and  C_10
REMARK    8  A    between atoms: C_13  and  S_14
REMARK    9  A    between atoms: S_14  and  N_17
REMARK   10  A    between atoms: N_20  and  C_21
REMARK   11  A    between atoms: C_25  and  N_26
REMARK   12  A    between atoms: N_29  and  C_30
REMARK   13  A    between atoms: N_29  and  C_31
REMARK                            x       y       z     vdW  Elec       q    Type
REMARK                         _______ _______ _______ _____ _____    ______ ____
ROOT
ATOM      1  C   UNL     1       1.317   9.426  19.094  0.00  0.00    +0.000 A 
ATOM      2  C   UNL     1       1.845   9.129  17.830  0.00  0.00    +0.000 A 
ATOM      3  C   UNL     1       2.616   7.984  17.593  0.00  0.00    +0.000 A 
ATOM      4  C   UNL     1       2.832   7.059  18.620  0.00  0.00    +0.000 A 
ATOM      5  C   UNL     1       2.301   7.292  19.887  0.00  0.00    +0.000 A 
ATOM      6  C   UNL     1       1.543   8.461  20.101  0.00  0.00    +0.000 A 
ENDROOT
BRANCH   4   7
ATOM      7  S   UNL     1       3.925   5.684  18.326  0.00  0.00    +0.000 S 
ATOM      8  O   UNL     1       4.527   5.910  17.027  0.00  0.00    +0.000 OA
ATOM      9  O   UNL     1       4.747   5.550  19.509  0.00  0.00    +0.000 OA
BRANCH   7  10
ATOM     10  N   UNL     1       2.934   4.334  18.204  0.00  0.00    +0.000 NA
ATOM     11  C   UNL     1       1.481   4.438  18.462  0.00  0.00    +0.000 C 
ATOM     12  C   UNL     1       1.132   3.998  19.897  0.00  0.00    +0.000 C 
ATOM     13  N   UNL     1       1.682   2.684  20.284  0.00  0.00    +0.000 NA
ATOM     14  C   UNL     1       1.489   2.459  21.719  0.00  0.00    +0.000 C 
ATOM     15  C   UNL     1       3.110   2.548  19.939  0.00  0.00    +0.000 C 
ATOM     16  C   UNL     1       3.458   2.985  18.508  0.00  0.00    +0.000 C 
ENDBRANCH   7  10
ENDBRANCH   4   7
BRANCH   6  17
ATOM     17  N   UNL     1       0.956   8.632  21.426  0.00  0.00    +0.000 N 
ATOM     18  O   UNL     1      -0.182   8.174  21.613  0.00  0.00    +0.000 OA
ATOM     19  O   UNL     1       1.626   9.257  22.260  0.00  0.00    +0.000 OA
ENDBRANCH   6  17
BRANCH   1  20
ATOM     20  N   UNL     1       0.542  10.562  19.311  0.00  0.00    +0.000 N 
ATOM     21  H   UNL     1       1.033  11.448  19.197  0.00  0.00    +0.000 HD
BRANCH  20  22
ATOM     22  C   UNL     1      -0.918  10.593  19.139  0.00  0.00    +0.000 C 
BRANCH  22  23
ATOM     23  C   UNL     1      -1.648  11.814  19.809  0.00  0.00    +0.000 C 
BRANCH  23  27
ATOM     24  C   UNL     1      -5.594  12.038  17.998  0.00  0.00    +0.000 A 
ATOM     25  C   UNL     1      -5.379  12.492  19.297  0.00  0.00    +0.000 A 
ATOM     26  C   UNL     1      -4.094  12.499  19.842  0.00  0.00    +0.000 A 
ATOM     27  C   UNL     1      -3.006  11.985  19.116  0.00  0.00    +0.000 A 
ATOM     28  C   UNL     1      -3.234  11.528  17.809  0.00  0.00    +0.000 A 
ATOM     29  C   UNL     1      -4.516  11.567  17.248  0.00  0.00    +0.000 A 
BRANCH  24  31
ATOM     30  C   UNL     1      -7.643  13.204  17.962  0.00  0.00    +0.000 C 
ATOM     31  O   UNL     1      -6.898  12.052  17.586  0.00  0.00    +0.000 OA
ENDBRANCH  24  31
ENDBRANCH  23  27
BRANCH  23  32
ATOM     32  N   UNL     1      -0.809  13.058  19.787  0.00  0.00    +0.000 NA
ATOM     33  C   UNL     1      -0.610  13.565  18.419  0.00  0.00    +0.000 C 
ATOM     34  C   UNL     1      -1.391  14.147  20.587  0.00  0.00    +0.000 C 
ENDBRANCH  23  32
ENDBRANCH  22  23
ENDBRANCH  20  22
ENDBRANCH   1  20
TORSDOF 9
ENDMDL
MODEL 8
REMARK VINA RESULT:      -7.2      3.078      3.720
REMARK  Name = 
REMARK  13 active torsions:
REMARK  status: ('A' for Active; 'I' for Inactive)
REMARK    1  A    between atoms: C_1  and  O_2
REMARK    2  A    between atoms: O_2  and  C_3
REMARK    3  A    between atoms: C_6  and  C_7
REMARK    4  A    between atoms: C_7  and  C_8
REMARK    5  A    between atoms: C_7  and  N_29
REMARK    6  A    between atoms: C_8  and  N_9
REMARK    7  A    between atoms: N_9  and  C_10
REMARK    8  A    between atoms: C_13  and  S_14
REMARK    9  A    between atoms: S_14  and  N_17
REMARK   10  A    between atoms: N_20  and  C_21
REMARK   11  A    between atoms: C_25  and  N_26
REMARK   12  A    between atoms: N_29  and  C_30
REMARK   13  A    between atoms: N_29  and  C_31
REMARK                            x       y       z     vdW  Elec       q    Type
REMARK                         _______ _______ _______ _____ _____    ______ ____
ROOT
ATOM      1  C   UNL     1       1.600   8.385  20.445  0.00  0.00    +0.000 A 
ATOM      2  C   UNL     1       1.002   8.348  21.712  0.00  0.00    +0.000 A 
ATOM      3  C   UNL     1       0.114   9.340  22.147  0.00  0.00    +0.000 A 
ATOM      4  C   UNL     1      -0.250  10.381  21.286  0.00  0.00    +0.000 A 
ATOM      5  C   UNL     1       0.292  10.444  20.004  0.00  0.00    +0.000 A 
ATOM      6  C   UNL     1       1.196   9.441  19.599  0.00  0.00    +0.000 A 
ENDROOT
BRANCH   4   7
ATOM      7  S   UNL     1      -1.275  11.698  21.911  0.00  0.00    +0.000 S 
ATOM      8  O   UNL     1      -2.164  12.072  20.830  0.00  0.00    +0.000 OA
ATOM      9  O   UNL     1      -1.802  11.244  23.180  0.00  0.00    +0.000 OA
BRANCH   7  10
ATOM     10  N   UNL     1      -0.236  12.987  22.191  0.00  0.00    +0.000 NA
ATOM     11  C   UNL     1      -0.698  14.180  22.935  0.00  0.00    +0.000 C 
ATOM     12  C   UNL     1      -1.110  15.315  21.978  0.00  0.00    +0.000 C 
ATOM     13  N   UNL     1      -0.102  15.644  20.950  0.00  0.00    +0.000 NA
ATOM     14  C   UNL     1      -0.671  16.566  19.963  0.00  0.00    +0.000 C 
ATOM     15  C   UNL     1       0.425  14.442  20.275  0.00  0.00    +0.000 C 
ATOM     16  C   UNL     1       0.839  13.312  21.229  0.00  0.00    +0.000 C 
ENDBRANCH   7  10
ENDBRANCH   4   7
BRANCH   6  17
ATOM     17  N   UNL     1       1.691   9.514  18.229  0.00  0.00    +0.000 N 
ATOM     18  O   UNL     1       2.241  10.567  17.873  0.00  0.00    +0.000 OA
ATOM     19  O   UNL     1       1.492   8.526  17.507  0.00  0.00    +0.000 OA
ENDBRANCH   6  17
BRANCH   1  20
ATOM     20  N   UNL     1       2.472   7.383  20.023  0.00  0.00    +0.000 N 
ATOM     21  H   UNL     1       3.446   7.515  20.294  0.00  0.00    +0.000 HD
BRANCH  20  22
ATOM     22  C   UNL     1       2.048   6.002  19.748  0.00  0.00    +0.000 C 
BRANCH  22  23
ATOM     23  C   UNL     1       3.181   4.917  19.862  0.00  0.00    +0.000 C 
BRANCH  23  27
ATOM     24  C   UNL     1       6.295   5.652  16.920  0.00  0.00    +0.000 A 
ATOM     25  C   UNL     1       4.955   5.597  16.541  0.00  0.00    +0.000 A 
ATOM     26  C   UNL     1       3.954   5.448  17.501  0.00  0.00    +0.000 A 
ATOM     27  C   UNL     1       4.281   5.283  18.858  0.00  0.00    +0.000 A 
ATOM     28  C   UNL     1       5.634   5.338  19.228  0.00  0.00    +0.000 A 
ATOM     29  C   UNL     1       6.633   5.535  18.268  0.00  0.00    +0.000 A 
BRANCH  24  31
ATOM     30  C   UNL     1       6.992   4.863  14.810  0.00  0.00    +0.000 C 
ATOM     31  O   UNL     1       7.185   5.770  15.888  0.00  0.00    +0.000 OA
ENDBRANCH  24  31
ENDBRANCH  23  27
BRANCH  23  32
ATOM     32  N   UNL     1       2.651   3.524  19.683  0.00  0.00    +0.000 NA
ATOM     33  C   UNL     1       3.163   2.603  20.712  0.00  0.00    +0.000 C 
ATOM     34  C   UNL     1       1.182   3.468  19.724  0.00  0.00    +0.000 C 
ENDBRANCH  23  32
ENDBRANCH  22  23
ENDBRANCH  20  22
ENDBRANCH   1  20
TORSDOF 9
ENDMDL
MODEL 9
REMARK VINA RESULT:      -7.2      3.229      9.822
REMARK  Name = 
REMARK  13 active torsions:
REMARK  status: ('A' for Active; 'I' for Inactive)
REMARK    1  A    between atoms: C_1  and  O_2
REMARK    2  A    between atoms: O_2  and  C_3
REMARK    3  A    between atoms: C_6  and  C_7
REMARK    4  A    between atoms: C_7  and  C_8
REMARK    5  A    between atoms: C_7  and  N_29
REMARK    6  A    between atoms: C_8  and  N_9
REMARK    7  A    between atoms: N_9  and  C_10
REMARK    8  A    between atoms: C_13  and  S_14
REMARK    9  A    between atoms: S_14  and  N_17
REMARK   10  A    between atoms: N_20  and  C_21
REMARK   11  A    between atoms: C_25  and  N_26
REMARK   12  A    between atoms: N_29  and  C_30
REMARK   13  A    between atoms: N_29  and  C_31
REMARK                            x       y       z     vdW  Elec       q    Type
REMARK                         _______ _______ _______ _____ _____    ______ ____
ROOT
ATOM      1  C   UNL     1       1.001   9.551  19.245  0.00  0.00    +0.000 A 
ATOM      2  C   UNL     1       1.444   9.173  17.970  0.00  0.00    +0.000 A 
ATOM      3  C   UNL     1       2.206   8.018  17.757  0.00  0.00    +0.000 A 
ATOM      4  C   UNL     1       2.499   7.164  18.825  0.00  0.00    +0.000 A 
ATOM      5  C   UNL     1       2.053   7.478  20.108  0.00  0.00    +0.000 A 
ATOM      6  C   UNL     1       1.302   8.656  20.295  0.00  0.00    +0.000 A 
ENDROOT
BRANCH   4   7
ATOM      7  S   UNL     1       3.580   5.775  18.549  0.00  0.00    +0.000 S 
ATOM      8  O   UNL     1       3.943   5.273  19.859  0.00  0.00    +0.000 OA
ATOM      9  O   UNL     1       2.918   4.922  17.585  0.00  0.00    +0.000 OA
BRANCH   7  10
ATOM     10  N   UNL     1       4.964   6.411  17.842  0.00  0.00    +0.000 NA
ATOM     11  C   UNL     1       4.904   7.052  16.509  0.00  0.00    +0.000 C 
ATOM     12  C   UNL     1       5.338   6.077  15.397  0.00  0.00    +0.000 C 
ATOM     13  N   UNL     1       6.628   5.403  15.644  0.00  0.00    +0.000 NA
ATOM     14  C   UNL     1       6.840   4.344  14.654  0.00  0.00    +0.000 C 
ATOM     15  C   UNL     1       6.720   4.846  17.007  0.00  0.00    +0.000 C 
ATOM     16  C   UNL     1       6.291   5.818  18.116  0.00  0.00    +0.000 C 
ENDBRANCH   7  10
ENDBRANCH   4   7
BRANCH   6  17
ATOM     17  N   UNL     1       0.805   8.913  21.643  0.00  0.00    +0.000 N 
ATOM     18  O   UNL     1       1.627   9.274  22.498  0.00  0.00    +0.000 OA
ATOM     19  O   UNL     1      -0.402   8.717  21.843  0.00  0.00    +0.000 OA
ENDBRANCH   6  17
BRANCH   1  20
ATOM     20  N   UNL     1       0.233  10.697  19.438  0.00  0.00    +0.000 N 
ATOM     21  H   UNL     1      -0.719  10.529  19.762  0.00  0.00    +0.000 HD
BRANCH  20  22
ATOM     22  C   UNL     1       0.807  12.016  19.742  0.00  0.00    +0.000 C 
BRANCH  22  23
ATOM     23  C   UNL     1       0.732  12.450  21.252  0.00  0.00    +0.000 C 
BRANCH  23  27
ATOM     24  C   UNL     1      -3.495  12.502  22.268  0.00  0.00    +0.000 A 
ATOM     25  C   UNL     1      -2.545  12.074  23.192  0.00  0.00    +0.000 A 
ATOM     26  C   UNL     1      -1.184  12.142  22.892  0.00  0.00    +0.000 A 
ATOM     27  C   UNL     1      -0.750  12.578  21.629  0.00  0.00    +0.000 A 
ATOM     28  C   UNL     1      -1.716  13.005  20.704  0.00  0.00    +0.000 A 
ATOM     29  C   UNL     1      -3.078  12.981  21.026  0.00  0.00    +0.000 A 
BRANCH  24  31
ATOM     30  C   UNL     1      -5.742  13.137  21.941  0.00  0.00    +0.000 C 
ATOM     31  O   UNL     1      -4.796  12.359  22.664  0.00  0.00    +0.000 OA
ENDBRANCH  24  31
ENDBRANCH  23  27
BRANCH  23  32
ATOM     32  N   UNL     1       1.524  13.695  21.525  0.00  0.00    +0.000 NA
ATOM     33  C   UNL     1       2.785  13.724  20.765  0.00  0.00    +0.000 C 
ATOM     34  C   UNL     1       0.779  14.921  21.200  0.00  0.00    +0.000 C 
ENDBRANCH  23  32
ENDBRANCH  22  23
ENDBRANCH  20  22
ENDBRANCH   1  20
TORSDOF 9
ENDMDL
