MODEL 1
REMARK VINA RESULT:      -8.8      0.000      0.000
REMARK  Name = 
REMARK  5 active torsions:
REMARK  status: ('A' for Active; 'I' for Inactive)
REMARK    1  A    between atoms: C_1  and  S_2
REMARK    2  A    between atoms: S_2  and  N_5
REMARK    3  A    between atoms: N_5  and  C_6
REMARK    4  A    between atoms: C_10  and  N_11
REMARK    5  A    between atoms: N_11  and  C_12
REMARK                            x       y       z     vdW  Elec       q    Type
REMARK                         _______ _______ _______ _____ _____    ______ ____
ROOT
ATOM      1  C   UNL     1       5.218   5.918  15.697  0.00  0.00    +0.000 A 
ATOM      2  C   UNL     1       5.177   7.051  16.489  0.00  0.00    +0.000 A 
ATOM      3  C   UNL     1       4.542   6.995  17.723  0.00  0.00    +0.000 A 
ATOM      4  C   UNL     1       3.850   5.839  18.154  0.00  0.00    +0.000 A 
ATOM      5  C   UNL     1       3.043   5.786  19.323  0.00  0.00    +0.000 A 
ATOM      6  C   UNL     1       2.446   4.543  19.705  0.00  0.00    +0.000 A 
ATOM      7  C   UNL     1       1.588   4.375  20.824  0.00  0.00    +0.000 A 
ATOM      8  C   UNL     1       1.060   3.123  21.158  0.00  0.00    +0.000 A 
ATOM      9  C   UNL     1       1.384   2.021  20.384  0.00  0.00    +0.000 A 
ATOM     10  C   UNL     1       2.202   2.187  19.264  0.00  0.00    +0.000 A 
ATOM     11  C   UNL     1       2.720   3.426  18.896  0.00  0.00    +0.000 A 
ATOM     12  N   UNL     1       3.445   3.496  17.768  0.00  0.00    +0.000 NA
ATOM     13  C   UNL     1       3.978   4.669  17.383  0.00  0.00    +0.000 A 
ATOM     14  C   UNL     1       4.671   4.725  16.173  0.00  0.00    +0.000 A 
ENDROOT
BRANCH   1  15
ATOM     15  N   UNL     1       5.874   5.998  14.433  0.00  0.00    +0.000 N 
ATOM     16  H   UNL     1       5.267   5.985  13.612  0.00  0.00    +0.000 HD
BRANCH  15  18
ATOM     17  C   UNL     1       6.512   3.670  13.206  0.00  0.00    +0.000 C 
ATOM     18  S   UNL     1       7.211   4.999  14.172  0.00  0.00    +0.000 S 
ATOM     19  O   UNL     1       7.547   4.458  15.470  0.00  0.00    +0.000 OA
ATOM     20  O   UNL     1       8.192   5.697  13.373  0.00  0.00    +0.000 OA
ENDBRANCH  15  18
ENDBRANCH   1  15
BRANCH   5  21
ATOM     21  N   UNL     1       2.793   6.942  20.123  0.00  0.00    +0.000 N 
ATOM     22  H   UNL     1       3.497   7.083  20.840  0.00  0.00    +0.000 HD
BRANCH  21  23
ATOM     23  C   UNL     1       1.819   7.956  20.035  0.00  0.00    +0.000 A 
ATOM     24  C   UNL     1       1.641   8.743  18.889  0.00  0.00    +0.000 A 
ATOM     25  C   UNL     1       0.693   9.771  18.850  0.00  0.00    +0.000 A 
ATOM     26  C   UNL     1      -0.123  10.005  19.951  0.00  0.00    +0.000 A 
ATOM     27  C   UNL     1       0.029   9.232  21.098  0.00  0.00    +0.000 A 
ATOM     28  C   UNL     1       1.000   8.225  21.143  0.00  0.00    +0.000 A 
ENDBRANCH  21  23
ENDBRANCH   5  21
TORSDOF 4
ENDMDL
MODEL 2
REMARK VINA RESULT:      -8.2      4.398      6.990
REMARK  Name = 
REMARK  5 active torsions:
REMARK  status: ('A' for Active; 'I' for Inactive)
REMARK    1  A    between atoms: C_1  and  S_2
REMARK    2  A    between atoms: S_2  and  N_5
REMARK    3  A    between atoms: N_5  and  C_6
REMARK    4  A    between atoms: C_10  and  N_11
REMARK    5  A    between atoms: N_11  and  C_12
REMARK                            x       y       z     vdW  Elec       q    Type
REMARK                         _______ _______ _______ _____ _____    ______ ____
ROOT
ATOM      1  C   UNL     1       1.228   9.661  19.648  0.00  0.00    +0.000 A 
ATOM      2  C   UNL     1       1.723   9.532  18.363  0.00  0.00    +0.000 A 
ATOM      3  C   UNL     1       2.186   8.296  17.933  0.00  0.00    +0.000 A 
ATOM      4  C   UNL     1       2.258   7.183  18.803  0.00  0.00    +0.000 A 
ATOM      5  C   UNL     1       2.881   5.950  18.467  0.00  0.00    +0.000 A 
ATOM      6  C   UNL     1       2.832   4.865  19.397  0.00  0.00    +0.000 A 
ATOM      7  C   UNL     1       3.451   3.603  19.193  0.00  0.00    +0.000 A 
ATOM      8  C   UNL     1       3.340   2.574  20.134  0.00  0.00    +0.000 A 
ATOM      9  C   UNL     1       2.606   2.786  21.289  0.00  0.00    +0.000 A 
ATOM     10  C   UNL     1       2.021   4.035  21.510  0.00  0.00    +0.000 A 
ATOM     11  C   UNL     1       2.137   5.084  20.601  0.00  0.00    +0.000 A 
ATOM     12  N   UNL     1       1.594   6.266  20.929  0.00  0.00    +0.000 NA
ATOM     13  C   UNL     1       1.668   7.302  20.075  0.00  0.00    +0.000 A 
ATOM     14  C   UNL     1       1.151   8.536  20.472  0.00  0.00    +0.000 A 
ENDROOT
BRANCH   1  15
ATOM     15  N   UNL     1       0.758  10.940  20.069  0.00  0.00    +0.000 N 
ATOM     16  H   UNL     1       0.939  11.184  21.045  0.00  0.00    +0.000 HD
BRANCH  15  18
ATOM     17  C   UNL     1      -0.546  12.715  18.495  0.00  0.00    +0.000 C 
ATOM     18  S   UNL     1      -0.818  11.380  19.650  0.00  0.00    +0.000 S 
ATOM     19  O   UNL     1      -1.388  11.955  20.848  0.00  0.00    +0.000 OA
ATOM     20  O   UNL     1      -1.463  10.286  18.962  0.00  0.00    +0.000 OA
ENDBRANCH  15  18
ENDBRANCH   1  15
BRANCH   5  21
ATOM     21  N   UNL     1       3.571   5.764  17.231  0.00  0.00    +0.000 N 
ATOM     22  H   UNL     1       3.005   6.006  16.425  0.00  0.00    +0.000 HD
BRANCH  21  23
ATOM     23  C   UNL     1       4.902   5.405  16.940  0.00  0.00    +0.000 A 
ATOM     24  C   UNL     1       6.001   5.940  17.626  0.00  0.00    +0.000 A 
ATOM     25  C   UNL     1       7.313   5.594  17.283  0.00  0.00    +0.000 A 
ATOM     26  C   UNL     1       7.546   4.674  16.267  0.00  0.00    +0.000 A 
ATOM     27  C   UNL     1       6.470   4.123  15.576  0.00  0.00    +0.000 A 
ATOM     28  C   UNL     1       5.161   4.496  15.903  0.00  0.00    +0.000 A 
ENDBRANCH  21  23
ENDBRANCH   5  21
TORSDOF 4
ENDMDL
MODEL 3
REMARK VINA RESULT:      -8.2      3.591      6.157
REMARK  Name = 
REMARK  5 active torsions:
REMARK  status: ('A' for Active; 'I' for Inactive)
REMARK    1  A    between atoms: C_1  and  S_2
REMARK    2  A    between atoms: S_2  and  N_5
REMARK    3  A    between atoms: N_5  and  C_6
REMARK    4  A    between atoms: C_10  and  N_11
REMARK    5  A    between atoms: N_11  and  C_12
REMARK                            x       y       z     vdW  Elec       q    Type
REMARK                         _______ _______ _______ _____ _____    ______ ____
ROOT
ATOM      1  C   UNL     1       2.735   6.705  18.616  0.00  0.00    +0.000 A 
ATOM      2  C   UNL     1       2.828   7.744  17.709  0.00  0.00    +0.000 A 
ATOM      3  C   UNL     1       2.261   8.972  18.022  0.00  0.00    +0.000 A 
ATOM      4  C   UNL     1       1.504   9.166  19.202  0.00  0.00    +0.000 A 
ATOM      5  C   UNL     1       0.762  10.345  19.485  0.00  0.00    +0.000 A 
ATOM      6  C   UNL     1       0.091  10.463  20.743  0.00  0.00    +0.000 A 
ATOM      7  C   UNL     1      -0.714  11.569  21.123  0.00  0.00    +0.000 A 
ATOM      8  C   UNL     1      -1.320  11.633  22.383  0.00  0.00    +0.000 A 
ATOM      9  C   UNL     1      -1.128  10.598  23.282  0.00  0.00    +0.000 A 
ATOM     10  C   UNL     1      -0.363   9.493  22.902  0.00  0.00    +0.000 A 
ATOM     11  C   UNL     1       0.230   9.393  21.646  0.00  0.00    +0.000 A 
ATOM     12  N   UNL     1       0.894   8.265  21.350  0.00  0.00    +0.000 NA
ATOM     13  C   UNL     1       1.496   8.131  20.155  0.00  0.00    +0.000 A 
ATOM     14  C   UNL     1       2.122   6.922  19.852  0.00  0.00    +0.000 A 
ENDROOT
BRANCH   1  15
ATOM     15  N   UNL     1       3.324   5.452  18.274  0.00  0.00    +0.000 N 
ATOM     16  H   UNL     1       3.903   5.445  17.433  0.00  0.00    +0.000 HD
BRANCH  15  18
ATOM     17  C   UNL     1       3.361   2.859  17.497  0.00  0.00    +0.000 C 
ATOM     18  S   UNL     1       2.338   4.080  18.303  0.00  0.00    +0.000 S 
ATOM     19  O   UNL     1       1.238   4.378  17.414  0.00  0.00    +0.000 OA
ATOM     20  O   UNL     1       2.109   3.674  19.671  0.00  0.00    +0.000 OA
ENDBRANCH  15  18
ENDBRANCH   1  15
BRANCH   5  21
ATOM     21  N   UNL     1       0.650  11.412  18.545  0.00  0.00    +0.000 N 
ATOM     22  H   UNL     1      -0.039  11.230  17.823  0.00  0.00    +0.000 HD
BRANCH  21  23
ATOM     23  C   UNL     1       1.241  12.690  18.495  0.00  0.00    +0.000 A 
ATOM     24  C   UNL     1       2.603  12.888  18.229  0.00  0.00    +0.000 A 
ATOM     25  C   UNL     1       3.167  14.169  18.229  0.00  0.00    +0.000 A 
ATOM     26  C   UNL     1       2.367  15.281  18.459  0.00  0.00    +0.000 A 
ATOM     27  C   UNL     1       1.009  15.111  18.718  0.00  0.00    +0.000 A 
ATOM     28  C   UNL     1       0.456  13.826  18.748  0.00  0.00    +0.000 A 
ENDBRANCH  21  23
ENDBRANCH   5  21
TORSDOF 4
ENDMDL
MODEL 4
REMARK VINA RESULT:      -8.2      1.179      1.588
REMARK  Name = 
REMARK  5 active torsions:
REMARK  status: ('A' for Active; 'I' for Inactive)
REMARK    1  A    between atoms: C_1  and  S_2
REMARK    2  A    between atoms: S_2  and  N_5
REMARK    3  A    between atoms: N_5  and  C_6
REMARK    4  A    between atoms: C_10  and  N_11
REMARK    5  A    between atoms: N_11  and  C_12
REMARK                            x       y       z     vdW  Elec       q    Type
REMARK                         _______ _______ _______ _____ _____    ______ ____
ROOT
ATOM      1  C   UNL     1       6.555   4.874  16.380  0.00  0.00    +0.000 A 
ATOM      2  C   UNL     1       6.505   6.002  17.179  0.00  0.00    +0.000 A 
ATOM      3  C   UNL     1       5.516   6.106  18.147  0.00  0.00    +0.000 A 
ATOM      4  C   UNL     1       4.494   5.136  18.277  0.00  0.00    +0.000 A 
ATOM      5  C   UNL     1       3.366   5.280  19.130  0.00  0.00    +0.000 A 
ATOM      6  C   UNL     1       2.430   4.204  19.239  0.00  0.00    +0.000 A 
ATOM      7  C   UNL     1       1.246   4.245  20.021  0.00  0.00    +0.000 A 
ATOM      8  C   UNL     1       0.387   3.144  20.105  0.00  0.00    +0.000 A 
ATOM      9  C   UNL     1       0.698   1.985  19.414  0.00  0.00    +0.000 A 
ATOM     10  C   UNL     1       1.845   1.950  18.618  0.00  0.00    +0.000 A 
ATOM     11  C   UNL     1       2.703   3.040  18.498  0.00  0.00    +0.000 A 
ATOM     12  N   UNL     1       3.746   2.932  17.659  0.00  0.00    +0.000 NA
ATOM     13  C   UNL     1       4.610   3.954  17.524  0.00  0.00    +0.000 A 
ATOM     14  C   UNL     1       5.646   3.837  16.596  0.00  0.00    +0.000 A 
ENDROOT
BRANCH   1  15
ATOM     15  N   UNL     1       7.580   4.788  15.392  0.00  0.00    +0.000 N 
ATOM     16  H   UNL     1       8.487   5.179  15.653  0.00  0.00    +0.000 HD
BRANCH  15  18
ATOM     17  C   UNL     1       6.835   3.668  13.043  0.00  0.00    +0.000 C 
ATOM     18  S   UNL     1       7.194   5.240  13.811  0.00  0.00    +0.000 S 
ATOM     19  O   UNL     1       8.428   5.728  13.238  0.00  0.00    +0.000 OA
ATOM     20  O   UNL     1       5.995   6.047  13.813  0.00  0.00    +0.000 OA
ENDBRANCH  15  18
ENDBRANCH   1  15
BRANCH   5  21
ATOM     21  N   UNL     1       3.126   6.475  19.872  0.00  0.00    +0.000 N 
ATOM     22  H   UNL     1       3.704   6.545  20.703  0.00  0.00    +0.000 HD
BRANCH  21  23
ATOM     23  C   UNL     1       2.317   7.600  19.612  0.00  0.00    +0.000 A 
ATOM     24  C   UNL     1       1.523   8.209  20.594  0.00  0.00    +0.000 A 
ATOM     25  C   UNL     1       0.699   9.298  20.292  0.00  0.00    +0.000 A 
ATOM     26  C   UNL     1       0.684   9.823  19.005  0.00  0.00    +0.000 A 
ATOM     27  C   UNL     1       1.470   9.241  18.015  0.00  0.00    +0.000 A 
ATOM     28  C   UNL     1       2.270   8.132  18.314  0.00  0.00    +0.000 A 
ENDBRANCH  21  23
ENDBRANCH   5  21
TORSDOF 4
ENDMDL
MODEL 5
REMARK VINA RESULT:      -8.2      3.535      6.256
REMARK  Name = 
REMARK  5 active torsions:
REMARK  status: ('A' for Active; 'I' for Inactive)
REMARK    1  A    between atoms: C_1  and  S_2
REMARK    2  A    between atoms: S_2  and  N_5
REMARK    3  A    between atoms: N_5  and  C_6
REMARK    4  A    between atoms: C_10  and  N_11
REMARK    5  A    between atoms: N_11  and  C_12
REMARK                            x       y       z     vdW  Elec       q    Type
REMARK                         _______ _______ _______ _____ _____    ______ ____
ROOT
ATOM      1  C   UNL     1       2.667   6.996  18.684  0.00  0.00    +0.000 A 
ATOM      2  C   UNL     1       2.321   7.797  17.612  0.00  0.00    +0.000 A 
ATOM      3  C   UNL     1       1.519   8.910  17.826  0.00  0.00    +0.000 A 
ATOM      4  C   UNL     1       0.962   9.195  19.095  0.00  0.00    +0.000 A 
ATOM      5  C   UNL     1       0.001  10.215  19.330  0.00  0.00    +0.000 A 
ATOM      6  C   UNL     1      -0.441  10.466  20.667  0.00  0.00    +0.000 A 
ATOM      7  C   UNL     1      -1.426  11.425  21.022  0.00  0.00    +0.000 A 
ATOM      8  C   UNL     1      -1.791  11.639  22.355  0.00  0.00    +0.000 A 
ATOM      9  C   UNL     1      -1.177  10.902  23.354  0.00  0.00    +0.000 A 
ATOM     10  C   UNL     1      -0.231   9.934  23.009  0.00  0.00    +0.000 A 
ATOM     11  C   UNL     1       0.133   9.685  21.688  0.00  0.00    +0.000 A 
ATOM     12  N   UNL     1       1.004   8.693  21.450  0.00  0.00    +0.000 NA
ATOM     13  C   UNL     1       1.396   8.427  20.191  0.00  0.00    +0.000 A 
ATOM     14  C   UNL     1       2.252   7.347  19.970  0.00  0.00    +0.000 A 
ENDROOT
BRANCH   1  15
ATOM     15  N   UNL     1       3.492   5.858  18.441  0.00  0.00    +0.000 N 
ATOM     16  H   UNL     1       4.094   5.909  17.618  0.00  0.00    +0.000 HD
BRANCH  15  18
ATOM     17  C   UNL     1       3.907   3.323  17.586  0.00  0.00    +0.000 C 
ATOM     18  S   UNL     1       2.780   4.329  18.537  0.00  0.00    +0.000 S 
ATOM     19  O   UNL     1       1.550   4.430  17.783  0.00  0.00    +0.000 OA
ATOM     20  O   UNL     1       2.784   3.874  19.908  0.00  0.00    +0.000 OA
ENDBRANCH  15  18
ENDBRANCH   1  15
BRANCH   5  21
ATOM     21  N   UNL     1      -0.553  10.991  18.268  0.00  0.00    +0.000 N 
ATOM     22  H   UNL     1       0.071  11.724  17.949  0.00  0.00    +0.000 HD
BRANCH  21  23
ATOM     23  C   UNL     1      -1.748  10.864  17.532  0.00  0.00    +0.000 A 
ATOM     24  C   UNL     1      -1.901   9.948  16.482  0.00  0.00    +0.000 A 
ATOM     25  C   UNL     1      -3.087   9.877  15.744  0.00  0.00    +0.000 A 
ATOM     26  C   UNL     1      -4.160  10.700  16.069  0.00  0.00    +0.000 A 
ATOM     27  C   UNL     1      -4.035  11.612  17.113  0.00  0.00    +0.000 A 
ATOM     28  C   UNL     1      -2.835  11.701  17.829  0.00  0.00    +0.000 A 
ENDBRANCH  21  23
ENDBRANCH   5  21
TORSDOF 4
ENDMDL
MODEL 6
REMARK VINA RESULT:      -8.1      4.246      6.930
REMARK  Name = 
REMARK  5 active torsions:
REMARK  status: ('A' for Active; 'I' for Inactive)
REMARK    1  A    between atoms: C_1  and  S_2
REMARK    2  A    between atoms: S_2  and  N_5
REMARK    3  A    between atoms: N_5  and  C_6
REMARK    4  A    between atoms: C_10  and  N_11
REMARK    5  A    between atoms: N_11  and  C_12
REMARK                            x       y       z     vdW  Elec       q    Type
REMARK                         _______ _______ _______ _____ _____    ______ ____
ROOT
ATOM      1  C   UNL     1       1.312   9.704  19.542  0.00  0.00    +0.000 A 
ATOM      2  C   UNL     1       1.765   9.538  18.246  0.00  0.00    +0.000 A 
ATOM      3  C   UNL     1       2.188   8.283  17.829  0.00  0.00    +0.000 A 
ATOM      4  C   UNL     1       2.261   7.186  18.719  0.00  0.00    +0.000 A 
ATOM      5  C   UNL     1       2.845   5.933  18.390  0.00  0.00    +0.000 A 
ATOM      6  C   UNL     1       2.799   4.867  19.343  0.00  0.00    +0.000 A 
ATOM      7  C   UNL     1       3.384   3.588  19.148  0.00  0.00    +0.000 A 
ATOM      8  C   UNL     1       3.277   2.581  20.112  0.00  0.00    +0.000 A 
ATOM      9  C   UNL     1       2.582   2.833  21.283  0.00  0.00    +0.000 A 
ATOM     10  C   UNL     1       2.032   4.099  21.495  0.00  0.00    +0.000 A 
ATOM     11  C   UNL     1       2.145   5.127  20.562  0.00  0.00    +0.000 A 
ATOM     12  N   UNL     1       1.638   6.328  20.881  0.00  0.00    +0.000 NA
ATOM     13  C   UNL     1       1.711   7.344  20.004  0.00  0.00    +0.000 A 
ATOM     14  C   UNL     1       1.234   8.598  20.391  0.00  0.00    +0.000 A 
ENDROOT
BRANCH   1  15
ATOM     15  N   UNL     1       0.883  11.001  19.950  0.00  0.00    +0.000 N 
ATOM     16  H   UNL     1       0.999  11.220  20.941  0.00  0.00    +0.000 HD
BRANCH  15  18
ATOM     17  C   UNL     1      -1.361  12.162  20.921  0.00  0.00    +0.000 C 
ATOM     18  S   UNL     1      -0.628  11.539  19.417  0.00  0.00    +0.000 S 
ATOM     19  O   UNL     1      -1.352  10.344  19.046  0.00  0.00    +0.000 OA
ATOM     20  O   UNL     1      -0.456  12.632  18.489  0.00  0.00    +0.000 OA
ENDBRANCH  15  18
ENDBRANCH   1  15
BRANCH   5  21
ATOM     21  N   UNL     1       3.494   5.706  17.139  0.00  0.00    +0.000 N 
ATOM     22  H   UNL     1       2.882   5.861  16.345  0.00  0.00    +0.000 HD
BRANCH  21  23
ATOM     23  C   UNL     1       4.832   5.408  16.812  0.00  0.00    +0.000 A 
ATOM     24  C   UNL     1       5.186   4.393  15.911  0.00  0.00    +0.000 A 
ATOM     25  C   UNL     1       6.526   4.094  15.641  0.00  0.00    +0.000 A 
ATOM     26  C   UNL     1       7.538   4.834  16.241  0.00  0.00    +0.000 A 
ATOM     27  C   UNL     1       7.211   5.852  17.133  0.00  0.00    +0.000 A 
ATOM     28  C   UNL     1       5.870   6.127  17.424  0.00  0.00    +0.000 A 
ENDBRANCH  21  23
ENDBRANCH   5  21
TORSDOF 4
ENDMDL
MODEL 7
REMARK VINA RESULT:      -8.0      3.595      6.753
REMARK  Name = 
REMARK  5 active torsions:
REMARK  status: ('A' for Active; 'I' for Inactive)
REMARK    1  A    between atoms: C_1  and  S_2
REMARK    2  A    between atoms: S_2  and  N_5
REMARK    3  A    between atoms: N_5  and  C_6
REMARK    4  A    between atoms: C_10  and  N_11
REMARK    5  A    between atoms: N_11  and  C_12
REMARK                            x       y       z     vdW  Elec       q    Type
REMARK                         _______ _______ _______ _____ _____    ______ ____
ROOT
ATOM      1  C   UNL     1       2.418   7.274  19.184  0.00  0.00    +0.000 A 
ATOM      2  C   UNL     1       2.134   7.977  18.028  0.00  0.00    +0.000 A 
ATOM      3  C   UNL     1       1.326   9.104  18.099  0.00  0.00    +0.000 A 
ATOM      4  C   UNL     1       0.704   9.502  19.306  0.00  0.00    +0.000 A 
ATOM      5  C   UNL     1      -0.263  10.539  19.397  0.00  0.00    +0.000 A 
ATOM      6  C   UNL     1      -0.774  10.907  20.682  0.00  0.00    +0.000 A 
ATOM      7  C   UNL     1      -1.772  11.895  20.896  0.00  0.00    +0.000 A 
ATOM      8  C   UNL     1      -2.207  12.226  22.184  0.00  0.00    +0.000 A 
ATOM      9  C   UNL     1      -1.651  11.581  23.276  0.00  0.00    +0.000 A 
ATOM     10  C   UNL     1      -0.692  10.586  23.069  0.00  0.00    +0.000 A 
ATOM     11  C   UNL     1      -0.260  10.221  21.797  0.00  0.00    +0.000 A 
ATOM     12  N   UNL     1       0.618   9.211  21.695  0.00  0.00    +0.000 NA
ATOM     13  C   UNL     1       1.075   8.834  20.488  0.00  0.00    +0.000 A 
ATOM     14  C   UNL     1       1.936   7.739  20.409  0.00  0.00    +0.000 A 
ENDROOT
BRANCH   1  15
ATOM     15  N   UNL     1       3.249   6.119  19.088  0.00  0.00    +0.000 N 
ATOM     16  H   UNL     1       4.080   6.213  18.500  0.00  0.00    +0.000 HD
BRANCH  15  18
ATOM     17  C   UNL     1       1.569   4.371  20.293  0.00  0.00    +0.000 C 
ATOM     18  S   UNL     1       2.505   4.631  18.794  0.00  0.00    +0.000 S 
ATOM     19  O   UNL     1       3.576   3.661  18.781  0.00  0.00    +0.000 OA
ATOM     20  O   UNL     1       1.590   4.755  17.683  0.00  0.00    +0.000 OA
ENDBRANCH  15  18
ENDBRANCH   1  15
BRANCH   5  21
ATOM     21  N   UNL     1      -0.756  11.218  18.243  0.00  0.00    +0.000 N 
ATOM     22  H   UNL     1      -0.124  11.939  17.911  0.00  0.00    +0.000 HD
BRANCH  21  23
ATOM     23  C   UNL     1      -1.894  11.005  17.439  0.00  0.00    +0.000 A 
ATOM     24  C   UNL     1      -3.081  11.735  17.592  0.00  0.00    +0.000 A 
ATOM     25  C   UNL     1      -4.206  11.470  16.805  0.00  0.00    +0.000 A 
ATOM     26  C   UNL     1      -4.151  10.491  15.820  0.00  0.00    +0.000 A 
ATOM     27  C   UNL     1      -2.981   9.758  15.643  0.00  0.00    +0.000 A 
ATOM     28  C   UNL     1      -1.867  10.005  16.454  0.00  0.00    +0.000 A 
ENDBRANCH  21  23
ENDBRANCH   5  21
TORSDOF 4
ENDMDL
MODEL 8
REMARK VINA RESULT:      -8.0      3.229      5.892
REMARK  Name = 
REMARK  5 active torsions:
REMARK  status: ('A' for Active; 'I' for Inactive)
REMARK    1  A    between atoms: C_1  and  S_2
REMARK    2  A    between atoms: S_2  and  N_5
REMARK    3  A    between atoms: N_5  and  C_6
REMARK    4  A    between atoms: C_10  and  N_11
REMARK    5  A    between atoms: N_11  and  C_12
REMARK                            x       y       z     vdW  Elec       q    Type
REMARK                         _______ _______ _______ _____ _____    ______ ____
ROOT
ATOM      1  C   UNL     1       2.987   6.797  18.465  0.00  0.00    +0.000 A 
ATOM      2  C   UNL     1       2.628   7.671  17.456  0.00  0.00    +0.000 A 
ATOM      3  C   UNL     1       1.834   8.769  17.757  0.00  0.00    +0.000 A 
ATOM      4  C   UNL     1       1.297   8.968  19.051  0.00  0.00    +0.000 A 
ATOM      5  C   UNL     1       0.344   9.973  19.370  0.00  0.00    +0.000 A 
ATOM      6  C   UNL     1      -0.077  10.133  20.728  0.00  0.00    +0.000 A 
ATOM      7  C   UNL     1      -1.052  11.069  21.162  0.00  0.00    +0.000 A 
ATOM      8  C   UNL     1      -1.397  11.192  22.512  0.00  0.00    +0.000 A 
ATOM      9  C   UNL     1      -0.772  10.386  23.449  0.00  0.00    +0.000 A 
ATOM     10  C   UNL     1       0.166   9.441  23.024  0.00  0.00    +0.000 A 
ATOM     11  C   UNL     1       0.508   9.282  21.684  0.00  0.00    +0.000 A 
ATOM     12  N   UNL     1       1.372   8.305  21.366  0.00  0.00    +0.000 NA
ATOM     13  C   UNL     1       1.744   8.126  20.086  0.00  0.00    +0.000 A 
ATOM     14  C   UNL     1       2.592   7.061  19.778  0.00  0.00    +0.000 A 
ENDROOT
BRANCH   1  15
ATOM     15  N   UNL     1       3.803   5.676  18.133  0.00  0.00    +0.000 N 
ATOM     16  H   UNL     1       4.268   5.714  17.223  0.00  0.00    +0.000 HD
BRANCH  15  18
ATOM     17  C   UNL     1       1.511   4.290  17.743  0.00  0.00    +0.000 C 
ATOM     18  S   UNL     1       3.168   4.131  18.387  0.00  0.00    +0.000 S 
ATOM     19  O   UNL     1       3.062   3.990  19.822  0.00  0.00    +0.000 OA
ATOM     20  O   UNL     1       3.893   3.169  17.590  0.00  0.00    +0.000 OA
ENDBRANCH  15  18
ENDBRANCH   1  15
BRANCH   5  21
ATOM     21  N   UNL     1      -0.223  10.822  18.372  0.00  0.00    +0.000 N 
ATOM     22  H   UNL     1       0.432  11.517  18.029  0.00  0.00    +0.000 HD
BRANCH  21  23
ATOM     23  C   UNL     1      -1.472  10.807  17.720  0.00  0.00    +0.000 A 
ATOM     24  C   UNL     1      -2.499  11.711  18.023  0.00  0.00    +0.000 A 
ATOM     25  C   UNL     1      -3.743  11.642  17.387  0.00  0.00    +0.000 A 
ATOM     26  C   UNL     1      -3.969  10.685  16.404  0.00  0.00    +0.000 A 
ATOM     27  C   UNL     1      -2.961   9.780  16.080  0.00  0.00    +0.000 A 
ATOM     28  C   UNL     1      -1.729   9.834  16.742  0.00  0.00    +0.000 A 
ENDBRANCH  21  23
ENDBRANCH   5  21
TORSDOF 4
ENDMDL
MODEL 9
REMARK VINA RESULT:      -8.0      3.187      5.776
REMARK  Name = 
REMARK  5 active torsions:
REMARK  status: ('A' for Active; 'I' for Inactive)
REMARK    1  A    between atoms: C_1  and  S_2
REMARK    2  A    between atoms: S_2  and  N_5
REMARK    3  A    between atoms: N_5  and  C_6
REMARK    4  A    between atoms: C_10  and  N_11
REMARK    5  A    between atoms: N_11  and  C_12
REMARK                            x       y       z     vdW  Elec       q    Type
REMARK                         _______ _______ _______ _____ _____    ______ ____
ROOT
ATOM      1  C   UNL     1       2.788   6.976  18.290  0.00  0.00    +0.000 A 
ATOM      2  C   UNL     1       2.790   8.066  17.440  0.00  0.00    +0.000 A 
ATOM      3  C   UNL     1       2.186   9.247  17.848  0.00  0.00    +0.000 A 
ATOM      4  C   UNL     1       1.481   9.341  19.071  0.00  0.00    +0.000 A 
ATOM      5  C   UNL     1       0.702  10.467  19.455  0.00  0.00    +0.000 A 
ATOM      6  C   UNL     1       0.090  10.485  20.748  0.00  0.00    +0.000 A 
ATOM      7  C   UNL     1      -0.743  11.530  21.228  0.00  0.00    +0.000 A 
ATOM      8  C   UNL     1      -1.287  11.498  22.516  0.00  0.00    +0.000 A 
ATOM      9  C   UNL     1      -1.005  10.426  23.346  0.00  0.00    +0.000 A 
ATOM     10  C   UNL     1      -0.211   9.380  22.868  0.00  0.00    +0.000 A 
ATOM     11  C   UNL     1       0.322   9.376  21.582  0.00  0.00    +0.000 A 
ATOM     12  N   UNL     1       1.020   8.298  21.192  0.00  0.00    +0.000 NA
ATOM     13  C   UNL     1       1.566   8.257  19.964  0.00  0.00    +0.000 A 
ATOM     14  C   UNL     1       2.230   7.096  19.564  0.00  0.00    +0.000 A 
ENDROOT
BRANCH   1  15
ATOM     15  N   UNL     1       3.415   5.772  17.851  0.00  0.00    +0.000 N 
ATOM     16  H   UNL     1       2.967   4.902  18.144  0.00  0.00    +0.000 HD
BRANCH  15  18
ATOM     17  C   UNL     1       5.463   4.189  17.059  0.00  0.00    +0.000 C 
ATOM     18  S   UNL     1       5.090   5.642  18.027  0.00  0.00    +0.000 S 
ATOM     19  O   UNL     1       5.306   5.304  19.415  0.00  0.00    +0.000 OA
ATOM     20  O   UNL     1       5.733   6.787  17.424  0.00  0.00    +0.000 OA
ENDBRANCH  15  18
ENDBRANCH   1  15
BRANCH   5  21
ATOM     21  N   UNL     1       0.496  11.577  18.583  0.00  0.00    +0.000 N 
ATOM     22  H   UNL     1      -0.275  11.434  17.939  0.00  0.00    +0.000 HD
BRANCH  21  23
ATOM     23  C   UNL     1       1.096  12.850  18.520  0.00  0.00    +0.000 A 
ATOM     24  C   UNL     1       2.452  13.038  18.214  0.00  0.00    +0.000 A 
ATOM     25  C   UNL     1       3.026  14.314  18.202  0.00  0.00    +0.000 A 
ATOM     26  C   UNL     1       2.241  15.432  18.460  0.00  0.00    +0.000 A 
ATOM     27  C   UNL     1       0.891  15.272  18.758  0.00  0.00    +0.000 A 
ATOM     28  C   UNL     1       0.328  13.991  18.800  0.00  0.00    +0.000 A 
ENDBRANCH  21  23
ENDBRANCH   5  21
TORSDOF 4
ENDMDL
