MODEL 1
REMARK VINA RESULT:      -6.3      0.000      0.000
REMARK  Name = 
REMARK  5 active torsions:
REMARK  status: ('A' for Active; 'I' for Inactive)
REMARK    1  A    between atoms: C_1  and  O_2
REMARK    2  A    between atoms: O_2  and  C_3
REMARK    3  A    between atoms: C_3  and  O_4
REMARK    4  A    between atoms: O_4  and  C_5
REMARK    5  A    between atoms: C_14  and  O_15
REMARK                            x       y       z     vdW  Elec       q    Type
REMARK                         _______ _______ _______ _____ _____    ______ ____
ROOT
ATOM      1  C   UNL     1       3.714   4.665  19.243  0.00  0.00    +0.000 C 
ATOM      2  C   UNL     1       5.185   4.750  18.886  0.00  0.00    +0.000 A 
ATOM      3  N   UNL     1       6.167   5.123  19.716  0.00  0.00    +0.000 NA
ATOM      4  O   UNL     1       7.347   5.072  18.967  0.00  0.00    +0.000 OA
ATOM      5  N   UNL     1       7.016   4.602  17.653  0.00  0.00    +0.000 N 
ATOM      6  O   UNL     1       7.947   4.462  16.835  0.00  0.00    +0.000 OA
ATOM      7  C   UNL     1       5.703   4.396  17.630  0.00  0.00    +0.000 A 
ATOM      8  C   UNL     1       4.973   3.915  16.456  0.00  0.00    +0.000 C 
ATOM      9  C   UNL     1       3.528   3.553  16.823  0.00  0.00    +0.000 C 
ATOM     10  C   UNL     1       2.889   4.476  17.884  0.00  0.00    +0.000 C 
ENDROOT
BRANCH   1  12
ATOM     11  C   UNL     1       4.097   2.409  20.120  0.00  0.00    +0.000 C 
ATOM     12  O   UNL     1       3.374   3.623  20.182  0.00  0.00    +0.000 OA
ENDBRANCH   1  12
BRANCH   1  13
ATOM     13  O   UNL     1       3.194   5.909  19.779  0.00  0.00    +0.000 OA
ATOM     14  C   UNL     1       2.901   6.908  18.809  0.00  0.00    +0.000 C 
ENDBRANCH   1  13
BRANCH  10  15
ATOM     15  O   UNL     1       1.562   3.974  18.132  0.00  0.00    +0.000 OA
ATOM     16  H   UNL     1       1.658   3.254  18.788  0.00  0.00    +0.000 HD
ENDBRANCH  10  15
TORSDOF 3
ENDMDL
MODEL 2
REMARK VINA RESULT:      -6.0      1.298      1.356
REMARK  Name = 
REMARK  5 active torsions:
REMARK  status: ('A' for Active; 'I' for Inactive)
REMARK    1  A    between atoms: C_1  and  O_2
REMARK    2  A    between atoms: O_2  and  C_3
REMARK    3  A    between atoms: C_3  and  O_4
REMARK    4  A    between atoms: O_4  and  C_5
REMARK    5  A    between atoms: C_14  and  O_15
REMARK                            x       y       z     vdW  Elec       q    Type
REMARK                         _______ _______ _______ _____ _____    ______ ____
ROOT
ATOM      1  C   UNL     1       4.514   4.031  18.974  0.00  0.00    +0.000 C 
ATOM      2  C   UNL     1       5.695   4.949  18.726  0.00  0.00    +0.000 A 
ATOM      3  N   UNL     1       6.559   5.373  19.656  0.00  0.00    +0.000 NA
ATOM      4  O   UNL     1       7.467   6.204  18.991  0.00  0.00    +0.000 OA
ATOM      5  N   UNL     1       7.119   6.213  17.600  0.00  0.00    +0.000 N 
ATOM      6  O   UNL     1       7.834   6.882  16.827  0.00  0.00    +0.000 OA
ATOM      7  C   UNL     1       6.054   5.431  17.457  0.00  0.00    +0.000 A 
ATOM      8  C   UNL     1       5.389   5.184  16.177  0.00  0.00    +0.000 C 
ATOM      9  C   UNL     1       4.353   4.060  16.309  0.00  0.00    +0.000 C 
ATOM     10  C   UNL     1       3.602   4.040  17.658  0.00  0.00    +0.000 C 
ENDROOT
BRANCH   1  12
ATOM     11  C   UNL     1       4.399   2.180  20.576  0.00  0.00    +0.000 C 
ATOM     12  O   UNL     1       4.858   2.677  19.333  0.00  0.00    +0.000 OA
ENDBRANCH   1  12
BRANCH   1  13
ATOM     13  O   UNL     1       3.621   4.533  20.002  0.00  0.00    +0.000 OA
ATOM     14  C   UNL     1       2.932   5.733  19.670  0.00  0.00    +0.000 C 
ENDBRANCH   1  13
BRANCH  10  15
ATOM     15  O   UNL     1       2.706   2.912  17.624  0.00  0.00    +0.000 OA
ATOM     16  H   UNL     1       2.252   2.895  18.490  0.00  0.00    +0.000 HD
ENDBRANCH  10  15
TORSDOF 3
ENDMDL
MODEL 3
REMARK VINA RESULT:      -5.9      2.405      4.618
REMARK  Name = 
REMARK  5 active torsions:
REMARK  status: ('A' for Active; 'I' for Inactive)
REMARK    1  A    between atoms: C_1  and  O_2
REMARK    2  A    between atoms: O_2  and  C_3
REMARK    3  A    between atoms: C_3  and  O_4
REMARK    4  A    between atoms: O_4  and  C_5
REMARK    5  A    between atoms: C_14  and  O_15
REMARK                            x       y       z     vdW  Elec       q    Type
REMARK                         _______ _______ _______ _____ _____    ______ ____
ROOT
ATOM      1  C   UNL     1       6.333   5.646  16.325  0.00  0.00    +0.000 C 
ATOM      2  C   UNL     1       5.596   4.611  17.153  0.00  0.00    +0.000 A 
ATOM      3  N   UNL     1       4.747   3.694  16.675  0.00  0.00    +0.000 NA
ATOM      4  O   UNL     1       4.295   2.969  17.784  0.00  0.00    +0.000 OA
ATOM      5  N   UNL     1       4.962   3.481  18.946  0.00  0.00    +0.000 N 
ATOM      6  O   UNL     1       4.712   2.943  20.043  0.00  0.00    +0.000 OA
ATOM      7  C   UNL     1       5.760   4.463  18.539  0.00  0.00    +0.000 A 
ATOM      8  C   UNL     1       6.613   5.246  19.436  0.00  0.00    +0.000 C 
ATOM      9  C   UNL     1       7.580   6.128  18.636  0.00  0.00    +0.000 C 
ATOM     10  C   UNL     1       6.987   6.705  17.331  0.00  0.00    +0.000 C 
ENDROOT
BRANCH   1  12
ATOM     11  C   UNL     1       6.958   4.792  14.114  0.00  0.00    +0.000 C 
ATOM     12  O   UNL     1       7.339   5.113  15.438  0.00  0.00    +0.000 OA
ENDBRANCH   1  12
BRANCH   1  13
ATOM     13  O   UNL     1       5.440   6.458  15.519  0.00  0.00    +0.000 OA
ATOM     14  C   UNL     1       4.493   7.224  16.255  0.00  0.00    +0.000 C 
ENDBRANCH   1  13
BRANCH  10  15
ATOM     15  O   UNL     1       8.031   7.468  16.697  0.00  0.00    +0.000 OA
ATOM     16  H   UNL     1       8.578   7.838  17.418  0.00  0.00    +0.000 HD
ENDBRANCH  10  15
TORSDOF 3
ENDMDL
MODEL 4
REMARK VINA RESULT:      -5.8      1.940      3.186
REMARK  Name = 
REMARK  5 active torsions:
REMARK  status: ('A' for Active; 'I' for Inactive)
REMARK    1  A    between atoms: C_1  and  O_2
REMARK    2  A    between atoms: O_2  and  C_3
REMARK    3  A    between atoms: C_3  and  O_4
REMARK    4  A    between atoms: O_4  and  C_5
REMARK    5  A    between atoms: C_14  and  O_15
REMARK                            x       y       z     vdW  Elec       q    Type
REMARK                         _______ _______ _______ _____ _____    ______ ____
ROOT
ATOM      1  C   UNL     1       3.946   4.094  18.828  0.00  0.00    +0.000 C 
ATOM      2  C   UNL     1       4.517   4.558  17.502  0.00  0.00    +0.000 A 
ATOM      3  N   UNL     1       5.114   3.775  16.595  0.00  0.00    +0.000 NA
ATOM      4  O   UNL     1       5.496   4.619  15.546  0.00  0.00    +0.000 OA
ATOM      5  N   UNL     1       5.048   5.944  15.862  0.00  0.00    +0.000 N 
ATOM      6  O   UNL     1       5.271   6.846  15.029  0.00  0.00    +0.000 OA
ATOM      7  C   UNL     1       4.441   5.882  17.043  0.00  0.00    +0.000 A 
ATOM      8  C   UNL     1       3.848   7.039  17.717  0.00  0.00    +0.000 C 
ATOM      9  C   UNL     1       3.022   6.597  18.932  0.00  0.00    +0.000 C 
ATOM     10  C   UNL     1       3.613   5.393  19.701  0.00  0.00    +0.000 C 
ENDROOT
BRANCH   1  12
ATOM     11  C   UNL     1       1.795   3.585  17.771  0.00  0.00    +0.000 C 
ATOM     12  O   UNL     1       2.781   3.248  18.727  0.00  0.00    +0.000 OA
ENDBRANCH   1  12
BRANCH   1  13
ATOM     13  O   UNL     1       4.919   3.386  19.640  0.00  0.00    +0.000 OA
ATOM     14  C   UNL     1       4.490   2.120  20.128  0.00  0.00    +0.000 C 
ENDBRANCH   1  13
BRANCH  10  15
ATOM     15  O   UNL     1       2.701   5.094  20.775  0.00  0.00    +0.000 OA
ATOM     16  H   UNL     1       3.255   4.882  21.554  0.00  0.00    +0.000 HD
ENDBRANCH  10  15
TORSDOF 3
ENDMDL
MODEL 5
REMARK VINA RESULT:      -5.8      2.050      4.111
REMARK  Name = 
REMARK  5 active torsions:
REMARK  status: ('A' for Active; 'I' for Inactive)
REMARK    1  A    between atoms: C_1  and  O_2
REMARK    2  A    between atoms: O_2  and  C_3
REMARK    3  A    between atoms: C_3  and  O_4
REMARK    4  A    between atoms: O_4  and  C_5
REMARK    5  A    between atoms: C_14  and  O_15
REMARK                            x       y       z     vdW  Elec       q    Type
REMARK                         _______ _______ _______ _____ _____    ______ ____
ROOT
ATOM      1  C   UNL     1       5.394   4.940  18.331  0.00  0.00    +0.000 C 
ATOM      2  C   UNL     1       4.529   3.913  19.035  0.00  0.00    +0.000 A 
ATOM      3  N   UNL     1       4.977   2.830  19.681  0.00  0.00    +0.000 NA
ATOM      4  O   UNL     1       3.842   2.166  20.158  0.00  0.00    +0.000 OA
ATOM      5  N   UNL     1       2.692   2.944  19.797  0.00  0.00    +0.000 N 
ATOM      6  O   UNL     1       1.573   2.528  20.158  0.00  0.00    +0.000 OA
ATOM      7  C   UNL     1       3.132   4.008  19.133  0.00  0.00    +0.000 A 
ATOM      8  C   UNL     1       2.257   5.048  18.588  0.00  0.00    +0.000 C 
ATOM      9  C   UNL     1       3.078   6.248  18.097  0.00  0.00    +0.000 C 
ATOM     10  C   UNL     1       4.433   5.874  17.456  0.00  0.00    +0.000 C 
ENDROOT
BRANCH   1  12
ATOM     11  C   UNL     1       7.620   5.669  19.054  0.00  0.00    +0.000 C 
ATOM     12  O   UNL     1       6.215   5.746  19.202  0.00  0.00    +0.000 OA
ENDBRANCH   1  12
BRANCH   1  13
ATOM     13  O   UNL     1       6.275   4.347  17.342  0.00  0.00    +0.000 OA
ATOM     14  C   UNL     1       5.629   3.870  16.167  0.00  0.00    +0.000 C 
ENDBRANCH   1  13
BRANCH  10  15
ATOM     15  O   UNL     1       5.079   7.109  17.091  0.00  0.00    +0.000 OA
ATOM     16  H   UNL     1       4.569   7.824  17.522  0.00  0.00    +0.000 HD
ENDBRANCH  10  15
TORSDOF 3
ENDMDL
MODEL 6
REMARK VINA RESULT:      -5.8      2.130      4.240
REMARK  Name = 
REMARK  5 active torsions:
REMARK  status: ('A' for Active; 'I' for Inactive)
REMARK    1  A    between atoms: C_1  and  O_2
REMARK    2  A    between atoms: O_2  and  C_3
REMARK    3  A    between atoms: C_3  and  O_4
REMARK    4  A    between atoms: O_4  and  C_5
REMARK    5  A    between atoms: C_14  and  O_15
REMARK                            x       y       z     vdW  Elec       q    Type
REMARK                         _______ _______ _______ _____ _____    ______ ____
ROOT
ATOM      1  C   UNL     1       4.653   4.847  18.681  0.00  0.00    +0.000 C 
ATOM      2  C   UNL     1       4.123   3.838  19.681  0.00  0.00    +0.000 A 
ATOM      3  N   UNL     1       4.733   2.701  20.037  0.00  0.00    +0.000 NA
ATOM      4  O   UNL     1       3.886   2.081  20.963  0.00  0.00    +0.000 OA
ATOM      5  N   UNL     1       2.756   2.939  21.171  0.00  0.00    +0.000 N 
ATOM      6  O   UNL     1       1.891   2.572  21.991  0.00  0.00    +0.000 OA
ATOM      7  C   UNL     1       2.928   4.008  20.399  0.00  0.00    +0.000 A 
ATOM      8  C   UNL     1       1.980   5.121  20.324  0.00  0.00    +0.000 C 
ATOM      9  C   UNL     1       2.579   6.294  19.537  0.00  0.00    +0.000 C 
ATOM     10  C   UNL     1       3.472   5.875  18.348  0.00  0.00    +0.000 C 
ENDROOT
BRANCH   1  12
ATOM     11  C   UNL     1       7.049   5.294  18.433  0.00  0.00    +0.000 C 
ATOM     12  O   UNL     1       5.832   5.562  19.103  0.00  0.00    +0.000 OA
ENDBRANCH   1  12
BRANCH   1  13
ATOM     13  O   UNL     1       4.951   4.253  17.391  0.00  0.00    +0.000 OA
ATOM     14  C   UNL     1       3.832   3.700  16.708  0.00  0.00    +0.000 C 
ENDBRANCH   1  13
BRANCH  10  15
ATOM     15  O   UNL     1       3.973   7.087  17.753  0.00  0.00    +0.000 OA
ATOM     16  H   UNL     1       4.906   6.911  17.515  0.00  0.00    +0.000 HD
ENDBRANCH  10  15
TORSDOF 3
ENDMDL
MODEL 7
REMARK VINA RESULT:      -5.7      1.964      2.566
REMARK  Name = 
REMARK  5 active torsions:
REMARK  status: ('A' for Active; 'I' for Inactive)
REMARK    1  A    between atoms: C_1  and  O_2
REMARK    2  A    between atoms: O_2  and  C_3
REMARK    3  A    between atoms: C_3  and  O_4
REMARK    4  A    between atoms: O_4  and  C_5
REMARK    5  A    between atoms: C_14  and  O_15
REMARK                            x       y       z     vdW  Elec       q    Type
REMARK                         _______ _______ _______ _____ _____    ______ ____
ROOT
ATOM      1  C   UNL     1       2.872   2.769  19.568  0.00  0.00    +0.000 C 
ATOM      2  C   UNL     1       4.044   3.691  19.291  0.00  0.00    +0.000 A 
ATOM      3  N   UNL     1       5.295   3.514  19.734  0.00  0.00    +0.000 NA
ATOM      4  O   UNL     1       6.033   4.603  19.256  0.00  0.00    +0.000 OA
ATOM      5  N   UNL     1       5.156   5.415  18.462  0.00  0.00    +0.000 N 
ATOM      6  O   UNL     1       5.637   6.430  17.920  0.00  0.00    +0.000 OA
ATOM      7  C   UNL     1       3.960   4.835  18.481  0.00  0.00    +0.000 A 
ATOM      8  C   UNL     1       2.785   5.366  17.787  0.00  0.00    +0.000 C 
ATOM      9  C   UNL     1       1.637   4.348  17.804  0.00  0.00    +0.000 C 
ATOM     10  C   UNL     1       1.537   3.521  19.105  0.00  0.00    +0.000 C 
ENDROOT
BRANCH   1  12
ATOM     11  C   UNL     1       3.750   1.343  17.778  0.00  0.00    +0.000 C 
ATOM     12  O   UNL     1       2.957   1.472  18.943  0.00  0.00    +0.000 OA
ENDBRANCH   1  12
BRANCH   1  13
ATOM     13  O   UNL     1       2.657   2.548  20.986  0.00  0.00    +0.000 OA
ATOM     14  C   UNL     1       2.193   3.682  21.710  0.00  0.00    +0.000 C 
ENDBRANCH   1  13
BRANCH  10  15
ATOM     15  O   UNL     1       0.441   2.602  18.934  0.00  0.00    +0.000 OA
ATOM     16  H   UNL     1       0.505   2.264  18.018  0.00  0.00    +0.000 HD
ENDBRANCH  10  15
TORSDOF 3
ENDMDL
MODEL 8
REMARK VINA RESULT:      -5.7      2.082      4.326
REMARK  Name = 
REMARK  5 active torsions:
REMARK  status: ('A' for Active; 'I' for Inactive)
REMARK    1  A    between atoms: C_1  and  O_2
REMARK    2  A    between atoms: O_2  and  C_3
REMARK    3  A    between atoms: C_3  and  O_4
REMARK    4  A    between atoms: O_4  and  C_5
REMARK    5  A    between atoms: C_14  and  O_15
REMARK                            x       y       z     vdW  Elec       q    Type
REMARK                         _______ _______ _______ _____ _____    ______ ____
ROOT
ATOM      1  C   UNL     1       4.544   3.968  18.899  0.00  0.00    +0.000 C 
ATOM      2  C   UNL     1       3.648   5.146  19.227  0.00  0.00    +0.000 A 
ATOM      3  N   UNL     1       3.648   6.325  18.592  0.00  0.00    +0.000 NA
ATOM      4  O   UNL     1       2.683   7.110  19.232  0.00  0.00    +0.000 OA
ATOM      5  N   UNL     1       2.075   6.312  20.257  0.00  0.00    +0.000 N 
ATOM      6  O   UNL     1       1.161   6.830  20.930  0.00  0.00    +0.000 OA
ATOM      7  C   UNL     1       2.661   5.120  20.226  0.00  0.00    +0.000 A 
ATOM      8  C   UNL     1       2.320   4.018  21.128  0.00  0.00    +0.000 C 
ATOM      9  C   UNL     1       2.998   2.717  20.680  0.00  0.00    +0.000 C 
ATOM     10  C   UNL     1       4.413   2.905  20.089  0.00  0.00    +0.000 C 
ENDROOT
BRANCH   1  12
ATOM     11  C   UNL     1       2.936   3.276  17.185  0.00  0.00    +0.000 C 
ATOM     12  O   UNL     1       4.277   3.334  17.631  0.00  0.00    +0.000 OA
ENDBRANCH   1  12
BRANCH   1  13
ATOM     13  O   UNL     1       5.953   4.315  18.916  0.00  0.00    +0.000 OA
ATOM     14  C   UNL     1       6.537   4.528  17.635  0.00  0.00    +0.000 C 
ENDBRANCH   1  13
BRANCH  10  15
ATOM     15  O   UNL     1       4.878   1.601  19.692  0.00  0.00    +0.000 OA
ATOM     16  H   UNL     1       5.783   1.727  19.343  0.00  0.00    +0.000 HD
ENDBRANCH  10  15
TORSDOF 3
ENDMDL
MODEL 9
REMARK VINA RESULT:      -5.7      2.206      3.887
REMARK  Name = 
REMARK  5 active torsions:
REMARK  status: ('A' for Active; 'I' for Inactive)
REMARK    1  A    between atoms: C_1  and  O_2
REMARK    2  A    between atoms: O_2  and  C_3
REMARK    3  A    between atoms: C_3  and  O_4
REMARK    4  A    between atoms: O_4  and  C_5
REMARK    5  A    between atoms: C_14  and  O_15
REMARK                            x       y       z     vdW  Elec       q    Type
REMARK                         _______ _______ _______ _____ _____    ______ ____
ROOT
ATOM      1  C   UNL     1       4.791   4.386  18.214  0.00  0.00    +0.000 C 
ATOM      2  C   UNL     1       3.941   5.606  18.505  0.00  0.00    +0.000 A 
ATOM      3  N   UNL     1       3.226   5.809  19.619  0.00  0.00    +0.000 NA
ATOM      4  O   UNL     1       2.592   7.046  19.453  0.00  0.00    +0.000 OA
ATOM      5  N   UNL     1       3.009   7.588  18.192  0.00  0.00    +0.000 N 
ATOM      6  O   UNL     1       2.569   8.710  17.869  0.00  0.00    +0.000 OA
ATOM      7  C   UNL     1       3.840   6.709  17.642  0.00  0.00    +0.000 A 
ATOM      8  C   UNL     1       4.481   6.897  16.339  0.00  0.00    +0.000 C 
ATOM      9  C   UNL     1       5.558   5.829  16.103  0.00  0.00    +0.000 C 
ATOM     10  C   UNL     1       5.208   4.435  16.669  0.00  0.00    +0.000 C 
ENDROOT
BRANCH   1  12
ATOM     11  C   UNL     1       6.694   5.417  19.365  0.00  0.00    +0.000 C 
ATOM     12  O   UNL     1       5.964   4.248  19.043  0.00  0.00    +0.000 OA
ENDBRANCH   1  12
BRANCH   1  13
ATOM     13  O   UNL     1       4.045   3.145  18.319  0.00  0.00    +0.000 OA
ATOM     14  C   UNL     1       2.935   3.032  17.435  0.00  0.00    +0.000 C 
ENDBRANCH   1  13
BRANCH  10  15
ATOM     15  O   UNL     1       6.332   3.577  16.393  0.00  0.00    +0.000 OA
ATOM     16  H   UNL     1       6.264   2.827  17.018  0.00  0.00    +0.000 HD
ENDBRANCH  10  15
TORSDOF 3
ENDMDL
