MODEL 1
REMARK VINA RESULT:      -8.0      0.000      0.000
REMARK  Name = 
REMARK  6 active torsions:
REMARK  status: ('A' for Active; 'I' for Inactive)
REMARK    1  A    between atoms: C_1  and  C_2
REMARK    2  A    between atoms: C_3  and  C_4
REMARK    3  A    between atoms: C_4  and  C_6
REMARK    4  A    between atoms: C_13  and  C_14
REMARK    5  A    between atoms: C_18  and  O_19
REMARK    6  A    between atoms: N_24  and  C_25
REMARK                            x       y       z     vdW  Elec       q    Type
REMARK                         _______ _______ _______ _____ _____    ______ ____
ROOT
ATOM      1  C   UNL     1       4.285   7.560  16.482  0.00  0.00    +0.000 C 
ATOM      2  C   UNL     1       3.886   7.034  17.848  0.00  0.00    +0.000 C 
ATOM      3  C   UNL     1       4.458   5.954  18.445  0.00  0.00    +0.000 C 
ATOM      4  C   UNL     1       3.822   5.327  19.664  0.00  0.00    +0.000 C 
ATOM      5  N   UNL     1       2.909   6.235  20.306  0.00  0.00    +0.000 N 
ATOM      6  C   UNL     1       2.288   7.284  19.707  0.00  0.00    +0.000 C 
ATOM      7  S   UNL     1       0.991   7.930  20.553  0.00  0.00    +0.000 S 
ATOM      8  N   UNL     1       2.811   7.708  18.483  0.00  0.00    +0.000 N 
ATOM      9  C   UNL     1       2.316   8.961  17.875  0.00  0.00    +0.000 C 
ATOM     10  H   UNL     1       2.453   5.903  21.147  0.00  0.00    +0.000 HD
ENDROOT
BRANCH   4  11
ATOM     11  C   UNL     1       3.107   4.009  19.386  0.00  0.00    +0.000 A 
ATOM     12  C   UNL     1       1.706   3.934  19.489  0.00  0.00    +0.000 A 
ATOM     13  C   UNL     1       1.036   2.731  19.260  0.00  0.00    +0.000 A 
ATOM     14  C   UNL     1       1.753   1.586  18.917  0.00  0.00    +0.000 A 
ATOM     15  C   UNL     1       3.138   1.657  18.805  0.00  0.00    +0.000 A 
ATOM     16  C   UNL     1       3.816   2.851  19.030  0.00  0.00    +0.000 A 
BRANCH  15  17
ATOM     17  O   UNL     1       3.878   0.560  18.478  0.00  0.00    +0.000 OA
ATOM     18  H   UNL     1       3.361  -0.232  18.690  0.00  0.00    +0.000 HD
ENDBRANCH  15  17
ENDBRANCH   4  11
BRANCH   3  19
ATOM     19  C   UNL     1       5.710   5.200  18.048  0.00  0.00    +0.000 C 
ATOM     20  O   UNL     1       6.576   4.920  18.884  0.00  0.00    +0.000 OA
BRANCH  19  21
ATOM     21  C   UNL     1       6.014   4.817  16.652  0.00  0.00    +0.000 A 
ATOM     22  C   UNL     1       7.197   5.202  16.011  0.00  0.00    +0.000 A 
ATOM     23  C   UNL     1       7.357   4.947  14.648  0.00  0.00    +0.000 A 
ATOM     24  C   UNL     1       6.380   4.234  13.960  0.00  0.00    +0.000 A 
ATOM     25  F   UNL     1       6.525   4.018  12.646  0.00  0.00    +0.000 F 
ATOM     26  C   UNL     1       5.255   3.744  14.614  0.00  0.00    +0.000 A 
ATOM     27  C   UNL     1       5.070   4.037  15.964  0.00  0.00    +0.000 A 
ENDBRANCH  19  21
ENDBRANCH   3  19
TORSDOF 4
ENDMDL
MODEL 2
REMARK VINA RESULT:      -8.0      3.509      6.009
REMARK  Name = 
REMARK  6 active torsions:
REMARK  status: ('A' for Active; 'I' for Inactive)
REMARK    1  A    between atoms: C_1  and  C_2
REMARK    2  A    between atoms: C_3  and  C_4
REMARK    3  A    between atoms: C_4  and  C_6
REMARK    4  A    between atoms: C_13  and  C_14
REMARK    5  A    between atoms: C_18  and  O_19
REMARK    6  A    between atoms: N_24  and  C_25
REMARK                            x       y       z     vdW  Elec       q    Type
REMARK                         _______ _______ _______ _____ _____    ______ ____
ROOT
ATOM      1  C   UNL     1       4.947   4.000  15.098  0.00  0.00    +0.000 C 
ATOM      2  C   UNL     1       5.146   4.628  16.465  0.00  0.00    +0.000 C 
ATOM      3  C   UNL     1       4.244   4.546  17.479  0.00  0.00    +0.000 C 
ATOM      4  C   UNL     1       4.382   5.425  18.700  0.00  0.00    +0.000 C 
ATOM      5  N   UNL     1       5.720   5.939  18.828  0.00  0.00    +0.000 N 
ATOM      6  C   UNL     1       6.612   6.079  17.815  0.00  0.00    +0.000 C 
ATOM      7  S   UNL     1       7.933   7.056  18.149  0.00  0.00    +0.000 S 
ATOM      8  N   UNL     1       6.336   5.382  16.635  0.00  0.00    +0.000 N 
ATOM      9  C   UNL     1       7.356   5.325  15.567  0.00  0.00    +0.000 C 
ATOM     10  H   UNL     1       5.908   6.523  19.634  0.00  0.00    +0.000 HD
ENDROOT
BRANCH   4  11
ATOM     11  C   UNL     1       3.391   6.584  18.750  0.00  0.00    +0.000 A 
ATOM     12  C   UNL     1       3.267   7.449  17.648  0.00  0.00    +0.000 A 
ATOM     13  C   UNL     1       2.381   8.528  17.683  0.00  0.00    +0.000 A 
ATOM     14  C   UNL     1       1.602   8.755  18.816  0.00  0.00    +0.000 A 
ATOM     15  C   UNL     1       1.715   7.897  19.905  0.00  0.00    +0.000 A 
ATOM     16  C   UNL     1       2.593   6.819  19.880  0.00  0.00    +0.000 A 
BRANCH  15  17
ATOM     17  O   UNL     1       0.976   8.088  21.035  0.00  0.00    +0.000 OA
ATOM     18  H   UNL     1       1.279   7.459  21.708  0.00  0.00    +0.000 HD
ENDBRANCH  15  17
ENDBRANCH   4  11
BRANCH   3  19
ATOM     19  C   UNL     1       3.012   3.670  17.588  0.00  0.00    +0.000 C 
ATOM     20  O   UNL     1       2.402   3.302  16.578  0.00  0.00    +0.000 OA
BRANCH  19  21
ATOM     21  C   UNL     1       2.424   3.261  18.881  0.00  0.00    +0.000 A 
ATOM     22  C   UNL     1       1.073   3.464  19.187  0.00  0.00    +0.000 A 
ATOM     23  C   UNL     1       0.612   3.204  20.479  0.00  0.00    +0.000 A 
ATOM     24  C   UNL     1       1.477   2.661  21.424  0.00  0.00    +0.000 A 
ATOM     25  F   UNL     1       1.036   2.441  22.669  0.00  0.00    +0.000 F 
ATOM     26  C   UNL     1       2.790   2.345  21.097  0.00  0.00    +0.000 A 
ATOM     27  C   UNL     1       3.267   2.647  19.822  0.00  0.00    +0.000 A 
ENDBRANCH  19  21
ENDBRANCH   3  19
TORSDOF 4
ENDMDL
MODEL 3
REMARK VINA RESULT:      -7.9      1.455      1.550
REMARK  Name = 
REMARK  6 active torsions:
REMARK  status: ('A' for Active; 'I' for Inactive)
REMARK    1  A    between atoms: C_1  and  C_2
REMARK    2  A    between atoms: C_3  and  C_4
REMARK    3  A    between atoms: C_4  and  C_6
REMARK    4  A    between atoms: C_13  and  C_14
REMARK    5  A    between atoms: C_18  and  O_19
REMARK    6  A    between atoms: N_24  and  C_25
REMARK                            x       y       z     vdW  Elec       q    Type
REMARK                         _______ _______ _______ _____ _____    ______ ____
ROOT
ATOM      1  C   UNL     1       4.002   7.444  16.610  0.00  0.00    +0.000 C 
ATOM      2  C   UNL     1       3.506   7.247  18.031  0.00  0.00    +0.000 C 
ATOM      3  C   UNL     1       3.955   6.272  18.865  0.00  0.00    +0.000 C 
ATOM      4  C   UNL     1       3.221   5.965  20.149  0.00  0.00    +0.000 C 
ATOM      5  N   UNL     1       2.370   7.056  20.542  0.00  0.00    +0.000 N 
ATOM      6  C   UNL     1       1.868   8.004  19.710  0.00  0.00    +0.000 C 
ATOM      7  S   UNL     1       0.604   8.914  20.334  0.00  0.00    +0.000 S 
ATOM      8  N   UNL     1       2.473   8.122  18.456  0.00  0.00    +0.000 N 
ATOM      9  C   UNL     1       2.116   9.257  17.578  0.00  0.00    +0.000 C 
ATOM     10  H   UNL     1       1.854   6.943  21.407  0.00  0.00    +0.000 HD
ENDROOT
BRANCH   4  11
ATOM     11  C   UNL     1       2.401   4.679  20.106  0.00  0.00    +0.000 A 
ATOM     12  C   UNL     1       1.839   4.245  18.892  0.00  0.00    +0.000 A 
ATOM     13  C   UNL     1       1.067   3.082  18.837  0.00  0.00    +0.000 A 
ATOM     14  C   UNL     1       0.852   2.331  19.992  0.00  0.00    +0.000 A 
ATOM     15  C   UNL     1       1.414   2.751  21.193  0.00  0.00    +0.000 A 
ATOM     16  C   UNL     1       2.185   3.907  21.259  0.00  0.00    +0.000 A 
BRANCH  15  17
ATOM     17  O   UNL     1       1.223   2.050  22.346  0.00  0.00    +0.000 OA
ATOM     18  H   UNL     1       0.379   1.578  22.281  0.00  0.00    +0.000 HD
ENDBRANCH  15  17
ENDBRANCH   4  11
BRANCH   3  19
ATOM     19  C   UNL     1       5.149   5.354  18.700  0.00  0.00    +0.000 C 
ATOM     20  O   UNL     1       5.839   5.026  19.672  0.00  0.00    +0.000 OA
BRANCH  19  21
ATOM     21  C   UNL     1       5.607   4.853  17.386  0.00  0.00    +0.000 A 
ATOM     22  C   UNL     1       6.850   5.202  16.844  0.00  0.00    +0.000 A 
ATOM     23  C   UNL     1       7.159   4.829  15.534  0.00  0.00    +0.000 A 
ATOM     24  C   UNL     1       6.270   4.040  14.813  0.00  0.00    +0.000 A 
ATOM     25  F   UNL     1       6.560   3.710  13.547  0.00  0.00    +0.000 F 
ATOM     26  C   UNL     1       5.085   3.589  15.383  0.00  0.00    +0.000 A 
ATOM     27  C   UNL     1       4.751   3.998  16.673  0.00  0.00    +0.000 A 
ENDBRANCH  19  21
ENDBRANCH   3  19
TORSDOF 4
ENDMDL
MODEL 4
REMARK VINA RESULT:      -7.8      3.498      5.989
REMARK  Name = 
REMARK  6 active torsions:
REMARK  status: ('A' for Active; 'I' for Inactive)
REMARK    1  A    between atoms: C_1  and  C_2
REMARK    2  A    between atoms: C_3  and  C_4
REMARK    3  A    between atoms: C_4  and  C_6
REMARK    4  A    between atoms: C_13  and  C_14
REMARK    5  A    between atoms: C_18  and  O_19
REMARK    6  A    between atoms: N_24  and  C_25
REMARK                            x       y       z     vdW  Elec       q    Type
REMARK                         _______ _______ _______ _____ _____    ______ ____
ROOT
ATOM      1  C   UNL     1       4.831   4.137  15.067  0.00  0.00    +0.000 C 
ATOM      2  C   UNL     1       5.079   4.684  16.461  0.00  0.00    +0.000 C 
ATOM      3  C   UNL     1       4.219   4.529  17.502  0.00  0.00    +0.000 C 
ATOM      4  C   UNL     1       4.398   5.335  18.768  0.00  0.00    +0.000 C 
ATOM      5  N   UNL     1       5.734   5.856  18.874  0.00  0.00    +0.000 N 
ATOM      6  C   UNL     1       6.584   6.069  17.836  0.00  0.00    +0.000 C 
ATOM      7  S   UNL     1       7.908   7.040  18.177  0.00  0.00    +0.000 S 
ATOM      8  N   UNL     1       6.267   5.441  16.629  0.00  0.00    +0.000 N 
ATOM      9  C   UNL     1       7.244   5.462  15.519  0.00  0.00    +0.000 C 
ATOM     10  H   UNL     1       5.949   6.393  19.707  0.00  0.00    +0.000 HD
ENDROOT
BRANCH   4  11
ATOM     11  C   UNL     1       3.399   6.476  18.928  0.00  0.00    +0.000 A 
ATOM     12  C   UNL     1       2.613   6.563  20.091  0.00  0.00    +0.000 A 
ATOM     13  C   UNL     1       1.677   7.588  20.247  0.00  0.00    +0.000 A 
ATOM     14  C   UNL     1       1.516   8.545  19.246  0.00  0.00    +0.000 A 
ATOM     15  C   UNL     1       2.298   8.468  18.097  0.00  0.00    +0.000 A 
ATOM     16  C   UNL     1       3.234   7.452  17.933  0.00  0.00    +0.000 A 
BRANCH  15  17
ATOM     17  O   UNL     1       2.168   9.379  17.092  0.00  0.00    +0.000 OA
ATOM     18  H   UNL     1       3.039   9.516  16.689  0.00  0.00    +0.000 HD
ENDBRANCH  15  17
ENDBRANCH   4  11
BRANCH   3  19
ATOM     19  C   UNL     1       3.002   3.633  17.607  0.00  0.00    +0.000 C 
ATOM     20  O   UNL     1       2.410   3.245  16.594  0.00  0.00    +0.000 OA
BRANCH  19  21
ATOM     21  C   UNL     1       2.408   3.226  18.898  0.00  0.00    +0.000 A 
ATOM     22  C   UNL     1       1.040   3.360  19.167  0.00  0.00    +0.000 A 
ATOM     23  C   UNL     1       0.564   3.109  20.455  0.00  0.00    +0.000 A 
ATOM     24  C   UNL     1       1.434   2.642  21.434  0.00  0.00    +0.000 A 
ATOM     25  F   UNL     1       0.977   2.431  22.675  0.00  0.00    +0.000 F 
ATOM     26  C   UNL     1       2.771   2.393  21.146  0.00  0.00    +0.000 A 
ATOM     27  C   UNL     1       3.261   2.687  19.874  0.00  0.00    +0.000 A 
ENDBRANCH  19  21
ENDBRANCH   3  19
TORSDOF 4
ENDMDL
MODEL 5
REMARK VINA RESULT:      -7.8      1.532      1.902
REMARK  Name = 
REMARK  6 active torsions:
REMARK  status: ('A' for Active; 'I' for Inactive)
REMARK    1  A    between atoms: C_1  and  C_2
REMARK    2  A    between atoms: C_3  and  C_4
REMARK    3  A    between atoms: C_4  and  C_6
REMARK    4  A    between atoms: C_13  and  C_14
REMARK    5  A    between atoms: C_18  and  O_19
REMARK    6  A    between atoms: N_24  and  C_25
REMARK                            x       y       z     vdW  Elec       q    Type
REMARK                         _______ _______ _______ _____ _____    ______ ____
ROOT
ATOM      1  C   UNL     1       3.670   7.732  16.715  0.00  0.00    +0.000 C 
ATOM      2  C   UNL     1       3.239   7.461  18.145  0.00  0.00    +0.000 C 
ATOM      3  C   UNL     1       3.756   6.472  18.921  0.00  0.00    +0.000 C 
ATOM      4  C   UNL     1       3.084   6.088  20.219  0.00  0.00    +0.000 C 
ATOM      5  N   UNL     1       2.212   7.131  20.688  0.00  0.00    +0.000 N 
ATOM      6  C   UNL     1       1.644   8.092  19.915  0.00  0.00    +0.000 C 
ATOM      7  S   UNL     1       0.375   8.928  20.624  0.00  0.00    +0.000 S 
ATOM      8  N   UNL     1       2.193   8.280  18.644  0.00  0.00    +0.000 N 
ATOM      9  C   UNL     1       1.761   9.435  17.828  0.00  0.00    +0.000 C 
ATOM     10  H   UNL     1       1.736   6.966  21.567  0.00  0.00    +0.000 HD
ENDROOT
BRANCH   4  11
ATOM     11  C   UNL     1       2.310   4.775  20.156  0.00  0.00    +0.000 A 
ATOM     12  C   UNL     1       1.755   4.345  18.937  0.00  0.00    +0.000 A 
ATOM     13  C   UNL     1       1.025   3.157  18.864  0.00  0.00    +0.000 A 
ATOM     14  C   UNL     1       0.843   2.377  20.004  0.00  0.00    +0.000 A 
ATOM     15  C   UNL     1       1.397   2.794  21.211  0.00  0.00    +0.000 A 
ATOM     16  C   UNL     1       2.128   3.974  21.294  0.00  0.00    +0.000 A 
BRANCH  15  17
ATOM     17  O   UNL     1       1.238   2.064  22.351  0.00  0.00    +0.000 OA
ATOM     18  H   UNL     1       0.322   1.748  22.387  0.00  0.00    +0.000 HD
ENDBRANCH  15  17
ENDBRANCH   4  11
BRANCH   3  19
ATOM     19  C   UNL     1       4.973   5.606  18.672  0.00  0.00    +0.000 C 
ATOM     20  O   UNL     1       5.741   5.308  19.594  0.00  0.00    +0.000 OA
BRANCH  19  21
ATOM     21  C   UNL     1       5.361   5.124  17.329  0.00  0.00    +0.000 A 
ATOM     22  C   UNL     1       4.565   4.239  16.592  0.00  0.00    +0.000 A 
ATOM     23  C   UNL     1       5.056   3.696  15.404  0.00  0.00    +0.000 A 
ATOM     24  C   UNL     1       6.293   4.108  14.917  0.00  0.00    +0.000 A 
ATOM     25  F   UNL     1       6.771   3.562  13.791  0.00  0.00    +0.000 F 
ATOM     26  C   UNL     1       7.040   5.074  15.580  0.00  0.00    +0.000 A 
ATOM     27  C   UNL     1       6.574   5.584  16.791  0.00  0.00    +0.000 A 
ENDBRANCH  19  21
ENDBRANCH   3  19
TORSDOF 4
ENDMDL
MODEL 6
REMARK VINA RESULT:      -7.7      0.943      1.337
REMARK  Name = 
REMARK  6 active torsions:
REMARK  status: ('A' for Active; 'I' for Inactive)
REMARK    1  A    between atoms: C_1  and  C_2
REMARK    2  A    between atoms: C_3  and  C_4
REMARK    3  A    between atoms: C_4  and  C_6
REMARK    4  A    between atoms: C_13  and  C_14
REMARK    5  A    between atoms: C_18  and  O_19
REMARK    6  A    between atoms: N_24  and  C_25
REMARK                            x       y       z     vdW  Elec       q    Type
REMARK                         _______ _______ _______ _____ _____    ______ ____
ROOT
ATOM      1  C   UNL     1       4.393   7.429  16.308  0.00  0.00    +0.000 C 
ATOM      2  C   UNL     1       4.070   6.870  17.682  0.00  0.00    +0.000 C 
ATOM      3  C   UNL     1       4.693   5.794  18.232  0.00  0.00    +0.000 C 
ATOM      4  C   UNL     1       4.128   5.131  19.467  0.00  0.00    +0.000 C 
ATOM      5  N   UNL     1       3.224   6.005  20.166  0.00  0.00    +0.000 N 
ATOM      6  C   UNL     1       2.552   7.049  19.615  0.00  0.00    +0.000 C 
ATOM      7  S   UNL     1       1.280   7.648  20.530  0.00  0.00    +0.000 S 
ATOM      8  N   UNL     1       3.009   7.507  18.377  0.00  0.00    +0.000 N 
ATOM      9  C   UNL     1       2.458   8.758  17.814  0.00  0.00    +0.000 C 
ATOM     10  H   UNL     1       2.814   5.648  21.020  0.00  0.00    +0.000 HD
ENDROOT
BRANCH   4  11
ATOM     11  C   UNL     1       3.433   3.801  19.197  0.00  0.00    +0.000 A 
ATOM     12  C   UNL     1       4.186   2.613  19.144  0.00  0.00    +0.000 A 
ATOM     13  C   UNL     1       3.570   1.388  18.877  0.00  0.00    +0.000 A 
ATOM     14  C   UNL     1       2.194   1.329  18.666  0.00  0.00    +0.000 A 
ATOM     15  C   UNL     1       1.444   2.500  18.726  0.00  0.00    +0.000 A 
ATOM     16  C   UNL     1       2.046   3.725  18.993  0.00  0.00    +0.000 A 
BRANCH  15  17
ATOM     17  O   UNL     1       0.096   2.488  18.520  0.00  0.00    +0.000 OA
ATOM     18  H   UNL     1      -0.283   3.282  18.925  0.00  0.00    +0.000 HD
ENDBRANCH  15  17
ENDBRANCH   4  11
BRANCH   3  19
ATOM     19  C   UNL     1       5.943   5.078  17.765  0.00  0.00    +0.000 C 
ATOM     20  O   UNL     1       6.864   4.828  18.551  0.00  0.00    +0.000 OA
BRANCH  19  21
ATOM     21  C   UNL     1       6.178   4.699  16.356  0.00  0.00    +0.000 A 
ATOM     22  C   UNL     1       7.283   5.161  15.630  0.00  0.00    +0.000 A 
ATOM     23  C   UNL     1       7.367   4.900  14.261  0.00  0.00    +0.000 A 
ATOM     24  C   UNL     1       6.401   4.107  13.650  0.00  0.00    +0.000 A 
ATOM     25  F   UNL     1       6.472   3.884  12.331  0.00  0.00    +0.000 F 
ATOM     26  C   UNL     1       5.363   3.545  14.384  0.00  0.00    +0.000 A 
ATOM     27  C   UNL     1       5.250   3.842  15.742  0.00  0.00    +0.000 A 
ENDBRANCH  19  21
ENDBRANCH   3  19
TORSDOF 4
ENDMDL
MODEL 7
REMARK VINA RESULT:      -7.7      0.879      1.352
REMARK  Name = 
REMARK  6 active torsions:
REMARK  status: ('A' for Active; 'I' for Inactive)
REMARK    1  A    between atoms: C_1  and  C_2
REMARK    2  A    between atoms: C_3  and  C_4
REMARK    3  A    between atoms: C_4  and  C_6
REMARK    4  A    between atoms: C_13  and  C_14
REMARK    5  A    between atoms: C_18  and  O_19
REMARK    6  A    between atoms: N_24  and  C_25
REMARK                            x       y       z     vdW  Elec       q    Type
REMARK                         _______ _______ _______ _____ _____    ______ ____
ROOT
ATOM      1  C   UNL     1       3.891   7.529  16.557  0.00  0.00    +0.000 C 
ATOM      2  C   UNL     1       3.509   7.173  17.982  0.00  0.00    +0.000 C 
ATOM      3  C   UNL     1       4.033   6.125  18.671  0.00  0.00    +0.000 C 
ATOM      4  C   UNL     1       3.403   5.668  19.966  0.00  0.00    +0.000 C 
ATOM      5  N   UNL     1       2.571   6.694  20.536  0.00  0.00    +0.000 N 
ATOM      6  C   UNL     1       1.995   7.715  19.849  0.00  0.00    +0.000 C 
ATOM      7  S   UNL     1       0.771   8.526  20.660  0.00  0.00    +0.000 S 
ATOM      8  N   UNL     1       2.500   7.977  18.573  0.00  0.00    +0.000 N 
ATOM      9  C   UNL     1       2.063   9.191  17.852  0.00  0.00    +0.000 C 
ATOM     10  H   UNL     1       2.125   6.480  21.419  0.00  0.00    +0.000 HD
ENDROOT
BRANCH   4  11
ATOM     11  C   UNL     1       2.599   4.378  19.847  0.00  0.00    +0.000 A 
ATOM     12  C   UNL     1       1.848   3.915  20.943  0.00  0.00    +0.000 A 
ATOM     13  C   UNL     1       1.123   2.724  20.861  0.00  0.00    +0.000 A 
ATOM     14  C   UNL     1       1.132   1.981  19.682  0.00  0.00    +0.000 A 
ATOM     15  C   UNL     1       1.867   2.439  18.592  0.00  0.00    +0.000 A 
ATOM     16  C   UNL     1       2.591   3.624  18.663  0.00  0.00    +0.000 A 
BRANCH  15  17
ATOM     17  O   UNL     1       1.908   1.739  17.423  0.00  0.00    +0.000 OA
ATOM     18  H   UNL     1       1.074   1.254  17.328  0.00  0.00    +0.000 HD
ENDBRANCH  15  17
ENDBRANCH   4  11
BRANCH   3  19
ATOM     19  C   UNL     1       5.222   5.254  18.319  0.00  0.00    +0.000 C 
ATOM     20  O   UNL     1       5.970   4.813  19.199  0.00  0.00    +0.000 OA
BRANCH  19  21
ATOM     21  C   UNL     1       5.607   4.937  16.927  0.00  0.00    +0.000 A 
ATOM     22  C   UNL     1       4.784   4.190  16.075  0.00  0.00    +0.000 A 
ATOM     23  C   UNL     1       5.267   3.787  14.829  0.00  0.00    +0.000 A 
ATOM     24  C   UNL     1       6.526   4.206  14.408  0.00  0.00    +0.000 A 
ATOM     25  F   UNL     1       6.996   3.791  13.224  0.00  0.00    +0.000 F 
ATOM     26  C   UNL     1       7.304   5.045  15.197  0.00  0.00    +0.000 A 
ATOM     27  C   UNL     1       6.844   5.411  16.462  0.00  0.00    +0.000 A 
ENDBRANCH  19  21
ENDBRANCH   3  19
TORSDOF 4
ENDMDL
MODEL 8
REMARK VINA RESULT:      -7.6      0.963      1.671
REMARK  Name = 
REMARK  6 active torsions:
REMARK  status: ('A' for Active; 'I' for Inactive)
REMARK    1  A    between atoms: C_1  and  C_2
REMARK    2  A    between atoms: C_3  and  C_4
REMARK    3  A    between atoms: C_4  and  C_6
REMARK    4  A    between atoms: C_13  and  C_14
REMARK    5  A    between atoms: C_18  and  O_19
REMARK    6  A    between atoms: N_24  and  C_25
REMARK                            x       y       z     vdW  Elec       q    Type
REMARK                         _______ _______ _______ _____ _____    ______ ____
ROOT
ATOM      1  C   UNL     1       4.156   7.503  16.345  0.00  0.00    +0.000 C 
ATOM      2  C   UNL     1       3.869   6.961  17.734  0.00  0.00    +0.000 C 
ATOM      3  C   UNL     1       4.481   5.871  18.266  0.00  0.00    +0.000 C 
ATOM      4  C   UNL     1       3.945   5.231  19.526  0.00  0.00    +0.000 C 
ATOM      5  N   UNL     1       3.094   6.135  20.253  0.00  0.00    +0.000 N 
ATOM      6  C   UNL     1       2.432   7.195  19.722  0.00  0.00    +0.000 C 
ATOM      7  S   UNL     1       1.214   7.836  20.681  0.00  0.00    +0.000 S 
ATOM      8  N   UNL     1       2.854   7.632  18.464  0.00  0.00    +0.000 N 
ATOM      9  C   UNL     1       2.319   8.896  17.915  0.00  0.00    +0.000 C 
ATOM     10  H   UNL     1       2.707   5.794  21.125  0.00  0.00    +0.000 HD
ENDROOT
BRANCH   4  11
ATOM     11  C   UNL     1       3.201   3.920  19.292  0.00  0.00    +0.000 A 
ATOM     12  C   UNL     1       3.903   2.786  18.843  0.00  0.00    +0.000 A 
ATOM     13  C   UNL     1       3.236   1.582  18.603  0.00  0.00    +0.000 A 
ATOM     14  C   UNL     1       1.861   1.491  18.812  0.00  0.00    +0.000 A 
ATOM     15  C   UNL     1       1.164   2.608  19.264  0.00  0.00    +0.000 A 
ATOM     16  C   UNL     1       1.819   3.811  19.508  0.00  0.00    +0.000 A 
BRANCH  15  17
ATOM     17  O   UNL     1      -0.181   2.564  19.475  0.00  0.00    +0.000 OA
ATOM     18  H   UNL     1      -0.548   3.444  19.299  0.00  0.00    +0.000 HD
ENDBRANCH  15  17
ENDBRANCH   4  11
BRANCH   3  19
ATOM     19  C   UNL     1       5.691   5.115  17.757  0.00  0.00    +0.000 C 
ATOM     20  O   UNL     1       6.593   4.765  18.527  0.00  0.00    +0.000 OA
BRANCH  19  21
ATOM     21  C   UNL     1       5.912   4.814  16.327  0.00  0.00    +0.000 A 
ATOM     22  C   UNL     1       4.998   4.071  15.568  0.00  0.00    +0.000 A 
ATOM     23  C   UNL     1       5.334   3.683  14.271  0.00  0.00    +0.000 A 
ATOM     24  C   UNL     1       6.533   4.112  13.710  0.00  0.00    +0.000 A 
ATOM     25  F   UNL     1       6.863   3.712  12.475  0.00  0.00    +0.000 F 
ATOM     26  C   UNL     1       7.395   4.947  14.412  0.00  0.00    +0.000 A 
ATOM     27  C   UNL     1       7.084   5.299  15.725  0.00  0.00    +0.000 A 
ENDBRANCH  19  21
ENDBRANCH   3  19
TORSDOF 4
ENDMDL
MODEL 9
REMARK VINA RESULT:      -7.6      3.529      6.324
REMARK  Name = 
REMARK  6 active torsions:
REMARK  status: ('A' for Active; 'I' for Inactive)
REMARK    1  A    between atoms: C_1  and  C_2
REMARK    2  A    between atoms: C_3  and  C_4
REMARK    3  A    between atoms: C_4  and  C_6
REMARK    4  A    between atoms: C_13  and  C_14
REMARK    5  A    between atoms: C_18  and  O_19
REMARK    6  A    between atoms: N_24  and  C_25
REMARK                            x       y       z     vdW  Elec       q    Type
REMARK                         _______ _______ _______ _____ _____    ______ ____
ROOT
ATOM      1  C   UNL     1       1.041   4.274  17.987  0.00  0.00    +0.000 C 
ATOM      2  C   UNL     1       2.433   4.282  18.591  0.00  0.00    +0.000 C 
ATOM      3  C   UNL     1       3.277   5.346  18.543  0.00  0.00    +0.000 C 
ATOM      4  C   UNL     1       4.734   5.185  18.911  0.00  0.00    +0.000 C 
ATOM      5  N   UNL     1       4.949   3.999  19.696  0.00  0.00    +0.000 N 
ATOM      6  C   UNL     1       4.143   2.906  19.711  0.00  0.00    +0.000 C 
ATOM      7  S   UNL     1       4.815   1.526  20.388  0.00  0.00    +0.000 S 
ATOM      8  N   UNL     1       2.859   3.066  19.186  0.00  0.00    +0.000 N 
ATOM      9  C   UNL     1       1.864   1.984  19.350  0.00  0.00    +0.000 C 
ATOM     10  H   UNL     1       5.897   3.823  20.006  0.00  0.00    +0.000 HD
ENDROOT
BRANCH   4  11
ATOM     11  C   UNL     1       5.682   5.176  17.717  0.00  0.00    +0.000 A 
ATOM     12  C   UNL     1       6.719   6.124  17.637  0.00  0.00    +0.000 A 
ATOM     13  C   UNL     1       7.585   6.145  16.541  0.00  0.00    +0.000 A 
ATOM     14  C   UNL     1       7.431   5.218  15.512  0.00  0.00    +0.000 A 
ATOM     15  C   UNL     1       6.412   4.274  15.590  0.00  0.00    +0.000 A 
ATOM     16  C   UNL     1       5.547   4.242  16.678  0.00  0.00    +0.000 A 
BRANCH  15  17
ATOM     17  O   UNL     1       6.224   3.353  14.603  0.00  0.00    +0.000 OA
ATOM     18  H   UNL     1       6.012   3.824  13.782  0.00  0.00    +0.000 HD
ENDBRANCH  15  17
ENDBRANCH   4  11
BRANCH   3  19
ATOM     19  C   UNL     1       2.987   6.773  18.126  0.00  0.00    +0.000 C 
ATOM     20  O   UNL     1       3.442   7.234  17.073  0.00  0.00    +0.000 OA
BRANCH  19  21
ATOM     21  C   UNL     1       2.216   7.718  18.963  0.00  0.00    +0.000 A 
ATOM     22  C   UNL     1       1.944   7.471  20.314  0.00  0.00    +0.000 A 
ATOM     23  C   UNL     1       1.080   8.318  21.009  0.00  0.00    +0.000 A 
ATOM     24  C   UNL     1       0.569   9.450  20.381  0.00  0.00    +0.000 A 
ATOM     25  F   UNL     1      -0.283  10.243  21.044  0.00  0.00    +0.000 F 
ATOM     26  C   UNL     1       0.926   9.769  19.076  0.00  0.00    +0.000 A 
ATOM     27  C   UNL     1       1.752   8.900  18.363  0.00  0.00    +0.000 A 
ENDBRANCH  19  21
ENDBRANCH   3  19
TORSDOF 4
ENDMDL
