MODEL 1
REMARK VINA RESULT:      -7.8      0.000      0.000
REMARK  Name = 
REMARK  5 active torsions:
REMARK  status: ('A' for Active; 'I' for Inactive)
REMARK    1  A    between atoms: C_2  and  C_3
REMARK    2  A    between atoms: C_3  and  N_4
REMARK    3  A    between atoms: C_8  and  C_10
REMARK    4  A    between atoms: N_17  and  C_18
REMARK    5  A    between atoms: C_20  and  C_21
REMARK                            x       y       z     vdW  Elec       q    Type
REMARK                         _______ _______ _______ _____ _____    ______ ____
ROOT
ATOM      1  O   UNL     1       2.369   5.202  20.938  0.00  0.00    +0.000 OA
ATOM      2  C   UNL     1       2.102   6.225  20.310  0.00  0.00    +0.000 C 
ATOM      3  N   UNL     1       2.605   6.543  19.067  0.00  0.00    +0.000 N 
ATOM      4  H   UNL     1       2.075   7.216  18.525  0.00  0.00    +0.000 HD
ENDROOT
BRANCH   3   5
ATOM      5  C   UNL     1       3.505   5.703  18.369  0.00  0.00    +0.000 A 
ATOM      6  C   UNL     1       4.886   5.945  18.398  0.00  0.00    +0.000 A 
ATOM      7  C   UNL     1       5.789   5.074  17.769  0.00  0.00    +0.000 A 
ATOM      8  C   UNL     1       5.291   3.916  17.154  0.00  0.00    +0.000 A 
ATOM      9  C   UNL     1       3.915   3.688  17.080  0.00  0.00    +0.000 A 
ATOM     10  C   UNL     1       3.023   4.604  17.645  0.00  0.00    +0.000 A 
ATOM     11 CL   UNL     1       1.327   4.301  17.501  0.00  0.00    +0.000 Cl
BRANCH   7  12
ATOM     12  C   UNL     1       7.271   5.375  17.738  0.00  0.00    +0.000 C 
ATOM     13  F   UNL     1       7.757   5.863  18.910  0.00  0.00    +0.000 F 
ATOM     14  F   UNL     1       8.023   4.281  17.440  0.00  0.00    +0.000 F 
ATOM     15  F   UNL     1       7.579   6.307  16.794  0.00  0.00    +0.000 F 
ENDBRANCH   7  12
ENDBRANCH   3   5
BRANCH   2  16
ATOM     16  C   UNL     1       1.094   7.231  20.876  0.00  0.00    +0.000 C 
BRANCH  16  17
ATOM     17  N   UNL     1       1.663   8.590  21.017  0.00  0.00    +0.000 NA
ATOM     18  C   UNL     1       1.201   9.459  19.897  0.00  0.00    +0.000 C 
ATOM     19  C   UNL     1      -0.270   9.950  19.969  0.00  0.00    +0.000 C 
ATOM     20  N   UNL     1      -0.632  10.439  21.304  0.00  0.00    +0.000 N 
ATOM     21  C   UNL     1      -1.436  11.564  21.452  0.00  0.00    +0.000 C 
ATOM     22  O   UNL     1      -1.908  12.146  20.469  0.00  0.00    +0.000 OA
ATOM     23  C   UNL     1      -0.224   9.567  22.399  0.00  0.00    +0.000 C 
ATOM     24  C   UNL     1       1.275   9.244  22.291  0.00  0.00    +0.000 C 
BRANCH  21  25
ATOM     25  C   UNL     1      -1.734  12.039  22.890  0.00  0.00    +0.000 C 
ATOM     26  C   UNL     1      -3.164  12.520  23.098  0.00  0.00    +0.000 C 
ATOM     27  C   UNL     1      -3.023  13.537  24.202  0.00  0.00    +0.000 C 
ATOM     28  C   UNL     1      -1.658  14.129  23.945  0.00  0.00    +0.000 C 
ATOM     29  O   UNL     1      -0.881  13.126  23.290  0.00  0.00    +0.000 OA
ENDBRANCH  21  25
ENDBRANCH  16  17
ENDBRANCH   2  16
TORSDOF 5
ENDMDL
MODEL 2
REMARK VINA RESULT:      -7.4      1.830      2.139
REMARK  Name = 
REMARK  5 active torsions:
REMARK  status: ('A' for Active; 'I' for Inactive)
REMARK    1  A    between atoms: C_2  and  C_3
REMARK    2  A    between atoms: C_3  and  N_4
REMARK    3  A    between atoms: C_8  and  C_10
REMARK    4  A    between atoms: N_17  and  C_18
REMARK    5  A    between atoms: C_20  and  C_21
REMARK                            x       y       z     vdW  Elec       q    Type
REMARK                         _______ _______ _______ _____ _____    ______ ____
ROOT
ATOM      1  O   UNL     1       2.612   8.379  17.099  0.00  0.00    +0.000 OA
ATOM      2  C   UNL     1       2.340   8.030  18.246  0.00  0.00    +0.000 C 
ATOM      3  N   UNL     1       2.744   6.849  18.830  0.00  0.00    +0.000 N 
ATOM      4  H   UNL     1       2.747   6.824  19.844  0.00  0.00    +0.000 HD
ENDROOT
BRANCH   3   5
ATOM      5  C   UNL     1       3.535   5.891  18.150  0.00  0.00    +0.000 A 
ATOM      6  C   UNL     1       4.919   6.070  18.009  0.00  0.00    +0.000 A 
ATOM      7  C   UNL     1       5.718   5.089  17.401  0.00  0.00    +0.000 A 
ATOM      8  C   UNL     1       5.117   3.893  16.983  0.00  0.00    +0.000 A 
ATOM      9  C   UNL     1       3.734   3.724  17.079  0.00  0.00    +0.000 A 
ATOM     10  C   UNL     1       2.940   4.740  17.617  0.00  0.00    +0.000 A 
ATOM     11 CL   UNL     1       1.229   4.503  17.685  0.00  0.00    +0.000 Cl
BRANCH   7  12
ATOM     12  C   UNL     1       7.198   5.315  17.182  0.00  0.00    +0.000 C 
ATOM     13  F   UNL     1       7.689   4.698  16.074  0.00  0.00    +0.000 F 
ATOM     14  F   UNL     1       7.514   6.632  17.055  0.00  0.00    +0.000 F 
ATOM     15  F   UNL     1       7.942   4.852  18.224  0.00  0.00    +0.000 F 
ENDBRANCH   7  12
ENDBRANCH   3   5
BRANCH   2  16
ATOM     16  C   UNL     1       1.543   8.964  19.162  0.00  0.00    +0.000 C 
BRANCH  16  17
ATOM     17  N   UNL     1       1.174  10.235  18.499  0.00  0.00    +0.000 NA
ATOM     18  C   UNL     1      -0.293  10.268  18.233  0.00  0.00    +0.000 C 
ATOM     19  C   UNL     1      -1.209  10.518  19.461  0.00  0.00    +0.000 C 
ATOM     20  N   UNL     1      -0.722  11.611  20.310  0.00  0.00    +0.000 N 
ATOM     21  C   UNL     1      -1.612  12.512  20.884  0.00  0.00    +0.000 C 
ATOM     22  O   UNL     1      -2.834  12.384  20.740  0.00  0.00    +0.000 OA
ATOM     23  C   UNL     1       0.703  11.554  20.612  0.00  0.00    +0.000 C 
ATOM     24  C   UNL     1       1.516  11.426  19.314  0.00  0.00    +0.000 C 
BRANCH  21  25
ATOM     25  C   UNL     1      -1.017  13.659  21.727  0.00  0.00    +0.000 C 
ATOM     26  C   UNL     1      -1.204  13.484  23.229  0.00  0.00    +0.000 C 
ATOM     27  C   UNL     1      -1.246  14.904  23.734  0.00  0.00    +0.000 C 
ATOM     28  C   UNL     1      -1.897  15.649  22.593  0.00  0.00    +0.000 C 
ATOM     29  O   UNL     1      -1.595  14.933  21.395  0.00  0.00    +0.000 OA
ENDBRANCH  21  25
ENDBRANCH  16  17
ENDBRANCH   2  16
TORSDOF 5
ENDMDL
MODEL 3
REMARK VINA RESULT:      -7.3      1.704      1.830
REMARK  Name = 
REMARK  5 active torsions:
REMARK  status: ('A' for Active; 'I' for Inactive)
REMARK    1  A    between atoms: C_2  and  C_3
REMARK    2  A    between atoms: C_3  and  N_4
REMARK    3  A    between atoms: C_8  and  C_10
REMARK    4  A    between atoms: N_17  and  C_18
REMARK    5  A    between atoms: C_20  and  C_21
REMARK                            x       y       z     vdW  Elec       q    Type
REMARK                         _______ _______ _______ _____ _____    ______ ____
ROOT
ATOM      1  O   UNL     1       2.214   8.634  17.398  0.00  0.00    +0.000 OA
ATOM      2  C   UNL     1       2.037   8.202  18.536  0.00  0.00    +0.000 C 
ATOM      3  N   UNL     1       2.606   7.054  19.043  0.00  0.00    +0.000 N 
ATOM      4  H   UNL     1       2.656   6.983  20.052  0.00  0.00    +0.000 HD
ENDROOT
BRANCH   3   5
ATOM      5  C   UNL     1       3.476   6.233  18.285  0.00  0.00    +0.000 A 
ATOM      6  C   UNL     1       4.822   6.582  18.106  0.00  0.00    +0.000 A 
ATOM      7  C   UNL     1       5.706   5.736  17.418  0.00  0.00    +0.000 A 
ATOM      8  C   UNL     1       5.234   4.499  16.956  0.00  0.00    +0.000 A 
ATOM      9  C   UNL     1       3.885   4.161  17.090  0.00  0.00    +0.000 A 
ATOM     10  C   UNL     1       3.000   5.047  17.710  0.00  0.00    +0.000 A 
ATOM     11 CL   UNL     1       1.333   4.604  17.823  0.00  0.00    +0.000 Cl
BRANCH   7  12
ATOM     12  C   UNL     1       7.139   6.148  17.161  0.00  0.00    +0.000 C 
ATOM     13  F   UNL     1       7.341   7.492  17.209  0.00  0.00    +0.000 F 
ATOM     14  F   UNL     1       8.010   5.600  18.052  0.00  0.00    +0.000 F 
ATOM     15  F   UNL     1       7.568   5.754  15.930  0.00  0.00    +0.000 F 
ENDBRANCH   7  12
ENDBRANCH   3   5
BRANCH   2  16
ATOM     16  C   UNL     1       1.174   8.988  19.528  0.00  0.00    +0.000 C 
BRANCH  16  17
ATOM     17  N   UNL     1       1.194  10.445  19.273  0.00  0.00    +0.000 NA
ATOM     18  C   UNL     1       0.041  10.831  18.409  0.00  0.00    +0.000 C 
ATOM     19  C   UNL     1      -1.351  10.861  19.094  0.00  0.00    +0.000 C 
ATOM     20  N   UNL     1      -1.320  11.534  20.398  0.00  0.00    +0.000 N 
ATOM     21  C   UNL     1      -2.361  12.366  20.790  0.00  0.00    +0.000 C 
ATOM     22  O   UNL     1      -3.361  12.519  20.079  0.00  0.00    +0.000 OA
ATOM     23  C   UNL     1      -0.221  11.123  21.264  0.00  0.00    +0.000 C 
ATOM     24  C   UNL     1       1.118  11.246  20.519  0.00  0.00    +0.000 C 
BRANCH  21  25
ATOM     25  C   UNL     1      -2.231  13.070  22.157  0.00  0.00    +0.000 C 
ATOM     26  C   UNL     1      -3.063  12.433  23.263  0.00  0.00    +0.000 C 
ATOM     27  C   UNL     1      -3.359  13.595  24.177  0.00  0.00    +0.000 C 
ATOM     28  C   UNL     1      -3.451  14.762  23.223  0.00  0.00    +0.000 C 
ATOM     29  O   UNL     1      -2.630  14.451  22.097  0.00  0.00    +0.000 OA
ENDBRANCH  21  25
ENDBRANCH  16  17
ENDBRANCH   2  16
TORSDOF 5
ENDMDL
MODEL 4
REMARK VINA RESULT:      -7.3      0.978      1.230
REMARK  Name = 
REMARK  5 active torsions:
REMARK  status: ('A' for Active; 'I' for Inactive)
REMARK    1  A    between atoms: C_2  and  C_3
REMARK    2  A    between atoms: C_3  and  N_4
REMARK    3  A    between atoms: C_8  and  C_10
REMARK    4  A    between atoms: N_17  and  C_18
REMARK    5  A    between atoms: C_20  and  C_21
REMARK                            x       y       z     vdW  Elec       q    Type
REMARK                         _______ _______ _______ _____ _____    ______ ____
ROOT
ATOM      1  O   UNL     1       2.241   7.887  18.543  0.00  0.00    +0.000 OA
ATOM      2  C   UNL     1       2.117   7.339  19.637  0.00  0.00    +0.000 C 
ATOM      3  N   UNL     1       2.745   6.171  20.013  0.00  0.00    +0.000 N 
ATOM      4  H   UNL     1       2.829   6.005  21.009  0.00  0.00    +0.000 HD
ENDROOT
BRANCH   3   5
ATOM      5  C   UNL     1       3.619   5.464  19.154  0.00  0.00    +0.000 A 
ATOM      6  C   UNL     1       5.001   5.707  19.173  0.00  0.00    +0.000 A 
ATOM      7  C   UNL     1       5.881   4.958  18.377  0.00  0.00    +0.000 A 
ATOM      8  C   UNL     1       5.362   3.915  17.597  0.00  0.00    +0.000 A 
ATOM      9  C   UNL     1       3.984   3.692  17.536  0.00  0.00    +0.000 A 
ATOM     10  C   UNL     1       3.113   4.496  18.277  0.00  0.00    +0.000 A 
ATOM     11 CL   UNL     1       1.413   4.209  18.145  0.00  0.00    +0.000 Cl
BRANCH   7  12
ATOM     12  C   UNL     1       7.361   5.271  18.343  0.00  0.00    +0.000 C 
ATOM     13  F   UNL     1       8.121   4.273  17.819  0.00  0.00    +0.000 F 
ATOM     14  F   UNL     1       7.643   6.387  17.617  0.00  0.00    +0.000 F 
ATOM     15  F   UNL     1       7.860   5.501  19.589  0.00  0.00    +0.000 F 
ENDBRANCH   7  12
ENDBRANCH   3   5
BRANCH   2  16
ATOM     16  C   UNL     1       1.257   7.990  20.726  0.00  0.00    +0.000 C 
BRANCH  16  17
ATOM     17  N   UNL     1       1.642   9.393  20.995  0.00  0.00    +0.000 NA
ATOM     18  C   UNL     1       1.098  10.287  19.932  0.00  0.00    +0.000 C 
ATOM     19  C   UNL     1      -0.424  10.580  19.993  0.00  0.00    +0.000 C 
ATOM     20  N   UNL     1      -0.879  10.906  21.350  0.00  0.00    +0.000 N 
ATOM     21  C   UNL     1      -1.824  11.903  21.559  0.00  0.00    +0.000 C 
ATOM     22  O   UNL     1      -2.344  12.502  20.610  0.00  0.00    +0.000 OA
ATOM     23  C   UNL     1      -0.388  10.004  22.385  0.00  0.00    +0.000 C 
ATOM     24  C   UNL     1       1.142   9.883  22.303  0.00  0.00    +0.000 C 
BRANCH  21  25
ATOM     25  C   UNL     1      -2.215  12.215  23.019  0.00  0.00    +0.000 C 
ATOM     26  C   UNL     1      -3.700  12.497  23.214  0.00  0.00    +0.000 C 
ATOM     27  C   UNL     1      -3.716  13.426  24.402  0.00  0.00    +0.000 C 
ATOM     28  C   UNL     1      -2.430  14.201  24.242  0.00  0.00    +0.000 C 
ATOM     29  O   UNL     1      -1.516  13.361  23.535  0.00  0.00    +0.000 OA
ENDBRANCH  21  25
ENDBRANCH  16  17
ENDBRANCH   2  16
TORSDOF 5
ENDMDL
MODEL 5
REMARK VINA RESULT:      -7.2      1.633      2.159
REMARK  Name = 
REMARK  5 active torsions:
REMARK  status: ('A' for Active; 'I' for Inactive)
REMARK    1  A    between atoms: C_2  and  C_3
REMARK    2  A    between atoms: C_3  and  N_4
REMARK    3  A    between atoms: C_8  and  C_10
REMARK    4  A    between atoms: N_17  and  C_18
REMARK    5  A    between atoms: C_20  and  C_21
REMARK                            x       y       z     vdW  Elec       q    Type
REMARK                         _______ _______ _______ _____ _____    ______ ____
ROOT
ATOM      1  O   UNL     1       2.308   7.899  18.140  0.00  0.00    +0.000 OA
ATOM      2  C   UNL     1       2.387   7.431  19.274  0.00  0.00    +0.000 C 
ATOM      3  N   UNL     1       3.038   6.262  19.604  0.00  0.00    +0.000 N 
ATOM      4  H   UNL     1       3.315   6.157  20.573  0.00  0.00    +0.000 HD
ENDROOT
BRANCH   3   5
ATOM      5  C   UNL     1       3.701   5.460  18.644  0.00  0.00    +0.000 A 
ATOM      6  C   UNL     1       5.069   5.628  18.386  0.00  0.00    +0.000 A 
ATOM      7  C   UNL     1       5.747   4.787  17.489  0.00  0.00    +0.000 A 
ATOM      8  C   UNL     1       5.044   3.731  16.892  0.00  0.00    +0.000 A 
ATOM      9  C   UNL     1       3.671   3.582  17.107  0.00  0.00    +0.000 A 
ATOM     10  C   UNL     1       2.994   4.473  17.944  0.00  0.00    +0.000 A 
ATOM     11 CL   UNL     1       1.290   4.273  18.155  0.00  0.00    +0.000 Cl
BRANCH   7  12
ATOM     12  C   UNL     1       7.205   5.016  17.155  0.00  0.00    +0.000 C 
ATOM     13  F   UNL     1       8.064   4.316  17.943  0.00  0.00    +0.000 F 
ATOM     14  F   UNL     1       7.507   4.682  15.871  0.00  0.00    +0.000 F 
ATOM     15  F   UNL     1       7.558   6.323  17.294  0.00  0.00    +0.000 F 
ENDBRANCH   7  12
ENDBRANCH   3   5
BRANCH   2  16
ATOM     16  C   UNL     1       1.783   8.191  20.460  0.00  0.00    +0.000 C 
BRANCH  16  17
ATOM     17  N   UNL     1       0.377   8.590  20.226  0.00  0.00    +0.000 NA
ATOM     18  C   UNL     1      -0.365   8.638  21.519  0.00  0.00    +0.000 C 
ATOM     19  C   UNL     1      -0.061   9.849  22.441  0.00  0.00    +0.000 C 
ATOM     20  N   UNL     1      -0.039  11.120  21.707  0.00  0.00    +0.000 N 
ATOM     21  C   UNL     1      -0.582  12.270  22.267  0.00  0.00    +0.000 C 
ATOM     22  O   UNL     1      -1.048  12.265  23.413  0.00  0.00    +0.000 OA
ATOM     23  C   UNL     1       0.727  11.089  20.467  0.00  0.00    +0.000 C 
ATOM     24  C   UNL     1       0.260   9.921  19.583  0.00  0.00    +0.000 C 
BRANCH  21  25
ATOM     25  C   UNL     1      -0.558  13.555  21.413  0.00  0.00    +0.000 C 
ATOM     26  C   UNL     1       0.519  14.551  21.824  0.00  0.00    +0.000 C 
ATOM     27  C   UNL     1      -0.077  15.879  21.429  0.00  0.00    +0.000 C 
ATOM     28  C   UNL     1      -1.556  15.662  21.641  0.00  0.00    +0.000 C 
ATOM     29  O   UNL     1      -1.807  14.266  21.468  0.00  0.00    +0.000 OA
ENDBRANCH  21  25
ENDBRANCH  16  17
ENDBRANCH   2  16
TORSDOF 5
ENDMDL
MODEL 6
REMARK VINA RESULT:      -7.2      3.764      4.448
REMARK  Name = 
REMARK  5 active torsions:
REMARK  status: ('A' for Active; 'I' for Inactive)
REMARK    1  A    between atoms: C_2  and  C_3
REMARK    2  A    between atoms: C_3  and  N_4
REMARK    3  A    between atoms: C_8  and  C_10
REMARK    4  A    between atoms: N_17  and  C_18
REMARK    5  A    between atoms: C_20  and  C_21
REMARK                            x       y       z     vdW  Elec       q    Type
REMARK                         _______ _______ _______ _____ _____    ______ ____
ROOT
ATOM      1  O   UNL     1       2.129   7.733  20.210  0.00  0.00    +0.000 OA
ATOM      2  C   UNL     1       2.014   8.100  19.042  0.00  0.00    +0.000 C 
ATOM      3  N   UNL     1       2.252   7.309  17.938  0.00  0.00    +0.000 N 
ATOM      4  H   UNL     1       1.817   7.603  17.071  0.00  0.00    +0.000 HD
ENDROOT
BRANCH   3   5
ATOM      5  C   UNL     1       2.664   5.959  18.040  0.00  0.00    +0.000 A 
ATOM      6  C   UNL     1       1.800   4.979  18.550  0.00  0.00    +0.000 A 
ATOM      7  C   UNL     1       2.176   3.627  18.585  0.00  0.00    +0.000 A 
ATOM      8  C   UNL     1       3.417   3.258  18.045  0.00  0.00    +0.000 A 
ATOM      9  C   UNL     1       4.303   4.231  17.576  0.00  0.00    +0.000 A 
ATOM     10  C   UNL     1       3.945   5.581  17.617  0.00  0.00    +0.000 A 
ATOM     11 CL   UNL     1       5.086   6.754  17.059  0.00  0.00    +0.000 Cl
BRANCH   7  12
ATOM     12  C   UNL     1       1.274   2.582  19.203  0.00  0.00    +0.000 C 
ATOM     13  F   UNL     1       0.168   2.303  18.462  0.00  0.00    +0.000 F 
ATOM     14  F   UNL     1       1.907   1.394  19.403  0.00  0.00    +0.000 F 
ATOM     15  F   UNL     1       0.812   2.968  20.424  0.00  0.00    +0.000 F 
ENDBRANCH   7  12
ENDBRANCH   3   5
BRANCH   2  16
ATOM     16  C   UNL     1       1.517   9.515  18.728  0.00  0.00    +0.000 C 
BRANCH  16  17
ATOM     17  N   UNL     1       0.275   9.857  19.457  0.00  0.00    +0.000 NA
ATOM     18  C   UNL     1       0.604  10.386  20.812  0.00  0.00    +0.000 C 
ATOM     19  C   UNL     1       1.164  11.832  20.869  0.00  0.00    +0.000 C 
ATOM     20  N   UNL     1       0.404  12.761  20.024  0.00  0.00    +0.000 N 
ATOM     21  C   UNL     1       0.136  14.054  20.458  0.00  0.00    +0.000 C 
ATOM     22  O   UNL     1       0.574  14.471  21.537  0.00  0.00    +0.000 OA
ATOM     23  C   UNL     1       0.123  12.266  18.682  0.00  0.00    +0.000 C 
ATOM     24  C   UNL     1      -0.538  10.880  18.754  0.00  0.00    +0.000 C 
BRANCH  21  25
ATOM     25  C   UNL     1      -0.708  14.953  19.530  0.00  0.00    +0.000 C 
ATOM     26  C   UNL     1       0.112  15.963  18.736  0.00  0.00    +0.000 C 
ATOM     27  C   UNL     1      -0.857  17.101  18.532  0.00  0.00    +0.000 C 
ATOM     28  C   UNL     1      -1.694  17.062  19.788  0.00  0.00    +0.000 C 
ATOM     29  O   UNL     1      -1.690  15.712  20.256  0.00  0.00    +0.000 OA
ENDBRANCH  21  25
ENDBRANCH  16  17
ENDBRANCH   2  16
TORSDOF 5
ENDMDL
MODEL 7
REMARK VINA RESULT:      -7.2      4.101      5.284
REMARK  Name = 
REMARK  5 active torsions:
REMARK  status: ('A' for Active; 'I' for Inactive)
REMARK    1  A    between atoms: C_2  and  C_3
REMARK    2  A    between atoms: C_3  and  N_4
REMARK    3  A    between atoms: C_8  and  C_10
REMARK    4  A    between atoms: N_17  and  C_18
REMARK    5  A    between atoms: C_20  and  C_21
REMARK                            x       y       z     vdW  Elec       q    Type
REMARK                         _______ _______ _______ _____ _____    ______ ____
ROOT
ATOM      1  O   UNL     1      -0.639   7.933  21.421  0.00  0.00    +0.000 OA
ATOM      2  C   UNL     1       0.292   8.735  21.375  0.00  0.00    +0.000 C 
ATOM      3  N   UNL     1       1.514   8.495  20.785  0.00  0.00    +0.000 N 
ATOM      4  H   UNL     1       2.056   9.311  20.523  0.00  0.00    +0.000 HD
ENDROOT
BRANCH   3   5
ATOM      5  C   UNL     1       1.831   7.268  20.155  0.00  0.00    +0.000 A 
ATOM      6  C   UNL     1       1.732   6.054  20.852  0.00  0.00    +0.000 A 
ATOM      7  C   UNL     1       1.974   4.829  20.212  0.00  0.00    +0.000 A 
ATOM      8  C   UNL     1       2.262   4.830  18.840  0.00  0.00    +0.000 A 
ATOM      9  C   UNL     1       2.406   6.034  18.147  0.00  0.00    +0.000 A 
ATOM     10  C   UNL     1       2.238   7.250  18.815  0.00  0.00    +0.000 A 
ATOM     11 CL   UNL     1       2.460   8.717  17.927  0.00  0.00    +0.000 Cl
BRANCH   7  12
ATOM     12  C   UNL     1       1.940   3.527  20.982  0.00  0.00    +0.000 C 
ATOM     13  F   UNL     1       0.701   2.974  21.071  0.00  0.00    +0.000 F 
ATOM     14  F   UNL     1       2.744   2.574  20.437  0.00  0.00    +0.000 F 
ATOM     15  F   UNL     1       2.367   3.685  22.265  0.00  0.00    +0.000 F 
ENDBRANCH   7  12
ENDBRANCH   3   5
BRANCH   2  16
ATOM     16  C   UNL     1       0.118  10.145  21.951  0.00  0.00    +0.000 C 
BRANCH  16  17
ATOM     17  N   UNL     1      -0.727  11.009  21.097  0.00  0.00    +0.000 NA
ATOM     18  C   UNL     1      -1.036  12.285  21.805  0.00  0.00    +0.000 C 
ATOM     19  C   UNL     1       0.118  13.318  21.896  0.00  0.00    +0.000 C 
ATOM     20  N   UNL     1       0.819  13.489  20.619  0.00  0.00    +0.000 N 
ATOM     21  C   UNL     1       1.236  14.748  20.203  0.00  0.00    +0.000 C 
ATOM     22  O   UNL     1       1.076  15.744  20.919  0.00  0.00    +0.000 OA
ATOM     23  C   UNL     1       1.166  12.242  19.948  0.00  0.00    +0.000 C 
ATOM     24  C   UNL     1      -0.077  11.350  19.808  0.00  0.00    +0.000 C 
BRANCH  21  25
ATOM     25  C   UNL     1       1.927  14.849  18.827  0.00  0.00    +0.000 C 
ATOM     26  C   UNL     1       3.434  14.634  18.874  0.00  0.00    +0.000 C 
ATOM     27  C   UNL     1       3.931  15.451  17.709  0.00  0.00    +0.000 C 
ATOM     28  C   UNL     1       2.955  16.602  17.663  0.00  0.00    +0.000 C 
ATOM     29  O   UNL     1       1.722  16.132  18.210  0.00  0.00    +0.000 OA
ENDBRANCH  21  25
ENDBRANCH  16  17
ENDBRANCH   2  16
TORSDOF 5
ENDMDL
MODEL 8
REMARK VINA RESULT:      -7.1      2.022      2.410
REMARK  Name = 
REMARK  5 active torsions:
REMARK  status: ('A' for Active; 'I' for Inactive)
REMARK    1  A    between atoms: C_2  and  C_3
REMARK    2  A    between atoms: C_3  and  N_4
REMARK    3  A    between atoms: C_8  and  C_10
REMARK    4  A    between atoms: N_17  and  C_18
REMARK    5  A    between atoms: C_20  and  C_21
REMARK                            x       y       z     vdW  Elec       q    Type
REMARK                         _______ _______ _______ _____ _____    ______ ____
ROOT
ATOM      1  O   UNL     1       2.668   8.449  17.139  0.00  0.00    +0.000 OA
ATOM      2  C   UNL     1       2.336   8.080  18.264  0.00  0.00    +0.000 C 
ATOM      3  N   UNL     1       2.718   6.895  18.853  0.00  0.00    +0.000 N 
ATOM      4  H   UNL     1       2.664   6.855  19.864  0.00  0.00    +0.000 HD
ENDROOT
BRANCH   3   5
ATOM      5  C   UNL     1       3.555   5.954  18.204  0.00  0.00    +0.000 A 
ATOM      6  C   UNL     1       4.941   6.156  18.128  0.00  0.00    +0.000 A 
ATOM      7  C   UNL     1       5.784   5.193  17.552  0.00  0.00    +0.000 A 
ATOM      8  C   UNL     1       5.223   3.990  17.100  0.00  0.00    +0.000 A 
ATOM      9  C   UNL     1       3.839   3.798  17.130  0.00  0.00    +0.000 A 
ATOM     10  C   UNL     1       3.005   4.798  17.638  0.00  0.00    +0.000 A 
ATOM     11 CL   UNL     1       1.297   4.532  17.624  0.00  0.00    +0.000 Cl
BRANCH   7  12
ATOM     12  C   UNL     1       7.268   5.444  17.403  0.00  0.00    +0.000 C 
ATOM     13  F   UNL     1       7.775   6.303  18.328  0.00  0.00    +0.000 F 
ATOM     14  F   UNL     1       8.005   4.304  17.499  0.00  0.00    +0.000 F 
ATOM     15  F   UNL     1       7.573   5.984  16.191  0.00  0.00    +0.000 F 
ENDBRANCH   7  12
ENDBRANCH   3   5
BRANCH   2  16
ATOM     16  C   UNL     1       1.479   8.994  19.147  0.00  0.00    +0.000 C 
BRANCH  16  17
ATOM     17  N   UNL     1       0.974  10.180  18.421  0.00  0.00    +0.000 NA
ATOM     18  C   UNL     1      -0.502  10.298  18.593  0.00  0.00    +0.000 C 
ATOM     19  C   UNL     1      -0.995  10.801  19.976  0.00  0.00    +0.000 C 
ATOM     20  N   UNL     1      -0.235  11.962  20.453  0.00  0.00    +0.000 N 
ATOM     21  C   UNL     1      -0.876  13.009  21.105  0.00  0.00    +0.000 C 
ATOM     22  O   UNL     1      -2.088  12.965  21.347  0.00  0.00    +0.000 OA
ATOM     23  C   UNL     1       1.212  11.830  20.330  0.00  0.00    +0.000 C 
ATOM     24  C   UNL     1       1.591  11.445  18.891  0.00  0.00    +0.000 C 
BRANCH  21  25
ATOM     25  C   UNL     1      -0.012  14.213  21.536  0.00  0.00    +0.000 C 
ATOM     26  C   UNL     1      -0.496  14.898  22.808  0.00  0.00    +0.000 C 
ATOM     27  C   UNL     1      -0.039  16.323  22.621  0.00  0.00    +0.000 C 
ATOM     28  C   UNL     1      -0.136  16.516  21.126  0.00  0.00    +0.000 C 
ATOM     29  O   UNL     1       0.040  15.233  20.523  0.00  0.00    +0.000 OA
ENDBRANCH  21  25
ENDBRANCH  16  17
ENDBRANCH   2  16
TORSDOF 5
ENDMDL
MODEL 9
REMARK VINA RESULT:      -7.1      1.333      1.662
REMARK  Name = 
REMARK  5 active torsions:
REMARK  status: ('A' for Active; 'I' for Inactive)
REMARK    1  A    between atoms: C_2  and  C_3
REMARK    2  A    between atoms: C_3  and  N_4
REMARK    3  A    between atoms: C_8  and  C_10
REMARK    4  A    between atoms: N_17  and  C_18
REMARK    5  A    between atoms: C_20  and  C_21
REMARK                            x       y       z     vdW  Elec       q    Type
REMARK                         _______ _______ _______ _____ _____    ______ ____
ROOT
ATOM      1  O   UNL     1       2.240   7.523  20.085  0.00  0.00    +0.000 OA
ATOM      2  C   UNL     1       2.101   7.983  18.953  0.00  0.00    +0.000 C 
ATOM      3  N   UNL     1       2.711   7.491  17.819  0.00  0.00    +0.000 N 
ATOM      4  H   UNL     1       2.276   7.727  16.935  0.00  0.00    +0.000 HD
ENDROOT
BRANCH   3   5
ATOM      5  C   UNL     1       3.583   6.376  17.844  0.00  0.00    +0.000 A 
ATOM      6  C   UNL     1       4.973   6.550  17.910  0.00  0.00    +0.000 A 
ATOM      7  C   UNL     1       5.838   5.450  18.008  0.00  0.00    +0.000 A 
ATOM      8  C   UNL     1       5.286   4.164  18.097  0.00  0.00    +0.000 A 
ATOM      9  C   UNL     1       3.906   3.976  17.987  0.00  0.00    +0.000 A 
ATOM     10  C   UNL     1       3.062   5.076  17.813  0.00  0.00    +0.000 A 
ATOM     11 CL   UNL     1       1.365   4.795  17.647  0.00  0.00    +0.000 Cl
BRANCH   7  12
ATOM     12  C   UNL     1       7.340   5.635  18.005  0.00  0.00    +0.000 C 
ATOM     13  F   UNL     1       8.022   4.577  17.490  0.00  0.00    +0.000 F 
ATOM     14  F   UNL     1       7.732   6.725  17.290  0.00  0.00    +0.000 F 
ATOM     15  F   UNL     1       7.832   5.816  19.261  0.00  0.00    +0.000 F 
ENDBRANCH   7  12
ENDBRANCH   3   5
BRANCH   2  16
ATOM     16  C   UNL     1       1.145   9.157  18.715  0.00  0.00    +0.000 C 
BRANCH  16  17
ATOM     17  N   UNL     1       1.528  10.367  19.476  0.00  0.00    +0.000 NA
ATOM     18  C   UNL     1       1.045  11.590  18.771  0.00  0.00    +0.000 C 
ATOM     19  C   UNL     1      -0.477  11.881  18.864  0.00  0.00    +0.000 C 
ATOM     20  N   UNL     1      -0.996  11.723  20.227  0.00  0.00    +0.000 N 
ATOM     21  C   UNL     1      -1.943  12.607  20.731  0.00  0.00    +0.000 C 
ATOM     22  O   UNL     1      -2.409  13.513  20.030  0.00  0.00    +0.000 OA
ATOM     23  C   UNL     1      -0.565  10.504  20.900  0.00  0.00    +0.000 C 
ATOM     24  C   UNL     1       0.967  10.381  20.849  0.00  0.00    +0.000 C 
BRANCH  21  25
ATOM     25  C   UNL     1      -2.404  12.398  22.189  0.00  0.00    +0.000 C 
ATOM     26  C   UNL     1      -3.885  12.675  22.414  0.00  0.00    +0.000 C 
ATOM     27  C   UNL     1      -3.933  13.118  23.855  0.00  0.00    +0.000 C 
ATOM     28  C   UNL     1      -2.611  13.825  24.035  0.00  0.00    +0.000 C 
ATOM     29  O   UNL     1      -1.692  13.242  23.110  0.00  0.00    +0.000 OA
ENDBRANCH  21  25
ENDBRANCH  16  17
ENDBRANCH   2  16
TORSDOF 5
ENDMDL
