MODEL 1
REMARK VINA RESULT:      -6.8      0.000      0.000
REMARK  Name = 
REMARK  5 active torsions:
REMARK  status: ('A' for Active; 'I' for Inactive)
REMARK    1  A    between atoms: C_1  and  C_2
REMARK    2  A    between atoms: N_4  and  C_5
REMARK    3  A    between atoms: C_5  and  C_6
REMARK    4  A    between atoms: C_8  and  C_9
REMARK    5  A    between atoms: N_15  and  C_16
REMARK                            x       y       z     vdW  Elec       q    Type
REMARK                         _______ _______ _______ _____ _____    ______ ____
ROOT
ATOM      1  C   UNL     1       6.229   4.657  17.545  0.00  0.00    +0.000 A 
ATOM      2  C   UNL     1       4.968   4.107  17.652  0.00  0.00    +0.000 A 
ATOM      3  C   UNL     1       4.499   4.477  18.932  0.00  0.00    +0.000 A 
ATOM      4  N   UNL     1       5.411   5.203  19.593  0.00  0.00    +0.000 NA
ATOM      5  N   UNL     1       6.465   5.257  18.756  0.00  0.00    +0.000 N 
ATOM      6  C   UNL     1       7.705   5.839  19.217  0.00  0.00    +0.000 C 
ENDROOT
BRANCH   3   7
ATOM      7  C   UNL     1       3.173   4.118  19.534  0.00  0.00    +0.000 A 
ATOM      8  C   UNL     1       2.284   5.038  20.054  0.00  0.00    +0.000 A 
ATOM      9  C   UNL     1       1.120   4.418  20.597  0.00  0.00    +0.000 A 
ATOM     10  C   UNL     1       1.162   3.047  20.471  0.00  0.00    +0.000 A 
ATOM     11  S   UNL     1       2.580   2.521  19.672  0.00  0.00    +0.000 S 
ENDBRANCH   3   7
BRANCH   1  12
ATOM     12  C   UNL     1       7.197   4.655  16.426  0.00  0.00    +0.000 C 
BRANCH  12  16
ATOM     13  C   UNL     1       5.945   3.703  13.009  0.00  0.00    +0.000 C 
ATOM     14  C   UNL     1       6.748   4.456  14.031  0.00  0.00    +0.000 C 
ATOM     15  O   UNL     1       7.492   5.386  13.737  0.00  0.00    +0.000 OA
ATOM     16  N   UNL     1       6.579   3.988  15.311  0.00  0.00    +0.000 N 
ATOM     17  H   UNL     1       5.804   3.365  15.504  0.00  0.00    +0.000 HD
ENDBRANCH  12  16
ENDBRANCH   1  12
TORSDOF 3
ENDMDL
MODEL 2
REMARK VINA RESULT:      -6.8      1.140      1.198
REMARK  Name = 
REMARK  5 active torsions:
REMARK  status: ('A' for Active; 'I' for Inactive)
REMARK    1  A    between atoms: C_1  and  C_2
REMARK    2  A    between atoms: N_4  and  C_5
REMARK    3  A    between atoms: C_5  and  C_6
REMARK    4  A    between atoms: C_8  and  C_9
REMARK    5  A    between atoms: N_15  and  C_16
REMARK                            x       y       z     vdW  Elec       q    Type
REMARK                         _______ _______ _______ _____ _____    ______ ____
ROOT
ATOM      1  C   UNL     1       5.154   5.237  17.025  0.00  0.00    +0.000 A 
ATOM      2  C   UNL     1       3.911   4.931  17.541  0.00  0.00    +0.000 A 
ATOM      3  C   UNL     1       4.159   4.305  18.783  0.00  0.00    +0.000 A 
ATOM      4  N   UNL     1       5.472   4.211  19.026  0.00  0.00    +0.000 NA
ATOM      5  N   UNL     1       6.054   4.735  17.931  0.00  0.00    +0.000 N 
ATOM      6  C   UNL     1       7.489   4.652  17.783  0.00  0.00    +0.000 C 
ENDROOT
BRANCH   3   7
ATOM      7  C   UNL     1       3.127   3.777  19.736  0.00  0.00    +0.000 A 
ATOM      8  C   UNL     1       1.845   4.276  19.844  0.00  0.00    +0.000 A 
ATOM      9  C   UNL     1       1.090   3.615  20.857  0.00  0.00    +0.000 A 
ATOM     10  C   UNL     1       1.823   2.633  21.486  0.00  0.00    +0.000 A 
ATOM     11  S   UNL     1       3.398   2.493  20.831  0.00  0.00    +0.000 S 
ENDBRANCH   3   7
BRANCH   1  12
ATOM     12  C   UNL     1       5.542   5.938  15.782  0.00  0.00    +0.000 C 
BRANCH  12  16
ATOM     13  C   UNL     1       6.547   3.801  12.854  0.00  0.00    +0.000 C 
ATOM     14  C   UNL     1       6.723   4.771  13.986  0.00  0.00    +0.000 C 
ATOM     15  O   UNL     1       7.793   5.317  14.233  0.00  0.00    +0.000 OA
ATOM     16  N   UNL     1       5.579   4.967  14.721  0.00  0.00    +0.000 N 
ATOM     17  H   UNL     1       4.695   4.650  14.341  0.00  0.00    +0.000 HD
ENDBRANCH  12  16
ENDBRANCH   1  12
TORSDOF 3
ENDMDL
MODEL 3
REMARK VINA RESULT:      -6.7      2.120      3.206
REMARK  Name = 
REMARK  5 active torsions:
REMARK  status: ('A' for Active; 'I' for Inactive)
REMARK    1  A    between atoms: C_1  and  C_2
REMARK    2  A    between atoms: N_4  and  C_5
REMARK    3  A    between atoms: C_5  and  C_6
REMARK    4  A    between atoms: C_8  and  C_9
REMARK    5  A    between atoms: N_15  and  C_16
REMARK                            x       y       z     vdW  Elec       q    Type
REMARK                         _______ _______ _______ _____ _____    ______ ____
ROOT
ATOM      1  C   UNL     1       6.029   4.456  17.275  0.00  0.00    +0.000 A 
ATOM      2  C   UNL     1       5.377   4.311  18.482  0.00  0.00    +0.000 A 
ATOM      3  C   UNL     1       4.059   3.920  18.157  0.00  0.00    +0.000 A 
ATOM      4  N   UNL     1       3.890   3.836  16.831  0.00  0.00    +0.000 NA
ATOM      5  N   UNL     1       5.077   4.211  16.318  0.00  0.00    +0.000 N 
ATOM      6  C   UNL     1       5.207   4.389  14.890  0.00  0.00    +0.000 C 
ENDROOT
BRANCH   3   7
ATOM      7  C   UNL     1       2.948   3.640  19.125  0.00  0.00    +0.000 A 
ATOM      8  C   UNL     1       1.649   4.074  18.959  0.00  0.00    +0.000 A 
ATOM      9  C   UNL     1       0.810   3.701  20.050  0.00  0.00    +0.000 A 
ATOM     10  C   UNL     1       1.500   2.995  21.011  0.00  0.00    +0.000 A 
ATOM     11  S   UNL     1       3.138   2.758  20.577  0.00  0.00    +0.000 S 
ENDBRANCH   3   7
BRANCH   1  12
ATOM     12  C   UNL     1       7.435   4.802  16.967  0.00  0.00    +0.000 C 
BRANCH  12  16
ATOM     13  C   UNL     1       7.761   8.488  17.639  0.00  0.00    +0.000 C 
ATOM     14  C   UNL     1       7.823   7.016  17.929  0.00  0.00    +0.000 C 
ATOM     15  O   UNL     1       8.133   6.567  19.028  0.00  0.00    +0.000 OA
ATOM     16  N   UNL     1       7.520   6.233  16.842  0.00  0.00    +0.000 N 
ATOM     17  H   UNL     1       7.078   6.663  16.038  0.00  0.00    +0.000 HD
ENDBRANCH  12  16
ENDBRANCH   1  12
TORSDOF 3
ENDMDL
MODEL 4
REMARK VINA RESULT:      -6.5      1.716      2.980
REMARK  Name = 
REMARK  5 active torsions:
REMARK  status: ('A' for Active; 'I' for Inactive)
REMARK    1  A    between atoms: C_1  and  C_2
REMARK    2  A    between atoms: N_4  and  C_5
REMARK    3  A    between atoms: C_5  and  C_6
REMARK    4  A    between atoms: C_8  and  C_9
REMARK    5  A    between atoms: N_15  and  C_16
REMARK                            x       y       z     vdW  Elec       q    Type
REMARK                         _______ _______ _______ _____ _____    ______ ____
ROOT
ATOM      1  C   UNL     1       6.243   4.505  18.104  0.00  0.00    +0.000 A 
ATOM      2  C   UNL     1       5.267   4.498  19.080  0.00  0.00    +0.000 A 
ATOM      3  C   UNL     1       4.113   3.972  18.459  0.00  0.00    +0.000 A 
ATOM      4  N   UNL     1       4.343   3.679  17.173  0.00  0.00    +0.000 NA
ATOM      5  N   UNL     1       5.619   4.054  16.968  0.00  0.00    +0.000 N 
ATOM      6  C   UNL     1       6.160   4.023  15.628  0.00  0.00    +0.000 C 
ENDROOT
BRANCH   3   7
ATOM      7  C   UNL     1       2.772   3.765  19.101  0.00  0.00    +0.000 A 
ATOM      8  C   UNL     1       2.227   4.611  20.045  0.00  0.00    +0.000 A 
ATOM      9  C   UNL     1       0.961   4.153  20.516  0.00  0.00    +0.000 A 
ATOM     10  C   UNL     1       0.586   2.973  19.913  0.00  0.00    +0.000 A 
ATOM     11  S   UNL     1       1.739   2.446  18.764  0.00  0.00    +0.000 S 
ENDBRANCH   3   7
BRANCH   1  12
ATOM     12  C   UNL     1       7.668   4.897  18.159  0.00  0.00    +0.000 C 
BRANCH  12  16
ATOM     13  C   UNL     1       7.953   8.643  17.973  0.00  0.00    +0.000 C 
ATOM     14  C   UNL     1       7.785   7.239  17.467  0.00  0.00    +0.000 C 
ATOM     15  O   UNL     1       7.691   6.970  16.274  0.00  0.00    +0.000 OA
ATOM     16  N   UNL     1       7.728   6.301  18.468  0.00  0.00    +0.000 N 
ATOM     17  H   UNL     1       8.017   6.566  19.403  0.00  0.00    +0.000 HD
ENDBRANCH  12  16
ENDBRANCH   1  12
TORSDOF 3
ENDMDL
MODEL 5
REMARK VINA RESULT:      -6.5      1.499      1.735
REMARK  Name = 
REMARK  5 active torsions:
REMARK  status: ('A' for Active; 'I' for Inactive)
REMARK    1  A    between atoms: C_1  and  C_2
REMARK    2  A    between atoms: N_4  and  C_5
REMARK    3  A    between atoms: C_5  and  C_6
REMARK    4  A    between atoms: C_8  and  C_9
REMARK    5  A    between atoms: N_15  and  C_16
REMARK                            x       y       z     vdW  Elec       q    Type
REMARK                         _______ _______ _______ _____ _____    ______ ____
ROOT
ATOM      1  C   UNL     1       5.830   4.560  16.109  0.00  0.00    +0.000 A 
ATOM      2  C   UNL     1       4.641   3.912  16.371  0.00  0.00    +0.000 A 
ATOM      3  C   UNL     1       4.228   4.374  17.641  0.00  0.00    +0.000 A 
ATOM      4  N   UNL     1       5.107   5.247  18.150  0.00  0.00    +0.000 NA
ATOM      5  N   UNL     1       6.089   5.306  17.231  0.00  0.00    +0.000 N 
ATOM      6  C   UNL     1       7.295   6.046  17.530  0.00  0.00    +0.000 C 
ENDROOT
BRANCH   3   7
ATOM      7  C   UNL     1       2.988   3.963  18.379  0.00  0.00    +0.000 A 
ATOM      8  C   UNL     1       2.156   2.937  17.981  0.00  0.00    +0.000 A 
ATOM      9  C   UNL     1       1.030   2.788  18.844  0.00  0.00    +0.000 A 
ATOM     10  C   UNL     1       1.044   3.707  19.870  0.00  0.00    +0.000 A 
ATOM     11  S   UNL     1       2.425   4.715  19.807  0.00  0.00    +0.000 S 
ENDBRANCH   3   7
BRANCH   1  12
ATOM     12  C   UNL     1       6.713   4.525  14.923  0.00  0.00    +0.000 C 
BRANCH  12  16
ATOM     13  C   UNL     1       5.712   2.635  11.828  0.00  0.00    +0.000 C 
ATOM     14  C   UNL     1       6.450   3.649  12.655  0.00  0.00    +0.000 C 
ATOM     15  O   UNL     1       7.236   4.457  12.171  0.00  0.00    +0.000 OA
ATOM     16  N   UNL     1       6.170   3.567  13.997  0.00  0.00    +0.000 N 
ATOM     17  H   UNL     1       5.368   3.024  14.296  0.00  0.00    +0.000 HD
ENDBRANCH  12  16
ENDBRANCH   1  12
TORSDOF 3
ENDMDL
MODEL 6
REMARK VINA RESULT:      -6.5      1.298      1.361
REMARK  Name = 
REMARK  5 active torsions:
REMARK  status: ('A' for Active; 'I' for Inactive)
REMARK    1  A    between atoms: C_1  and  C_2
REMARK    2  A    between atoms: N_4  and  C_5
REMARK    3  A    between atoms: C_5  and  C_6
REMARK    4  A    between atoms: C_8  and  C_9
REMARK    5  A    between atoms: N_15  and  C_16
REMARK                            x       y       z     vdW  Elec       q    Type
REMARK                         _______ _______ _______ _____ _____    ______ ____
ROOT
ATOM      1  C   UNL     1       5.358   5.893  17.644  0.00  0.00    +0.000 A 
ATOM      2  C   UNL     1       4.075   5.389  17.717  0.00  0.00    +0.000 A 
ATOM      3  C   UNL     1       3.969   4.807  19.000  0.00  0.00    +0.000 A 
ATOM      4  N   UNL     1       5.114   4.927  19.685  0.00  0.00    +0.000 NA
ATOM      5  N   UNL     1       5.952   5.541  18.829  0.00  0.00    +0.000 N 
ATOM      6  C   UNL     1       7.344   5.692  19.188  0.00  0.00    +0.000 C 
ENDROOT
BRANCH   3   7
ATOM      7  C   UNL     1       2.764   4.116  19.567  0.00  0.00    +0.000 A 
ATOM      8  C   UNL     1       2.488   4.025  20.917  0.00  0.00    +0.000 A 
ATOM      9  C   UNL     1       1.300   3.279  21.177  0.00  0.00    +0.000 A 
ATOM     10  C   UNL     1       0.713   2.828  20.016  0.00  0.00    +0.000 A 
ATOM     11  S   UNL     1       1.572   3.333  18.625  0.00  0.00    +0.000 S 
ENDBRANCH   3   7
BRANCH   1  12
ATOM     12  C   UNL     1       6.043   6.652  16.574  0.00  0.00    +0.000 C 
BRANCH  12  16
ATOM     13  C   UNL     1       6.644   4.318  13.687  0.00  0.00    +0.000 C 
ATOM     14  C   UNL     1       6.856   4.928  15.042  0.00  0.00    +0.000 C 
ATOM     15  O   UNL     1       7.758   4.578  15.795  0.00  0.00    +0.000 OA
ATOM     16  N   UNL     1       5.931   5.894  15.356  0.00  0.00    +0.000 N 
ATOM     17  H   UNL     1       5.351   6.273  14.617  0.00  0.00    +0.000 HD
ENDBRANCH  12  16
ENDBRANCH   1  12
TORSDOF 3
ENDMDL
MODEL 7
REMARK VINA RESULT:      -6.5      1.859      3.131
REMARK  Name = 
REMARK  5 active torsions:
REMARK  status: ('A' for Active; 'I' for Inactive)
REMARK    1  A    between atoms: C_1  and  C_2
REMARK    2  A    between atoms: N_4  and  C_5
REMARK    3  A    between atoms: C_5  and  C_6
REMARK    4  A    between atoms: C_8  and  C_9
REMARK    5  A    between atoms: N_15  and  C_16
REMARK                            x       y       z     vdW  Elec       q    Type
REMARK                         _______ _______ _______ _____ _____    ______ ____
ROOT
ATOM      1  C   UNL     1       6.278   4.505  18.087  0.00  0.00    +0.000 A 
ATOM      2  C   UNL     1       5.294   4.465  19.054  0.00  0.00    +0.000 A 
ATOM      3  C   UNL     1       4.157   3.921  18.417  0.00  0.00    +0.000 A 
ATOM      4  N   UNL     1       4.405   3.648  17.129  0.00  0.00    +0.000 NA
ATOM      5  N   UNL     1       5.675   4.054  16.940  0.00  0.00    +0.000 N 
ATOM      6  C   UNL     1       6.227   4.051  15.605  0.00  0.00    +0.000 C 
ENDROOT
BRANCH   3   7
ATOM      7  C   UNL     1       2.816   3.677  19.044  0.00  0.00    +0.000 A 
ATOM      8  C   UNL     1       1.846   2.857  18.503  0.00  0.00    +0.000 A 
ATOM      9  C   UNL     1       0.655   2.839  19.286  0.00  0.00    +0.000 A 
ATOM     10  C   UNL     1       0.758   3.647  20.397  0.00  0.00    +0.000 A 
ATOM     11  S   UNL     1       2.295   4.391  20.507  0.00  0.00    +0.000 S 
ENDBRANCH   3   7
BRANCH   1  12
ATOM     12  C   UNL     1       7.694   4.927  18.160  0.00  0.00    +0.000 C 
BRANCH  12  16
ATOM     13  C   UNL     1       7.916   8.678  17.970  0.00  0.00    +0.000 C 
ATOM     14  C   UNL     1       7.788   7.270  17.463  0.00  0.00    +0.000 C 
ATOM     15  O   UNL     1       7.732   6.995  16.269  0.00  0.00    +0.000 OA
ATOM     16  N   UNL     1       7.720   6.333  18.466  0.00  0.00    +0.000 N 
ATOM     17  H   UNL     1       7.977   6.606  19.407  0.00  0.00    +0.000 HD
ENDBRANCH  12  16
ENDBRANCH   1  12
TORSDOF 3
ENDMDL
MODEL 8
REMARK VINA RESULT:      -6.4      1.466      1.668
REMARK  Name = 
REMARK  5 active torsions:
REMARK  status: ('A' for Active; 'I' for Inactive)
REMARK    1  A    between atoms: C_1  and  C_2
REMARK    2  A    between atoms: N_4  and  C_5
REMARK    3  A    between atoms: C_5  and  C_6
REMARK    4  A    between atoms: C_8  and  C_9
REMARK    5  A    between atoms: N_15  and  C_16
REMARK                            x       y       z     vdW  Elec       q    Type
REMARK                         _______ _______ _______ _____ _____    ______ ____
ROOT
ATOM      1  C   UNL     1       5.653   4.200  16.303  0.00  0.00    +0.000 A 
ATOM      2  C   UNL     1       4.368   3.833  16.646  0.00  0.00    +0.000 A 
ATOM      3  C   UNL     1       4.320   3.891  18.056  0.00  0.00    +0.000 A 
ATOM      4  N   UNL     1       5.502   4.259  18.568  0.00  0.00    +0.000 NA
ATOM      5  N   UNL     1       6.304   4.392  17.495  0.00  0.00    +0.000 N 
ATOM      6  C   UNL     1       7.716   4.632  17.692  0.00  0.00    +0.000 C 
ENDROOT
BRANCH   3   7
ATOM      7  C   UNL     1       3.136   3.576  18.921  0.00  0.00    +0.000 A 
ATOM      8  C   UNL     1       3.222   2.991  20.169  0.00  0.00    +0.000 A 
ATOM      9  C   UNL     1       1.940   2.767  20.751  0.00  0.00    +0.000 A 
ATOM     10  C   UNL     1       0.921   3.190  19.927  0.00  0.00    +0.000 A 
ATOM     11  S   UNL     1       1.513   3.881  18.479  0.00  0.00    +0.000 S 
ENDBRANCH   3   7
BRANCH   1  12
ATOM     12  C   UNL     1       6.292   4.372  14.980  0.00  0.00    +0.000 C 
BRANCH  12  16
ATOM     13  C   UNL     1       4.678   3.280  11.763  0.00  0.00    +0.000 C 
ATOM     14  C   UNL     1       5.791   3.670  12.692  0.00  0.00    +0.000 C 
ATOM     15  O   UNL     1       6.959   3.759  12.328  0.00  0.00    +0.000 OA
ATOM     16  N   UNL     1       5.374   3.895  13.980  0.00  0.00    +0.000 N 
ATOM     17  H   UNL     1       4.382   4.005  14.160  0.00  0.00    +0.000 HD
ENDBRANCH  12  16
ENDBRANCH   1  12
TORSDOF 3
ENDMDL
MODEL 9
REMARK VINA RESULT:      -6.4      1.383      1.492
REMARK  Name = 
REMARK  5 active torsions:
REMARK  status: ('A' for Active; 'I' for Inactive)
REMARK    1  A    between atoms: C_1  and  C_2
REMARK    2  A    between atoms: N_4  and  C_5
REMARK    3  A    between atoms: C_5  and  C_6
REMARK    4  A    between atoms: C_8  and  C_9
REMARK    5  A    between atoms: N_15  and  C_16
REMARK                            x       y       z     vdW  Elec       q    Type
REMARK                         _______ _______ _______ _____ _____    ______ ____
ROOT
ATOM      1  C   UNL     1       5.124   5.846  17.365  0.00  0.00    +0.000 A 
ATOM      2  C   UNL     1       3.876   5.271  17.498  0.00  0.00    +0.000 A 
ATOM      3  C   UNL     1       3.840   4.740  18.806  0.00  0.00    +0.000 A 
ATOM      4  N   UNL     1       4.995   4.955  19.450  0.00  0.00    +0.000 NA
ATOM      5  N   UNL     1       5.771   5.580  18.545  0.00  0.00    +0.000 N 
ATOM      6  C   UNL     1       7.161   5.828  18.854  0.00  0.00    +0.000 C 
ENDROOT
BRANCH   3   7
ATOM      7  C   UNL     1       2.695   4.005  19.438  0.00  0.00    +0.000 A 
ATOM      8  C   UNL     1       1.705   3.358  18.728  0.00  0.00    +0.000 A 
ATOM      9  C   UNL     1       0.719   2.777  19.580  0.00  0.00    +0.000 A 
ATOM     10  C   UNL     1       0.994   3.002  20.910  0.00  0.00    +0.000 A 
ATOM     11  S   UNL     1       2.448   3.877  21.125  0.00  0.00    +0.000 S 
ENDBRANCH   3   7
BRANCH   1  12
ATOM     12  C   UNL     1       5.732   6.596  16.244  0.00  0.00    +0.000 C 
BRANCH  12  16
ATOM     13  C   UNL     1       6.539   4.174  13.481  0.00  0.00    +0.000 C 
ATOM     14  C   UNL     1       6.706   4.886  14.794  0.00  0.00    +0.000 C 
ATOM     15  O   UNL     1       7.657   4.685  15.542  0.00  0.00    +0.000 OA
ATOM     16  N   UNL     1       5.684   5.759  15.075  0.00  0.00    +0.000 N 
ATOM     17  H   UNL     1       5.050   6.024  14.330  0.00  0.00    +0.000 HD
ENDBRANCH  12  16
ENDBRANCH   1  12
TORSDOF 3
ENDMDL
