MODEL 1
REMARK VINA RESULT:      -8.7      0.000      0.000
REMARK  Name = 
REMARK  8 active torsions:
REMARK  status: ('A' for Active; 'I' for Inactive)
REMARK    1  A    between atoms: C_1  and  O_2
REMARK    2  A    between atoms: O_2  and  C_3
REMARK    3  A    between atoms: C_3  and  C_5
REMARK    4  A    between atoms: N_9  and  C_10
REMARK    5  A    between atoms: C_14  and  O_15
REMARK    6  A    between atoms: O_15  and  C_16
REMARK    7  A    between atoms: C_16  and  C_17
REMARK    8  A    between atoms: N_25  and  C_26
REMARK                            x       y       z     vdW  Elec       q    Type
REMARK                         _______ _______ _______ _____ _____    ______ ____
ROOT
ATOM      1  C   UNL     1       4.292   4.428  19.380  0.00  0.00    +0.000 A 
ATOM      2  C   UNL     1       3.948   3.138  19.802  0.00  0.00    +0.000 A 
ATOM      3  C   UNL     1       2.821   2.907  20.589  0.00  0.00    +0.000 A 
ATOM      4  C   UNL     1       1.987   3.962  20.934  0.00  0.00    +0.000 A 
ATOM      5  C   UNL     1       2.246   5.243  20.449  0.00  0.00    +0.000 A 
ATOM      6  C   UNL     1       3.415   5.481  19.713  0.00  0.00    +0.000 A 
ENDROOT
BRANCH   1  11
ATOM      7  C   UNL     1       7.582   5.561  18.066  0.00  0.00    +0.000 C 
ATOM      8  C   UNL     1       7.157   4.590  16.980  0.00  0.00    +0.000 C 
ATOM      9  C   UNL     1       5.720   4.284  17.312  0.00  0.00    +0.000 C 
ATOM     10  O   UNL     1       4.972   3.735  16.512  0.00  0.00    +0.000 OA
ATOM     11  N   UNL     1       5.482   4.661  18.639  0.00  0.00    +0.000 N 
ATOM     12  C   UNL     1       6.684   5.204  19.239  0.00  0.00    +0.000 C 
BRANCH   7  13
ATOM     13  C   UNL     1       7.407   6.998  17.624  0.00  0.00    +0.000 C 
ATOM     14  O   UNL     1       6.621   7.387  16.773  0.00  0.00    +0.000 OA
BRANCH  13  16
ATOM     15  C   UNL     1       8.194   9.184  17.970  0.00  0.00    +0.000 C 
ATOM     16  O   UNL     1       8.212   7.811  18.367  0.00  0.00    +0.000 OA
ENDBRANCH  13  16
ENDBRANCH   7  13
ENDBRANCH   1  11
BRANCH   5  17
ATOM     17  O   UNL     1       1.409   6.323  20.627  0.00  0.00    +0.000 OA
BRANCH  17  18
ATOM     18  C   UNL     1       1.943   7.533  20.077  0.00  0.00    +0.000 C 
BRANCH  18  19
ATOM     19  C   UNL     1       1.313   8.730  20.700  0.00  0.00    +0.000 A 
ATOM     20  N   UNL     1       0.957   8.802  21.970  0.00  0.00    +0.000 NA
ATOM     21  C   UNL     1       0.090   9.857  22.051  0.00  0.00    +0.000 A 
ATOM     22  C   UNL     1      -0.616  10.333  23.163  0.00  0.00    +0.000 A 
ATOM     23  C   UNL     1      -1.524  11.382  22.983  0.00  0.00    +0.000 A 
ATOM     24  C   UNL     1      -1.731  11.934  21.718  0.00  0.00    +0.000 A 
ATOM     25  C   UNL     1      -1.007  11.493  20.601  0.00  0.00    +0.000 A 
ATOM     26  C   UNL     1      -0.083  10.461  20.809  0.00  0.00    +0.000 A 
ATOM     27  N   UNL     1       0.830   9.818  20.004  0.00  0.00    +0.000 N 
ATOM     28  C   UNL     1       1.276  10.250  18.702  0.00  0.00    +0.000 C 
ENDBRANCH  18  19
ENDBRANCH  17  18
ENDBRANCH   5  17
TORSDOF 6
ENDMDL
MODEL 2
REMARK VINA RESULT:      -8.3      1.634      2.633
REMARK  Name = 
REMARK  8 active torsions:
REMARK  status: ('A' for Active; 'I' for Inactive)
REMARK    1  A    between atoms: C_1  and  O_2
REMARK    2  A    between atoms: O_2  and  C_3
REMARK    3  A    between atoms: C_3  and  C_5
REMARK    4  A    between atoms: N_9  and  C_10
REMARK    5  A    between atoms: C_14  and  O_15
REMARK    6  A    between atoms: O_15  and  C_16
REMARK    7  A    between atoms: C_16  and  C_17
REMARK    8  A    between atoms: N_25  and  C_26
REMARK                            x       y       z     vdW  Elec       q    Type
REMARK                         _______ _______ _______ _____ _____    ______ ____
ROOT
ATOM      1  C   UNL     1       3.994   5.304  19.229  0.00  0.00    +0.000 A 
ATOM      2  C   UNL     1       3.741   3.963  19.544  0.00  0.00    +0.000 A 
ATOM      3  C   UNL     1       2.648   3.593  20.325  0.00  0.00    +0.000 A 
ATOM      4  C   UNL     1       1.757   4.558  20.773  0.00  0.00    +0.000 A 
ATOM      5  C   UNL     1       1.924   5.890  20.397  0.00  0.00    +0.000 A 
ATOM      6  C   UNL     1       3.060   6.265  19.665  0.00  0.00    +0.000 A 
ENDROOT
BRANCH   1  11
ATOM      7  C   UNL     1       6.514   6.205  16.646  0.00  0.00    +0.000 C 
ATOM      8  C   UNL     1       7.352   6.290  17.908  0.00  0.00    +0.000 C 
ATOM      9  C   UNL     1       6.468   5.690  18.970  0.00  0.00    +0.000 C 
ATOM     10  O   UNL     1       6.903   5.359  20.065  0.00  0.00    +0.000 OA
ATOM     11  N   UNL     1       5.151   5.675  18.492  0.00  0.00    +0.000 N 
ATOM     12  C   UNL     1       5.085   6.239  17.160  0.00  0.00    +0.000 C 
BRANCH   7  13
ATOM     13  C   UNL     1       6.814   4.942  15.866  0.00  0.00    +0.000 C 
ATOM     14  O   UNL     1       7.797   4.232  16.020  0.00  0.00    +0.000 OA
BRANCH  13  16
ATOM     15  C   UNL     1       6.192   4.082  13.772  0.00  0.00    +0.000 C 
ATOM     16  O   UNL     1       5.788   4.674  15.008  0.00  0.00    +0.000 OA
ENDBRANCH  13  16
ENDBRANCH   7  13
ENDBRANCH   1  11
BRANCH   5  17
ATOM     17  O   UNL     1       1.025   6.895  20.680  0.00  0.00    +0.000 OA
BRANCH  17  18
ATOM     18  C   UNL     1       1.665   8.119  21.057  0.00  0.00    +0.000 C 
BRANCH  18  19
ATOM     19  C   UNL     1       0.922   9.298  20.528  0.00  0.00    +0.000 A 
ATOM     20  N   UNL     1       0.204  10.115  21.277  0.00  0.00    +0.000 NA
ATOM     21  C   UNL     1      -0.607  10.794  20.409  0.00  0.00    +0.000 A 
ATOM     22  C   UNL     1      -1.596  11.745  20.688  0.00  0.00    +0.000 A 
ATOM     23  C   UNL     1      -2.367  12.243  19.632  0.00  0.00    +0.000 A 
ATOM     24  C   UNL     1      -2.161  11.790  18.327  0.00  0.00    +0.000 A 
ATOM     25  C   UNL     1      -1.153  10.865  18.025  0.00  0.00    +0.000 A 
ATOM     26  C   UNL     1      -0.375  10.401  19.093  0.00  0.00    +0.000 A 
ATOM     27  N   UNL     1       0.713   9.563  19.192  0.00  0.00    +0.000 N 
ATOM     28  C   UNL     1       1.547   9.113  18.104  0.00  0.00    +0.000 C 
ENDBRANCH  18  19
ENDBRANCH  17  18
ENDBRANCH   5  17
TORSDOF 6
ENDMDL
MODEL 3
REMARK VINA RESULT:      -8.2      3.549      8.453
REMARK  Name = 
REMARK  8 active torsions:
REMARK  status: ('A' for Active; 'I' for Inactive)
REMARK    1  A    between atoms: C_1  and  O_2
REMARK    2  A    between atoms: O_2  and  C_3
REMARK    3  A    between atoms: C_3  and  C_5
REMARK    4  A    between atoms: N_9  and  C_10
REMARK    5  A    between atoms: C_14  and  O_15
REMARK    6  A    between atoms: O_15  and  C_16
REMARK    7  A    between atoms: C_16  and  C_17
REMARK    8  A    between atoms: N_25  and  C_26
REMARK                            x       y       z     vdW  Elec       q    Type
REMARK                         _______ _______ _______ _____ _____    ______ ____
ROOT
ATOM      1  C   UNL     1       2.456   6.149  18.558  0.00  0.00    +0.000 A 
ATOM      2  C   UNL     1       1.655   7.251  18.234  0.00  0.00    +0.000 A 
ATOM      3  C   UNL     1       2.198   8.404  17.670  0.00  0.00    +0.000 A 
ATOM      4  C   UNL     1       3.554   8.460  17.376  0.00  0.00    +0.000 A 
ATOM      5  C   UNL     1       4.362   7.345  17.596  0.00  0.00    +0.000 A 
ATOM      6  C   UNL     1       3.823   6.213  18.223  0.00  0.00    +0.000 A 
ENDROOT
BRANCH   1  11
ATOM      7  C   UNL     1       1.320   3.514  20.925  0.00  0.00    +0.000 C 
ATOM      8  C   UNL     1       0.801   2.963  19.610  0.00  0.00    +0.000 C 
ATOM      9  C   UNL     1       1.443   3.844  18.571  0.00  0.00    +0.000 C 
ATOM     10  O   UNL     1       1.458   3.542  17.384  0.00  0.00    +0.000 OA
ATOM     11  N   UNL     1       1.902   5.008  19.200  0.00  0.00    +0.000 N 
ATOM     12  C   UNL     1       1.602   4.975  20.617  0.00  0.00    +0.000 C 
BRANCH   7  13
ATOM     13  C   UNL     1       2.559   2.774  21.386  0.00  0.00    +0.000 C 
ATOM     14  O   UNL     1       2.582   1.889  22.228  0.00  0.00    +0.000 OA
BRANCH  13  16
ATOM     15  C   UNL     1       4.363   2.149  20.020  0.00  0.00    +0.000 C 
ATOM     16  O   UNL     1       3.641   3.196  20.672  0.00  0.00    +0.000 OA
ENDBRANCH  13  16
ENDBRANCH   7  13
ENDBRANCH   1  11
BRANCH   5  17
ATOM     17  O   UNL     1       5.684   7.259  17.217  0.00  0.00    +0.000 OA
BRANCH  17  18
ATOM     18  C   UNL     1       6.253   5.972  17.484  0.00  0.00    +0.000 C 
BRANCH  18  19
ATOM     19  C   UNL     1       6.556   5.246  16.218  0.00  0.00    +0.000 A 
ATOM     20  N   UNL     1       7.486   5.620  15.357  0.00  0.00    +0.000 NA
ATOM     21  C   UNL     1       7.194   4.964  14.192  0.00  0.00    +0.000 A 
ATOM     22  C   UNL     1       7.838   5.044  12.952  0.00  0.00    +0.000 A 
ATOM     23  C   UNL     1       7.300   4.341  11.868  0.00  0.00    +0.000 A 
ATOM     24  C   UNL     1       6.136   3.585  12.020  0.00  0.00    +0.000 A 
ATOM     25  C   UNL     1       5.498   3.467  13.262  0.00  0.00    +0.000 A 
ATOM     26  C   UNL     1       6.070   4.156  14.339  0.00  0.00    +0.000 A 
ATOM     27  N   UNL     1       5.784   4.238  15.683  0.00  0.00    +0.000 N 
ATOM     28  C   UNL     1       4.903   3.368  16.425  0.00  0.00    +0.000 C 
ENDBRANCH  18  19
ENDBRANCH  17  18
ENDBRANCH   5  17
TORSDOF 6
ENDMDL
MODEL 4
REMARK VINA RESULT:      -8.2      1.466      2.201
REMARK  Name = 
REMARK  8 active torsions:
REMARK  status: ('A' for Active; 'I' for Inactive)
REMARK    1  A    between atoms: C_1  and  O_2
REMARK    2  A    between atoms: O_2  and  C_3
REMARK    3  A    between atoms: C_3  and  C_5
REMARK    4  A    between atoms: N_9  and  C_10
REMARK    5  A    between atoms: C_14  and  O_15
REMARK    6  A    between atoms: O_15  and  C_16
REMARK    7  A    between atoms: C_16  and  C_17
REMARK    8  A    between atoms: N_25  and  C_26
REMARK                            x       y       z     vdW  Elec       q    Type
REMARK                         _______ _______ _______ _____ _____    ______ ____
ROOT
ATOM      1  C   UNL     1       3.957   5.350  19.070  0.00  0.00    +0.000 A 
ATOM      2  C   UNL     1       3.519   4.022  19.163  0.00  0.00    +0.000 A 
ATOM      3  C   UNL     1       2.406   3.676  19.926  0.00  0.00    +0.000 A 
ATOM      4  C   UNL     1       1.678   4.661  20.578  0.00  0.00    +0.000 A 
ATOM      5  C   UNL     1       2.028   6.002  20.428  0.00  0.00    +0.000 A 
ATOM      6  C   UNL     1       3.186   6.339  19.713  0.00  0.00    +0.000 A 
ENDROOT
BRANCH   1  11
ATOM      7  C   UNL     1       6.530   6.207  16.524  0.00  0.00    +0.000 C 
ATOM      8  C   UNL     1       7.371   6.182  17.787  0.00  0.00    +0.000 C 
ATOM      9  C   UNL     1       6.450   5.591  18.822  0.00  0.00    +0.000 C 
ATOM     10  O   UNL     1       6.864   5.184  19.901  0.00  0.00    +0.000 OA
ATOM     11  N   UNL     1       5.136   5.680  18.348  0.00  0.00    +0.000 N 
ATOM     12  C   UNL     1       5.105   6.308  17.043  0.00  0.00    +0.000 C 
BRANCH   7  13
ATOM     13  C   UNL     1       6.750   4.965  15.687  0.00  0.00    +0.000 C 
ATOM     14  O   UNL     1       6.131   3.917  15.798  0.00  0.00    +0.000 OA
BRANCH  13  16
ATOM     15  C   UNL     1       7.316   4.848  13.411  0.00  0.00    +0.000 C 
ATOM     16  O   UNL     1       7.700   5.209  14.739  0.00  0.00    +0.000 OA
ENDBRANCH  13  16
ENDBRANCH   7  13
ENDBRANCH   1  11
BRANCH   5  17
ATOM     17  O   UNL     1       1.293   7.057  20.927  0.00  0.00    +0.000 OA
BRANCH  17  18
ATOM     18  C   UNL     1       1.480   8.263  20.178  0.00  0.00    +0.000 C 
BRANCH  18  19
ATOM     19  C   UNL     1       0.814   9.417  20.845  0.00  0.00    +0.000 A 
ATOM     20  N   UNL     1       0.314   9.377  22.067  0.00  0.00    +0.000 NA
ATOM     21  C   UNL     1      -0.527  10.451  22.157  0.00  0.00    +0.000 A 
ATOM     22  C   UNL     1      -1.345  10.843  23.224  0.00  0.00    +0.000 A 
ATOM     23  C   UNL     1      -2.196  11.940  23.051  0.00  0.00    +0.000 A 
ATOM     24  C   UNL     1      -2.238  12.622  21.834  0.00  0.00    +0.000 A 
ATOM     25  C   UNL     1      -1.401  12.265  20.767  0.00  0.00    +0.000 A 
ATOM     26  C   UNL     1      -0.537  11.182  20.972  0.00  0.00    +0.000 A 
ATOM     27  N   UNL     1       0.446  10.586  20.215  0.00  0.00    +0.000 N 
ATOM     28  C   UNL     1       1.054  11.127  19.023  0.00  0.00    +0.000 C 
ENDBRANCH  18  19
ENDBRANCH  17  18
ENDBRANCH   5  17
TORSDOF 6
ENDMDL
MODEL 5
REMARK VINA RESULT:      -8.1      1.607      2.761
REMARK  Name = 
REMARK  8 active torsions:
REMARK  status: ('A' for Active; 'I' for Inactive)
REMARK    1  A    between atoms: C_1  and  O_2
REMARK    2  A    between atoms: O_2  and  C_3
REMARK    3  A    between atoms: C_3  and  C_5
REMARK    4  A    between atoms: N_9  and  C_10
REMARK    5  A    between atoms: C_14  and  O_15
REMARK    6  A    between atoms: O_15  and  C_16
REMARK    7  A    between atoms: C_16  and  C_17
REMARK    8  A    between atoms: N_25  and  C_26
REMARK                            x       y       z     vdW  Elec       q    Type
REMARK                         _______ _______ _______ _____ _____    ______ ____
ROOT
ATOM      1  C   UNL     1       3.990   5.221  19.017  0.00  0.00    +0.000 A 
ATOM      2  C   UNL     1       3.623   3.872  18.932  0.00  0.00    +0.000 A 
ATOM      3  C   UNL     1       2.480   3.388  19.566  0.00  0.00    +0.000 A 
ATOM      4  C   UNL     1       1.653   4.258  20.265  0.00  0.00    +0.000 A 
ATOM      5  C   UNL     1       1.937   5.623  20.288  0.00  0.00    +0.000 A 
ATOM      6  C   UNL     1       3.122   6.093  19.704  0.00  0.00    +0.000 A 
ENDROOT
BRANCH   1  11
ATOM      7  C   UNL     1       6.690   6.454  16.776  0.00  0.00    +0.000 C 
ATOM      8  C   UNL     1       7.427   6.380  18.101  0.00  0.00    +0.000 C 
ATOM      9  C   UNL     1       6.471   5.646  19.004  0.00  0.00    +0.000 C 
ATOM     10  O   UNL     1       6.825   5.178  20.080  0.00  0.00    +0.000 OA
ATOM     11  N   UNL     1       5.196   5.687  18.427  0.00  0.00    +0.000 N 
ATOM     12  C   UNL     1       5.226   6.417  17.176  0.00  0.00    +0.000 C 
BRANCH   7  13
ATOM     13  C   UNL     1       7.067   5.302  15.867  0.00  0.00    +0.000 C 
ATOM     14  O   UNL     1       7.804   4.375  16.169  0.00  0.00    +0.000 OA
BRANCH  13  16
ATOM     15  C   UNL     1       6.028   4.169  14.093  0.00  0.00    +0.000 C 
ATOM     16  O   UNL     1       6.407   5.416  14.679  0.00  0.00    +0.000 OA
ENDBRANCH  13  16
ENDBRANCH   7  13
ENDBRANCH   1  11
BRANCH   5  17
ATOM     17  O   UNL     1       1.111   6.577  20.841  0.00  0.00    +0.000 OA
BRANCH  17  18
ATOM     18  C   UNL     1       1.778   7.825  21.061  0.00  0.00    +0.000 C 
BRANCH  18  19
ATOM     19  C   UNL     1       0.886   8.975  20.743  0.00  0.00    +0.000 A 
ATOM     20  N   UNL     1       0.709   9.459  19.526  0.00  0.00    +0.000 NA
ATOM     21  C   UNL     1       0.163  10.701  19.700  0.00  0.00    +0.000 A 
ATOM     22  C   UNL     1      -0.175  11.657  18.734  0.00  0.00    +0.000 A 
ATOM     23  C   UNL     1      -0.643  12.906  19.159  0.00  0.00    +0.000 A 
ATOM     24  C   UNL     1      -0.757  13.195  20.520  0.00  0.00    +0.000 A 
ATOM     25  C   UNL     1      -0.456  12.238  21.499  0.00  0.00    +0.000 A 
ATOM     26  C   UNL     1      -0.018  10.986  21.051  0.00  0.00    +0.000 A 
ATOM     27  N   UNL     1       0.307   9.805  21.678  0.00  0.00    +0.000 N 
ATOM     28  C   UNL     1       0.012   9.454  23.047  0.00  0.00    +0.000 C 
ENDBRANCH  18  19
ENDBRANCH  17  18
ENDBRANCH   5  17
TORSDOF 6
ENDMDL
MODEL 6
REMARK VINA RESULT:      -8.1      1.353      1.750
REMARK  Name = 
REMARK  8 active torsions:
REMARK  status: ('A' for Active; 'I' for Inactive)
REMARK    1  A    between atoms: C_1  and  O_2
REMARK    2  A    between atoms: O_2  and  C_3
REMARK    3  A    between atoms: C_3  and  C_5
REMARK    4  A    between atoms: N_9  and  C_10
REMARK    5  A    between atoms: C_14  and  O_15
REMARK    6  A    between atoms: O_15  and  C_16
REMARK    7  A    between atoms: C_16  and  C_17
REMARK    8  A    between atoms: N_25  and  C_26
REMARK                            x       y       z     vdW  Elec       q    Type
REMARK                         _______ _______ _______ _____ _____    ______ ____
ROOT
ATOM      1  C   UNL     1       3.309   4.708  18.248  0.00  0.00    +0.000 A 
ATOM      2  C   UNL     1       2.607   3.497  18.310  0.00  0.00    +0.000 A 
ATOM      3  C   UNL     1       1.610   3.284  19.260  0.00  0.00    +0.000 A 
ATOM      4  C   UNL     1       1.263   4.298  20.142  0.00  0.00    +0.000 A 
ATOM      5  C   UNL     1       1.874   5.547  20.045  0.00  0.00    +0.000 A 
ATOM      6  C   UNL     1       2.921   5.735  19.131  0.00  0.00    +0.000 A 
ENDROOT
BRANCH   1  11
ATOM      7  C   UNL     1       6.393   4.484  16.181  0.00  0.00    +0.000 C 
ATOM      8  C   UNL     1       5.761   5.745  15.620  0.00  0.00    +0.000 C 
ATOM      9  C   UNL     1       4.639   6.043  16.579  0.00  0.00    +0.000 C 
ATOM     10  O   UNL     1       4.067   7.126  16.591  0.00  0.00    +0.000 OA
ATOM     11  N   UNL     1       4.374   4.887  17.324  0.00  0.00    +0.000 N 
ATOM     12  C   UNL     1       5.252   3.808  16.920  0.00  0.00    +0.000 C 
BRANCH   7  13
ATOM     13  C   UNL     1       7.558   4.807  17.094  0.00  0.00    +0.000 C 
ATOM     14  O   UNL     1       8.290   3.985  17.625  0.00  0.00    +0.000 OA
BRANCH  13  16
ATOM     15  C   UNL     1       7.777   6.659  18.521  0.00  0.00    +0.000 C 
ATOM     16  O   UNL     1       7.714   6.159  17.183  0.00  0.00    +0.000 OA
ENDBRANCH  13  16
ENDBRANCH   7  13
ENDBRANCH   1  11
BRANCH   5  17
ATOM     17  O   UNL     1       1.507   6.650  20.785  0.00  0.00    +0.000 OA
BRANCH  17  18
ATOM     18  C   UNL     1       1.894   7.883  20.168  0.00  0.00    +0.000 C 
BRANCH  18  19
ATOM     19  C   UNL     1       1.200   9.040  20.799  0.00  0.00    +0.000 A 
ATOM     20  N   UNL     1       0.786   9.059  22.053  0.00  0.00    +0.000 NA
ATOM     21  C   UNL     1      -0.116  10.085  22.128  0.00  0.00    +0.000 A 
ATOM     22  C   UNL     1      -0.886  10.503  23.220  0.00  0.00    +0.000 A 
ATOM     23  C   UNL     1      -1.816  11.532  23.033  0.00  0.00    +0.000 A 
ATOM     24  C   UNL     1      -1.982  12.119  21.778  0.00  0.00    +0.000 A 
ATOM     25  C   UNL     1      -1.196  11.736  20.682  0.00  0.00    +0.000 A 
ATOM     26  C   UNL     1      -0.252  10.725  20.899  0.00  0.00    +0.000 A 
ATOM     27  N   UNL     1       0.716  10.136  20.117  0.00  0.00    +0.000 N 
ATOM     28  C   UNL     1       1.208  10.624  18.851  0.00  0.00    +0.000 C 
ENDBRANCH  18  19
ENDBRANCH  17  18
ENDBRANCH   5  17
TORSDOF 6
ENDMDL
MODEL 7
REMARK VINA RESULT:      -8.0      2.239      4.456
REMARK  Name = 
REMARK  8 active torsions:
REMARK  status: ('A' for Active; 'I' for Inactive)
REMARK    1  A    between atoms: C_1  and  O_2
REMARK    2  A    between atoms: O_2  and  C_3
REMARK    3  A    between atoms: C_3  and  C_5
REMARK    4  A    between atoms: N_9  and  C_10
REMARK    5  A    between atoms: C_14  and  O_15
REMARK    6  A    between atoms: O_15  and  C_16
REMARK    7  A    between atoms: C_16  and  C_17
REMARK    8  A    between atoms: N_25  and  C_26
REMARK                            x       y       z     vdW  Elec       q    Type
REMARK                         _______ _______ _______ _____ _____    ______ ____
ROOT
ATOM      1  C   UNL     1       3.812   5.004  17.810  0.00  0.00    +0.000 A 
ATOM      2  C   UNL     1       4.759   4.894  16.785  0.00  0.00    +0.000 A 
ATOM      3  C   UNL     1       5.123   5.995  16.010  0.00  0.00    +0.000 A 
ATOM      4  C   UNL     1       4.576   7.242  16.278  0.00  0.00    +0.000 A 
ATOM      5  C   UNL     1       3.704   7.406  17.353  0.00  0.00    +0.000 A 
ATOM      6  C   UNL     1       3.292   6.284  18.086  0.00  0.00    +0.000 A 
ENDROOT
BRANCH   1  11
ATOM      7  C   UNL     1       1.958   2.296  19.561  0.00  0.00    +0.000 C 
ATOM      8  C   UNL     1       3.394   1.877  19.821  0.00  0.00    +0.000 C 
ATOM      9  C   UNL     1       4.204   3.061  19.362  0.00  0.00    +0.000 C 
ATOM     10  O   UNL     1       5.387   3.189  19.652  0.00  0.00    +0.000 OA
ATOM     11  N   UNL     1       3.396   3.860  18.544  0.00  0.00    +0.000 N 
ATOM     12  C   UNL     1       2.074   3.283  18.412  0.00  0.00    +0.000 C 
BRANCH   7  13
ATOM     13  C   UNL     1       1.332   2.918  20.792  0.00  0.00    +0.000 C 
ATOM     14  O   UNL     1       1.348   2.436  21.915  0.00  0.00    +0.000 OA
BRANCH  13  16
ATOM     15  C   UNL     1       1.528   5.248  20.997  0.00  0.00    +0.000 C 
ATOM     16  O   UNL     1       0.801   4.134  20.476  0.00  0.00    +0.000 OA
ENDBRANCH  13  16
ENDBRANCH   7  13
ENDBRANCH   1  11
BRANCH   5  17
ATOM     17  O   UNL     1       3.214   8.623  17.776  0.00  0.00    +0.000 OA
BRANCH  17  18
ATOM     18  C   UNL     1       1.797   8.607  17.979  0.00  0.00    +0.000 C 
BRANCH  18  19
ATOM     19  C   UNL     1       1.435   9.230  19.283  0.00  0.00    +0.000 A 
ATOM     20  N   UNL     1       1.184   8.545  20.385  0.00  0.00    +0.000 NA
ATOM     21  C   UNL     1       0.527   9.411  21.216  0.00  0.00    +0.000 A 
ATOM     22  C   UNL     1      -0.005   9.176  22.489  0.00  0.00    +0.000 A 
ATOM     23  C   UNL     1      -0.720  10.202  23.119  0.00  0.00    +0.000 A 
ATOM     24  C   UNL     1      -0.909  11.430  22.482  0.00  0.00    +0.000 A 
ATOM     25  C   UNL     1      -0.354  11.693  21.222  0.00  0.00    +0.000 A 
ATOM     26  C   UNL     1       0.382  10.663  20.624  0.00  0.00    +0.000 A 
ATOM     27  N   UNL     1       1.109  10.558  19.459  0.00  0.00    +0.000 N 
ATOM     28  C   UNL     1       1.537  11.648  18.616  0.00  0.00    +0.000 C 
ENDBRANCH  18  19
ENDBRANCH  17  18
ENDBRANCH   5  17
TORSDOF 6
ENDMDL
MODEL 8
REMARK VINA RESULT:      -7.9      0.641      1.040
REMARK  Name = 
REMARK  8 active torsions:
REMARK  status: ('A' for Active; 'I' for Inactive)
REMARK    1  A    between atoms: C_1  and  O_2
REMARK    2  A    between atoms: O_2  and  C_3
REMARK    3  A    between atoms: C_3  and  C_5
REMARK    4  A    between atoms: N_9  and  C_10
REMARK    5  A    between atoms: C_14  and  O_15
REMARK    6  A    between atoms: O_15  and  C_16
REMARK    7  A    between atoms: C_16  and  C_17
REMARK    8  A    between atoms: N_25  and  C_26
REMARK                            x       y       z     vdW  Elec       q    Type
REMARK                         _______ _______ _______ _____ _____    ______ ____
ROOT
ATOM      1  C   UNL     1       4.282   4.402  19.376  0.00  0.00    +0.000 A 
ATOM      2  C   UNL     1       3.934   3.096  19.743  0.00  0.00    +0.000 A 
ATOM      3  C   UNL     1       2.834   2.839  20.560  0.00  0.00    +0.000 A 
ATOM      4  C   UNL     1       2.030   3.886  20.991  0.00  0.00    +0.000 A 
ATOM      5  C   UNL     1       2.292   5.188  20.566  0.00  0.00    +0.000 A 
ATOM      6  C   UNL     1       3.436   5.448  19.798  0.00  0.00    +0.000 A 
ENDROOT
BRANCH   1  11
ATOM      7  C   UNL     1       7.418   5.716  17.870  0.00  0.00    +0.000 C 
ATOM      8  C   UNL     1       7.154   4.514  16.982  0.00  0.00    +0.000 C 
ATOM      9  C   UNL     1       5.765   4.079  17.368  0.00  0.00    +0.000 C 
ATOM     10  O   UNL     1       5.118   3.295  16.684  0.00  0.00    +0.000 OA
ATOM     11  N   UNL     1       5.447   4.657  18.603  0.00  0.00    +0.000 N 
ATOM     12  C   UNL     1       6.550   5.460  19.089  0.00  0.00    +0.000 C 
BRANCH   7  13
ATOM     13  C   UNL     1       7.060   7.011  17.170  0.00  0.00    +0.000 C 
ATOM     14  O   UNL     1       7.508   8.113  17.449  0.00  0.00    +0.000 OA
BRANCH  13  16
ATOM     15  C   UNL     1       4.884   7.248  16.322  0.00  0.00    +0.000 C 
ATOM     16  O   UNL     1       6.212   6.756  16.133  0.00  0.00    +0.000 OA
ENDBRANCH  13  16
ENDBRANCH   7  13
ENDBRANCH   1  11
BRANCH   5  17
ATOM     17  O   UNL     1       1.480   6.269  20.832  0.00  0.00    +0.000 OA
BRANCH  17  18
ATOM     18  C   UNL     1       1.868   7.443  20.110  0.00  0.00    +0.000 C 
BRANCH  18  19
ATOM     19  C   UNL     1       1.265   8.666  20.709  0.00  0.00    +0.000 A 
ATOM     20  N   UNL     1       0.896   8.764  21.974  0.00  0.00    +0.000 NA
ATOM     21  C   UNL     1       0.059   9.845  22.031  0.00  0.00    +0.000 A 
ATOM     22  C   UNL     1      -0.646  10.356  23.127  0.00  0.00    +0.000 A 
ATOM     23  C   UNL     1      -1.521  11.429  22.923  0.00  0.00    +0.000 A 
ATOM     24  C   UNL     1      -1.696  11.970  21.648  0.00  0.00    +0.000 A 
ATOM     25  C   UNL     1      -0.973  11.493  20.546  0.00  0.00    +0.000 A 
ATOM     26  C   UNL     1      -0.081  10.438  20.779  0.00  0.00    +0.000 A 
ATOM     27  N   UNL     1       0.822   9.758  19.994  0.00  0.00    +0.000 N 
ATOM     28  C   UNL     1       1.297  10.160  18.692  0.00  0.00    +0.000 C 
ENDBRANCH  18  19
ENDBRANCH  17  18
ENDBRANCH   5  17
TORSDOF 6
ENDMDL
MODEL 9
REMARK VINA RESULT:      -7.9      2.442      8.816
REMARK  Name = 
REMARK  8 active torsions:
REMARK  status: ('A' for Active; 'I' for Inactive)
REMARK    1  A    between atoms: C_1  and  O_2
REMARK    2  A    between atoms: O_2  and  C_3
REMARK    3  A    between atoms: C_3  and  C_5
REMARK    4  A    between atoms: N_9  and  C_10
REMARK    5  A    between atoms: C_14  and  O_15
REMARK    6  A    between atoms: O_15  and  C_16
REMARK    7  A    between atoms: C_16  and  C_17
REMARK    8  A    between atoms: N_25  and  C_26
REMARK                            x       y       z     vdW  Elec       q    Type
REMARK                         _______ _______ _______ _____ _____    ______ ____
ROOT
ATOM      1  C   UNL     1       0.971   9.563  19.416  0.00  0.00    +0.000 A 
ATOM      2  C   UNL     1       1.392   9.614  18.081  0.00  0.00    +0.000 A 
ATOM      3  C   UNL     1       2.236   8.642  17.547  0.00  0.00    +0.000 A 
ATOM      4  C   UNL     1       2.644   7.571  18.330  0.00  0.00    +0.000 A 
ATOM      5  C   UNL     1       2.167   7.438  19.633  0.00  0.00    +0.000 A 
ATOM      6  C   UNL     1       1.370   8.451  20.185  0.00  0.00    +0.000 A 
ENDROOT
BRANCH   1  11
ATOM      7  C   UNL     1      -0.571  12.243  21.482  0.00  0.00    +0.000 C 
ATOM      8  C   UNL     1      -1.528  12.200  20.305  0.00  0.00    +0.000 C 
ATOM      9  C   UNL     1      -1.115  10.964  19.550  0.00  0.00    +0.000 C 
ATOM     10  O   UNL     1      -1.823  10.468  18.682  0.00  0.00    +0.000 OA
ATOM     11  N   UNL     1       0.170  10.598  19.969  0.00  0.00    +0.000 N 
ATOM     12  C   UNL     1       0.663  11.522  20.969  0.00  0.00    +0.000 C 
BRANCH   7  13
ATOM     13  C   UNL     1      -1.164  11.570  22.703  0.00  0.00    +0.000 C 
ATOM     14  O   UNL     1      -0.571  10.802  23.446  0.00  0.00    +0.000 OA
BRANCH  13  16
ATOM     15  C   UNL     1      -2.553  13.212  23.646  0.00  0.00    +0.000 C 
ATOM     16  O   UNL     1      -2.443  12.002  22.893  0.00  0.00    +0.000 OA
ENDBRANCH  13  16
ENDBRANCH   7  13
ENDBRANCH   1  11
BRANCH   5  17
ATOM     17  O   UNL     1       2.408   6.347  20.440  0.00  0.00    +0.000 OA
BRANCH  17  18
ATOM     18  C   UNL     1       2.206   5.102  19.761  0.00  0.00    +0.000 C 
BRANCH  18  19
ATOM     19  C   UNL     1       3.456   4.647  19.090  0.00  0.00    +0.000 A 
ATOM     20  N   UNL     1       4.672   4.949  19.509  0.00  0.00    +0.000 NA
ATOM     21  C   UNL     1       5.500   4.697  18.450  0.00  0.00    +0.000 A 
ATOM     22  C   UNL     1       6.882   4.894  18.347  0.00  0.00    +0.000 A 
ATOM     23  C   UNL     1       7.507   4.645  17.120  0.00  0.00    +0.000 A 
ATOM     24  C   UNL     1       6.763   4.221  16.017  0.00  0.00    +0.000 A 
ATOM     25  C   UNL     1       5.384   3.986  16.112  0.00  0.00    +0.000 A 
ATOM     26  C   UNL     1       4.785   4.214  17.357  0.00  0.00    +0.000 A 
ATOM     27  N   UNL     1       3.511   4.046  17.851  0.00  0.00    +0.000 N 
ATOM     28  C   UNL     1       2.445   3.297  17.230  0.00  0.00    +0.000 C 
ENDBRANCH  18  19
ENDBRANCH  17  18
ENDBRANCH   5  17
TORSDOF 6
ENDMDL
