MODEL 1
REMARK VINA RESULT:      -8.1      0.000      0.000
REMARK  Name = 
REMARK  5 active torsions:
REMARK  status: ('A' for Active; 'I' for Inactive)
REMARK    1  A    between atoms: C_1  and  O_2
REMARK    2  A    between atoms: O_2  and  C_3
REMARK    3  A    between atoms: C_6  and  C_7
REMARK    4  A    between atoms: C_12  and  C_14
REMARK    5  A    between atoms: C_14  and  C_15
REMARK                            x       y       z     vdW  Elec       q    Type
REMARK                         _______ _______ _______ _____ _____    ______ ____
ROOT
ATOM      1  C   UNL     1       2.966   7.167  18.029  0.00  0.00    +0.000 A 
ATOM      2  N   UNL     1       4.095   7.521  17.330  0.00  0.00    +0.000 NA
ATOM      3  C   UNL     1       4.554   6.386  16.868  0.00  0.00    +0.000 A 
ATOM      4  N   UNL     1       5.600   6.223  16.041  0.00  0.00    +0.000 N 
ATOM      5  N   UNL     1       3.753   5.347  17.315  0.00  0.00    +0.000 N 
ATOM      6  C   UNL     1       3.942   3.974  17.125  0.00  0.00    +0.000 C 
ATOM      7  O   UNL     1       5.025   3.555  16.718  0.00  0.00    +0.000 OA
ATOM      8  N   UNL     1       2.700   5.851  18.017  0.00  0.00    +0.000 NA
ATOM      9  H   UNL     1       6.173   7.017  15.778  0.00  0.00    +0.000 HD
ATOM     10  H   UNL     1       5.985   5.299  15.842  0.00  0.00    +0.000 HD
ENDROOT
BRANCH   1  14
ATOM     11  C   UNL     1       0.554  10.086  20.017  0.00  0.00    +0.000 A 
ATOM     12  C   UNL     1       0.991   8.954  20.697  0.00  0.00    +0.000 A 
ATOM     13  C   UNL     1       1.788   8.001  20.057  0.00  0.00    +0.000 A 
ATOM     14  C   UNL     1       2.140   8.157  18.712  0.00  0.00    +0.000 A 
ATOM     15  C   UNL     1       1.681   9.290  18.026  0.00  0.00    +0.000 A 
ATOM     16  C   UNL     1       0.898  10.256  18.674  0.00  0.00    +0.000 A 
BRANCH  11  18
ATOM     17  C   UNL     1      -0.447  10.580  22.104  0.00  0.00    +0.000 C 
ATOM     18  O   UNL     1      -0.225  10.944  20.747  0.00  0.00    +0.000 OA
ENDBRANCH  11  18
ENDBRANCH   1  14
BRANCH   6  19
ATOM     19  C   UNL     1       2.716   3.122  17.332  0.00  0.00    +0.000 C 
BRANCH  19  20
ATOM     20  C   UNL     1       2.430   2.952  18.804  0.00  0.00    +0.000 A 
ATOM     21  C   UNL     1       1.140   3.175  19.307  0.00  0.00    +0.000 A 
ATOM     22  C   UNL     1       0.886   3.067  20.675  0.00  0.00    +0.000 A 
ATOM     23  C   UNL     1       1.919   2.748  21.554  0.00  0.00    +0.000 A 
ATOM     24  C   UNL     1       3.208   2.539  21.066  0.00  0.00    +0.000 A 
ATOM     25  C   UNL     1       3.463   2.642  19.699  0.00  0.00    +0.000 A 
ENDBRANCH  19  20
ENDBRANCH   6  19
TORSDOF 4
ENDMDL
MODEL 2
REMARK VINA RESULT:      -8.1      0.153      1.015
REMARK  Name = 
REMARK  5 active torsions:
REMARK  status: ('A' for Active; 'I' for Inactive)
REMARK    1  A    between atoms: C_1  and  O_2
REMARK    2  A    between atoms: O_2  and  C_3
REMARK    3  A    between atoms: C_6  and  C_7
REMARK    4  A    between atoms: C_12  and  C_14
REMARK    5  A    between atoms: C_14  and  C_15
REMARK                            x       y       z     vdW  Elec       q    Type
REMARK                         _______ _______ _______ _____ _____    ______ ____
ROOT
ATOM      1  C   UNL     1       3.030   7.128  17.960  0.00  0.00    +0.000 A 
ATOM      2  N   UNL     1       4.167   7.457  17.262  0.00  0.00    +0.000 NA
ATOM      3  C   UNL     1       4.614   6.310  16.819  0.00  0.00    +0.000 A 
ATOM      4  N   UNL     1       5.663   6.121  16.001  0.00  0.00    +0.000 N 
ATOM      5  N   UNL     1       3.797   5.288  17.277  0.00  0.00    +0.000 N 
ATOM      6  C   UNL     1       3.968   3.910  17.107  0.00  0.00    +0.000 C 
ATOM      7  O   UNL     1       5.048   3.471  16.713  0.00  0.00    +0.000 OA
ATOM      8  N   UNL     1       2.747   5.816  17.965  0.00  0.00    +0.000 NA
ATOM      9  H   UNL     1       6.248   6.904  15.730  0.00  0.00    +0.000 HD
ATOM     10  H   UNL     1       6.036   5.189  15.818  0.00  0.00    +0.000 HD
ENDROOT
BRANCH   1  14
ATOM     11  C   UNL     1       0.628  10.074  19.921  0.00  0.00    +0.000 A 
ATOM     12  C   UNL     1       1.025  10.257  18.600  0.00  0.00    +0.000 A 
ATOM     13  C   UNL     1       1.802   9.294  17.950  0.00  0.00    +0.000 A 
ATOM     14  C   UNL     1       2.213   8.139  18.624  0.00  0.00    +0.000 A 
ATOM     15  C   UNL     1       1.827   7.970  19.960  0.00  0.00    +0.000 A 
ATOM     16  C   UNL     1       1.032   8.927  20.607  0.00  0.00    +0.000 A 
BRANCH  11  18
ATOM     17  C   UNL     1      -0.398  10.995  21.845  0.00  0.00    +0.000 C 
ATOM     18  O   UNL     1      -0.124  11.089  20.453  0.00  0.00    +0.000 OA
ENDBRANCH  11  18
ENDBRANCH   1  14
BRANCH   6  19
ATOM     19  C   UNL     1       2.730   3.078  17.319  0.00  0.00    +0.000 C 
BRANCH  19  20
ATOM     20  C   UNL     1       2.435   2.930  18.792  0.00  0.00    +0.000 A 
ATOM     21  C   UNL     1       1.145   3.176  19.286  0.00  0.00    +0.000 A 
ATOM     22  C   UNL     1       0.883   3.090  20.654  0.00  0.00    +0.000 A 
ATOM     23  C   UNL     1       1.908   2.769  21.542  0.00  0.00    +0.000 A 
ATOM     24  C   UNL     1       3.196   2.539  21.064  0.00  0.00    +0.000 A 
ATOM     25  C   UNL     1       3.460   2.620  19.696  0.00  0.00    +0.000 A 
ENDBRANCH  19  20
ENDBRANCH   6  19
TORSDOF 4
ENDMDL
MODEL 3
REMARK VINA RESULT:      -8.1      0.044      1.008
REMARK  Name = 
REMARK  5 active torsions:
REMARK  status: ('A' for Active; 'I' for Inactive)
REMARK    1  A    between atoms: C_1  and  O_2
REMARK    2  A    between atoms: O_2  and  C_3
REMARK    3  A    between atoms: C_6  and  C_7
REMARK    4  A    between atoms: C_12  and  C_14
REMARK    5  A    between atoms: C_14  and  C_15
REMARK                            x       y       z     vdW  Elec       q    Type
REMARK                         _______ _______ _______ _____ _____    ______ ____
ROOT
ATOM      1  C   UNL     1       2.968   7.191  18.024  0.00  0.00    +0.000 A 
ATOM      2  N   UNL     1       4.083   7.557  17.309  0.00  0.00    +0.000 NA
ATOM      3  C   UNL     1       4.554   6.426  16.850  0.00  0.00    +0.000 A 
ATOM      4  N   UNL     1       5.594   6.272  16.012  0.00  0.00    +0.000 N 
ATOM      5  N   UNL     1       3.775   5.378  17.315  0.00  0.00    +0.000 N 
ATOM      6  C   UNL     1       3.983   4.006  17.132  0.00  0.00    +0.000 C 
ATOM      7  O   UNL     1       5.068   3.602  16.716  0.00  0.00    +0.000 OA
ATOM      8  N   UNL     1       2.723   5.871  18.025  0.00  0.00    +0.000 NA
ATOM      9  H   UNL     1       6.151   7.073  15.736  0.00  0.00    +0.000 HD
ATOM     10  H   UNL     1       5.990   5.353  15.815  0.00  0.00    +0.000 HD
ENDROOT
BRANCH   1  14
ATOM     11  C   UNL     1       0.535  10.088  20.018  0.00  0.00    +0.000 A 
ATOM     12  C   UNL     1       0.991   8.964  20.700  0.00  0.00    +0.000 A 
ATOM     13  C   UNL     1       1.795   8.018  20.057  0.00  0.00    +0.000 A 
ATOM     14  C   UNL     1       2.135   8.174  18.710  0.00  0.00    +0.000 A 
ATOM     15  C   UNL     1       1.658   9.298  18.023  0.00  0.00    +0.000 A 
ATOM     16  C   UNL     1       0.868  10.257  18.673  0.00  0.00    +0.000 A 
BRANCH  11  18
ATOM     17  C   UNL     1      -0.438  10.590  22.117  0.00  0.00    +0.000 C 
ATOM     18  O   UNL     1      -0.250  10.939  20.751  0.00  0.00    +0.000 OA
ENDBRANCH  11  18
ENDBRANCH   1  14
BRANCH   6  19
ATOM     19  C   UNL     1       2.774   3.138  17.360  0.00  0.00    +0.000 C 
BRANCH  19  20
ATOM     20  C   UNL     1       2.466   3.031  18.834  0.00  0.00    +0.000 A 
ATOM     21  C   UNL     1       3.474   2.687  19.747  0.00  0.00    +0.000 A 
ATOM     22  C   UNL     1       3.180   2.538  21.103  0.00  0.00    +0.000 A 
ATOM     23  C   UNL     1       1.875   2.719  21.558  0.00  0.00    +0.000 A 
ATOM     24  C   UNL     1       0.863   3.044  20.657  0.00  0.00    +0.000 A 
ATOM     25  C   UNL     1       1.155   3.198  19.302  0.00  0.00    +0.000 A 
ENDBRANCH  19  20
ENDBRANCH   6  19
TORSDOF 4
ENDMDL
MODEL 4
REMARK VINA RESULT:      -8.1      0.527      1.533
REMARK  Name = 
REMARK  5 active torsions:
REMARK  status: ('A' for Active; 'I' for Inactive)
REMARK    1  A    between atoms: C_1  and  O_2
REMARK    2  A    between atoms: O_2  and  C_3
REMARK    3  A    between atoms: C_6  and  C_7
REMARK    4  A    between atoms: C_12  and  C_14
REMARK    5  A    between atoms: C_14  and  C_15
REMARK                            x       y       z     vdW  Elec       q    Type
REMARK                         _______ _______ _______ _____ _____    ______ ____
ROOT
ATOM      1  C   UNL     1       3.034   7.106  17.963  0.00  0.00    +0.000 A 
ATOM      2  N   UNL     1       4.156   7.457  17.251  0.00  0.00    +0.000 NA
ATOM      3  C   UNL     1       4.622   6.318  16.806  0.00  0.00    +0.000 A 
ATOM      4  N   UNL     1       5.665   6.147  15.976  0.00  0.00    +0.000 N 
ATOM      5  N   UNL     1       3.832   5.280  17.277  0.00  0.00    +0.000 N 
ATOM      6  C   UNL     1       4.031   3.905  17.110  0.00  0.00    +0.000 C 
ATOM      7  O   UNL     1       5.115   3.488  16.704  0.00  0.00    +0.000 OA
ATOM      8  N   UNL     1       2.780   5.788  17.976  0.00  0.00    +0.000 NA
ATOM      9  H   UNL     1       6.230   6.941  15.695  0.00  0.00    +0.000 HD
ATOM     10  H   UNL     1       6.056   5.223  15.792  0.00  0.00    +0.000 HD
ENDROOT
BRANCH   1  14
ATOM     11  C   UNL     1       0.595  10.008  19.943  0.00  0.00    +0.000 A 
ATOM     12  C   UNL     1       0.958  10.185  18.611  0.00  0.00    +0.000 A 
ATOM     13  C   UNL     1       1.746   9.236  17.955  0.00  0.00    +0.000 A 
ATOM     14  C   UNL     1       2.205   8.102  18.633  0.00  0.00    +0.000 A 
ATOM     15  C   UNL     1       1.853   7.938  19.979  0.00  0.00    +0.000 A 
ATOM     16  C   UNL     1       1.045   8.880  20.633  0.00  0.00    +0.000 A 
BRANCH  11  18
ATOM     17  C   UNL     1      -1.273  11.439  19.686  0.00  0.00    +0.000 C 
ATOM     18  O   UNL     1      -0.174  11.007  20.479  0.00  0.00    +0.000 OA
ENDBRANCH  11  18
ENDBRANCH   1  14
BRANCH   6  19
ATOM     19  C   UNL     1       2.814   3.048  17.340  0.00  0.00    +0.000 C 
BRANCH  19  20
ATOM     20  C   UNL     1       2.474   2.990  18.810  0.00  0.00    +0.000 A 
ATOM     21  C   UNL     1       3.458   2.661  19.754  0.00  0.00    +0.000 A 
ATOM     22  C   UNL     1       3.133   2.557  21.107  0.00  0.00    +0.000 A 
ATOM     23  C   UNL     1       1.822   2.768  21.528  0.00  0.00    +0.000 A 
ATOM     24  C   UNL     1       0.834   3.080  20.597  0.00  0.00    +0.000 A 
ATOM     25  C   UNL     1       1.157   3.188  19.244  0.00  0.00    +0.000 A 
ENDBRANCH  19  20
ENDBRANCH   6  19
TORSDOF 4
ENDMDL
MODEL 5
REMARK VINA RESULT:      -7.9      2.223      4.207
REMARK  Name = 
REMARK  5 active torsions:
REMARK  status: ('A' for Active; 'I' for Inactive)
REMARK    1  A    between atoms: C_1  and  O_2
REMARK    2  A    between atoms: O_2  and  C_3
REMARK    3  A    between atoms: C_6  and  C_7
REMARK    4  A    between atoms: C_12  and  C_14
REMARK    5  A    between atoms: C_14  and  C_15
REMARK                            x       y       z     vdW  Elec       q    Type
REMARK                         _______ _______ _______ _____ _____    ______ ____
ROOT
ATOM      1  C   UNL     1       2.363   6.516  19.901  0.00  0.00    +0.000 A 
ATOM      2  N   UNL     1       1.701   5.564  20.638  0.00  0.00    +0.000 NA
ATOM      3  C   UNL     1       2.482   4.516  20.580  0.00  0.00    +0.000 A 
ATOM      4  N   UNL     1       2.308   3.351  21.227  0.00  0.00    +0.000 N 
ATOM      5  N   UNL     1       3.578   4.799  19.781  0.00  0.00    +0.000 N 
ATOM      6  C   UNL     1       4.604   3.931  19.389  0.00  0.00    +0.000 C 
ATOM      7  O   UNL     1       4.473   2.718  19.548  0.00  0.00    +0.000 OA
ATOM      8  N   UNL     1       3.532   6.102  19.387  0.00  0.00    +0.000 NA
ATOM      9  H   UNL     1       1.466   3.187  21.767  0.00  0.00    +0.000 HD
ATOM     10  H   UNL     1       2.881   2.533  21.018  0.00  0.00    +0.000 HD
ENDROOT
BRANCH   1  14
ATOM     11  C   UNL     1       0.793  10.454  19.331  0.00  0.00    +0.000 A 
ATOM     12  C   UNL     1       0.648   9.809  20.556  0.00  0.00    +0.000 A 
ATOM     13  C   UNL     1       1.167   8.526  20.752  0.00  0.00    +0.000 A 
ATOM     14  C   UNL     1       1.821   7.858  19.712  0.00  0.00    +0.000 A 
ATOM     15  C   UNL     1       1.948   8.504  18.475  0.00  0.00    +0.000 A 
ATOM     16  C   UNL     1       1.444   9.799  18.284  0.00  0.00    +0.000 A 
BRANCH  11  18
ATOM     17  C   UNL     1      -1.174  11.747  19.080  0.00  0.00    +0.000 C 
ATOM     18  O   UNL     1       0.237  11.704  19.257  0.00  0.00    +0.000 OA
ENDBRANCH  11  18
ENDBRANCH   1  14
BRANCH   6  19
ATOM     19  C   UNL     1       5.862   4.601  18.903  0.00  0.00    +0.000 C 
BRANCH  19  20
ATOM     20  C   UNL     1       5.964   4.513  17.399  0.00  0.00    +0.000 A 
ATOM     21  C   UNL     1       7.190   4.742  16.756  0.00  0.00    +0.000 A 
ATOM     22  C   UNL     1       7.274   4.710  15.364  0.00  0.00    +0.000 A 
ATOM     23  C   UNL     1       6.135   4.461  14.600  0.00  0.00    +0.000 A 
ATOM     24  C   UNL     1       4.910   4.248  15.229  0.00  0.00    +0.000 A 
ATOM     25  C   UNL     1       4.823   4.275  16.621  0.00  0.00    +0.000 A 
ENDBRANCH  19  20
ENDBRANCH   6  19
TORSDOF 4
ENDMDL
MODEL 6
REMARK VINA RESULT:      -7.9      2.230      4.304
REMARK  Name = 
REMARK  5 active torsions:
REMARK  status: ('A' for Active; 'I' for Inactive)
REMARK    1  A    between atoms: C_1  and  O_2
REMARK    2  A    between atoms: O_2  and  C_3
REMARK    3  A    between atoms: C_6  and  C_7
REMARK    4  A    between atoms: C_12  and  C_14
REMARK    5  A    between atoms: C_14  and  C_15
REMARK                            x       y       z     vdW  Elec       q    Type
REMARK                         _______ _______ _______ _____ _____    ______ ____
ROOT
ATOM      1  C   UNL     1       2.408   6.524  19.826  0.00  0.00    +0.000 A 
ATOM      2  N   UNL     1       1.745   5.590  20.584  0.00  0.00    +0.000 NA
ATOM      3  C   UNL     1       2.525   4.540  20.553  0.00  0.00    +0.000 A 
ATOM      4  N   UNL     1       2.349   3.390  21.226  0.00  0.00    +0.000 N 
ATOM      5  N   UNL     1       3.623   4.803  19.749  0.00  0.00    +0.000 N 
ATOM      6  C   UNL     1       4.648   3.925  19.379  0.00  0.00    +0.000 C 
ATOM      7  O   UNL     1       4.516   2.716  19.566  0.00  0.00    +0.000 OA
ATOM      8  N   UNL     1       3.578   6.096  19.324  0.00  0.00    +0.000 NA
ATOM      9  H   UNL     1       1.506   3.240  21.769  0.00  0.00    +0.000 HD
ATOM     10  H   UNL     1       2.921   2.567  21.038  0.00  0.00    +0.000 HD
ENDROOT
BRANCH   1  14
ATOM     11  C   UNL     1       0.810  10.440  19.195  0.00  0.00    +0.000 A 
ATOM     12  C   UNL     1       1.475   9.778  18.167  0.00  0.00    +0.000 A 
ATOM     13  C   UNL     1       1.991   8.494  18.363  0.00  0.00    +0.000 A 
ATOM     14  C   UNL     1       1.869   7.861  19.605  0.00  0.00    +0.000 A 
ATOM     15  C   UNL     1       1.215   8.540  20.641  0.00  0.00    +0.000 A 
ATOM     16  C   UNL     1       0.679   9.820  20.439  0.00  0.00    +0.000 A 
BRANCH  11  18
ATOM     17  C   UNL     1      -1.052  11.887  18.982  0.00  0.00    +0.000 C 
ATOM     18  O   UNL     1       0.354  11.695  18.885  0.00  0.00    +0.000 OA
ENDBRANCH  11  18
ENDBRANCH   1  14
BRANCH   6  19
ATOM     19  C   UNL     1       5.908   4.583  18.879  0.00  0.00    +0.000 C 
BRANCH  19  20
ATOM     20  C   UNL     1       5.991   4.498  17.374  0.00  0.00    +0.000 A 
ATOM     21  C   UNL     1       7.192   4.790  16.711  0.00  0.00    +0.000 A 
ATOM     22  C   UNL     1       7.255   4.761  15.318  0.00  0.00    +0.000 A 
ATOM     23  C   UNL     1       6.119   4.452  14.573  0.00  0.00    +0.000 A 
ATOM     24  C   UNL     1       4.917   4.176  15.221  0.00  0.00    +0.000 A 
ATOM     25  C   UNL     1       4.851   4.200  16.615  0.00  0.00    +0.000 A 
ENDBRANCH  19  20
ENDBRANCH   6  19
TORSDOF 4
ENDMDL
MODEL 7
REMARK VINA RESULT:      -7.9      2.222      4.245
REMARK  Name = 
REMARK  5 active torsions:
REMARK  status: ('A' for Active; 'I' for Inactive)
REMARK    1  A    between atoms: C_1  and  O_2
REMARK    2  A    between atoms: O_2  and  C_3
REMARK    3  A    between atoms: C_6  and  C_7
REMARK    4  A    between atoms: C_12  and  C_14
REMARK    5  A    between atoms: C_14  and  C_15
REMARK                            x       y       z     vdW  Elec       q    Type
REMARK                         _______ _______ _______ _____ _____    ______ ____
ROOT
ATOM      1  C   UNL     1       2.432   6.510  19.804  0.00  0.00    +0.000 A 
ATOM      2  N   UNL     1       1.747   5.568  20.532  0.00  0.00    +0.000 NA
ATOM      3  C   UNL     1       2.516   4.511  20.492  0.00  0.00    +0.000 A 
ATOM      4  N   UNL     1       2.317   3.350  21.139  0.00  0.00    +0.000 N 
ATOM      5  N   UNL     1       3.630   4.778  19.711  0.00  0.00    +0.000 N 
ATOM      6  C   UNL     1       4.651   3.897  19.340  0.00  0.00    +0.000 C 
ATOM      7  O   UNL     1       4.503   2.686  19.500  0.00  0.00    +0.000 OA
ATOM      8  N   UNL     1       3.605   6.080  19.312  0.00  0.00    +0.000 NA
ATOM      9  H   UNL     1       1.464   3.198  21.665  0.00  0.00    +0.000 HD
ATOM     10  H   UNL     1       2.884   2.525  20.943  0.00  0.00    +0.000 HD
ENDROOT
BRANCH   1  14
ATOM     11  C   UNL     1       0.886  10.456  19.228  0.00  0.00    +0.000 A 
ATOM     12  C   UNL     1       1.545   9.801  18.192  0.00  0.00    +0.000 A 
ATOM     13  C   UNL     1       2.044   8.507  18.370  0.00  0.00    +0.000 A 
ATOM     14  C   UNL     1       1.910   7.858  19.601  0.00  0.00    +0.000 A 
ATOM     15  C   UNL     1       1.263   8.529  20.647  0.00  0.00    +0.000 A 
ATOM     16  C   UNL     1       0.745   9.819  20.462  0.00  0.00    +0.000 A 
BRANCH  11  18
ATOM     17  C   UNL     1       1.461  12.695  18.717  0.00  0.00    +0.000 C 
ATOM     18  O   UNL     1       0.447  11.721  18.936  0.00  0.00    +0.000 OA
ENDBRANCH  11  18
ENDBRANCH   1  14
BRANCH   6  19
ATOM     19  C   UNL     1       5.926   4.551  18.874  0.00  0.00    +0.000 C 
BRANCH  19  20
ATOM     20  C   UNL     1       6.006   4.544  17.366  0.00  0.00    +0.000 A 
ATOM     21  C   UNL     1       4.919   4.099  16.599  0.00  0.00    +0.000 A 
ATOM     22  C   UNL     1       5.011   4.045  15.208  0.00  0.00    +0.000 A 
ATOM     23  C   UNL     1       6.192   4.422  14.571  0.00  0.00    +0.000 A 
ATOM     24  C   UNL     1       7.282   4.850  15.324  0.00  0.00    +0.000 A 
ATOM     25  C   UNL     1       7.192   4.910  16.715  0.00  0.00    +0.000 A 
ENDBRANCH  19  20
ENDBRANCH   6  19
TORSDOF 4
ENDMDL
MODEL 8
REMARK VINA RESULT:      -7.8      1.985      3.918
REMARK  Name = 
REMARK  5 active torsions:
REMARK  status: ('A' for Active; 'I' for Inactive)
REMARK    1  A    between atoms: C_1  and  O_2
REMARK    2  A    between atoms: O_2  and  C_3
REMARK    3  A    between atoms: C_6  and  C_7
REMARK    4  A    between atoms: C_12  and  C_14
REMARK    5  A    between atoms: C_14  and  C_15
REMARK                            x       y       z     vdW  Elec       q    Type
REMARK                         _______ _______ _______ _____ _____    ______ ____
ROOT
ATOM      1  C   UNL     1       2.489   6.507  19.112  0.00  0.00    +0.000 A 
ATOM      2  N   UNL     1       2.254   5.501  20.018  0.00  0.00    +0.000 NA
ATOM      3  C   UNL     1       2.898   4.473  19.529  0.00  0.00    +0.000 A 
ATOM      4  N   UNL     1       3.044   3.269  20.108  0.00  0.00    +0.000 N 
ATOM      5  N   UNL     1       3.476   4.822  18.319  0.00  0.00    +0.000 N 
ATOM      6  C   UNL     1       4.175   3.997  17.430  0.00  0.00    +0.000 C 
ATOM      7  O   UNL     1       4.122   2.775  17.559  0.00  0.00    +0.000 OA
ATOM      8  N   UNL     1       3.261   6.145  18.074  0.00  0.00    +0.000 NA
ATOM      9  H   UNL     1       2.565   3.058  20.977  0.00  0.00    +0.000 HD
ATOM     10  H   UNL     1       3.435   2.475  19.600  0.00  0.00    +0.000 HD
ENDROOT
BRANCH   1  14
ATOM     11  C   UNL     1       0.894  10.444  19.611  0.00  0.00    +0.000 A 
ATOM     12  C   UNL     1       0.911   9.551  20.679  0.00  0.00    +0.000 A 
ATOM     13  C   UNL     1       1.440   8.266  20.526  0.00  0.00    +0.000 A 
ATOM     14  C   UNL     1       1.940   7.847  19.288  0.00  0.00    +0.000 A 
ATOM     15  C   UNL     1       1.904   8.744  18.212  0.00  0.00    +0.000 A 
ATOM     16  C   UNL     1       1.391  10.039  18.371  0.00  0.00    +0.000 A 
BRANCH  11  18
ATOM     17  C   UNL     1       0.027  11.922  21.245  0.00  0.00    +0.000 C 
ATOM     18  O   UNL     1       0.346  11.670  19.881  0.00  0.00    +0.000 OA
ENDBRANCH  11  18
ENDBRANCH   1  14
BRANCH   6  19
ATOM     19  C   UNL     1       5.050   4.718  16.438  0.00  0.00    +0.000 C 
BRANCH  19  20
ATOM     20  C   UNL     1       6.143   5.480  17.149  0.00  0.00    +0.000 A 
ATOM     21  C   UNL     1       6.842   4.893  18.214  0.00  0.00    +0.000 A 
ATOM     22  C   UNL     1       7.816   5.615  18.903  0.00  0.00    +0.000 A 
ATOM     23  C   UNL     1       8.093   6.933  18.545  0.00  0.00    +0.000 A 
ATOM     24  C   UNL     1       7.393   7.531  17.499  0.00  0.00    +0.000 A 
ATOM     25  C   UNL     1       6.421   6.810  16.805  0.00  0.00    +0.000 A 
ENDBRANCH  19  20
ENDBRANCH   6  19
TORSDOF 4
ENDMDL
MODEL 9
REMARK VINA RESULT:      -7.8      2.214      4.066
REMARK  Name = 
REMARK  5 active torsions:
REMARK  status: ('A' for Active; 'I' for Inactive)
REMARK    1  A    between atoms: C_1  and  O_2
REMARK    2  A    between atoms: O_2  and  C_3
REMARK    3  A    between atoms: C_6  and  C_7
REMARK    4  A    between atoms: C_12  and  C_14
REMARK    5  A    between atoms: C_14  and  C_15
REMARK                            x       y       z     vdW  Elec       q    Type
REMARK                         _______ _______ _______ _____ _____    ______ ____
ROOT
ATOM      1  C   UNL     1       2.381   6.537  19.878  0.00  0.00    +0.000 A 
ATOM      2  N   UNL     1       1.721   5.586  20.618  0.00  0.00    +0.000 NA
ATOM      3  C   UNL     1       2.505   4.540  20.567  0.00  0.00    +0.000 A 
ATOM      4  N   UNL     1       2.334   3.377  21.218  0.00  0.00    +0.000 N 
ATOM      5  N   UNL     1       3.601   4.823  19.767  0.00  0.00    +0.000 N 
ATOM      6  C   UNL     1       4.630   3.956  19.381  0.00  0.00    +0.000 C 
ATOM      7  O   UNL     1       4.502   2.743  19.545  0.00  0.00    +0.000 OA
ATOM      8  N   UNL     1       3.552   6.124  19.367  0.00  0.00    +0.000 NA
ATOM      9  H   UNL     1       1.491   3.213  21.758  0.00  0.00    +0.000 HD
ATOM     10  H   UNL     1       2.909   2.560  21.014  0.00  0.00    +0.000 HD
ENDROOT
BRANCH   1  14
ATOM     11  C   UNL     1       0.800  10.467  19.287  0.00  0.00    +0.000 A 
ATOM     12  C   UNL     1       0.663   9.831  20.518  0.00  0.00    +0.000 A 
ATOM     13  C   UNL     1       1.186   8.551  20.721  0.00  0.00    +0.000 A 
ATOM     14  C   UNL     1       1.836   7.877  19.682  0.00  0.00    +0.000 A 
ATOM     15  C   UNL     1       1.954   8.514  18.440  0.00  0.00    +0.000 A 
ATOM     16  C   UNL     1       1.447   9.806  18.242  0.00  0.00    +0.000 A 
BRANCH  11  18
ATOM     17  C   UNL     1       0.060  12.396  20.444  0.00  0.00    +0.000 C 
ATOM     18  O   UNL     1       0.241  11.715  19.207  0.00  0.00    +0.000 OA
ENDBRANCH  11  18
ENDBRANCH   1  14
BRANCH   6  19
ATOM     19  C   UNL     1       5.887   4.628  18.893  0.00  0.00    +0.000 C 
BRANCH  19  20
ATOM     20  C   UNL     1       5.963   4.583  17.386  0.00  0.00    +0.000 A 
ATOM     21  C   UNL     1       4.822   4.283  16.625  0.00  0.00    +0.000 A 
ATOM     22  C   UNL     1       4.904   4.192  15.236  0.00  0.00    +0.000 A 
ATOM     23  C   UNL     1       6.125   4.386  14.593  0.00  0.00    +0.000 A 
ATOM     24  C   UNL     1       7.266   4.669  15.340  0.00  0.00    +0.000 A 
ATOM     25  C   UNL     1       7.187   4.765  16.729  0.00  0.00    +0.000 A 
ENDBRANCH  19  20
ENDBRANCH   6  19
TORSDOF 4
ENDMDL
