MODEL 1
REMARK VINA RESULT:      -7.6      0.000      0.000
REMARK  Name = 
REMARK  11 active torsions:
REMARK  status: ('A' for Active; 'I' for Inactive)
REMARK    1  A    between atoms: C_1  and  C_2
REMARK    2  A    between atoms: C_2  and  N_3
REMARK    3  A    between atoms: C_4  and  C_5
REMARK    4  A    between atoms: C_5  and  N_6
REMARK    5  A    between atoms: C_7  and  C_9
REMARK    6  A    between atoms: C_16  and  S_17
REMARK    7  A    between atoms: S_17  and  C_18
REMARK    8  A    between atoms: C_18  and  C_19
REMARK    9  A    between atoms: C_19  and  C_21
REMARK   10  A    between atoms: C_24  and  O_25
REMARK   11  A    between atoms: O_25  and  C_26
REMARK                            x       y       z     vdW  Elec       q    Type
REMARK                         _______ _______ _______ _____ _____    ______ ____
ROOT
ATOM      1  N   UNL     1       1.645   7.970  19.844  0.00  0.00    +0.000 N 
ATOM      2  C   UNL     1       1.892   8.858  18.799  0.00  0.00    +0.000 A 
ATOM      3  N   UNL     1       2.588   8.240  17.867  0.00  0.00    +0.000 NA
ATOM      4  N   UNL     1       2.826   6.964  18.290  0.00  0.00    +0.000 NA
ATOM      5  C   UNL     1       2.281   6.809  19.477  0.00  0.00    +0.000 A 
ENDROOT
BRANCH   1   7
ATOM      6  C   UNL     1       1.527   9.068  22.183  0.00  0.00    +0.000 C 
ATOM      7  C   UNL     1       0.882   8.359  21.010  0.00  0.00    +0.000 C 
ENDBRANCH   1   7
BRANCH   2   8
ATOM      8  C   UNL     1       1.413  10.271  18.720  0.00  0.00    +0.000 C 
BRANCH   8   9
ATOM      9  N   UNL     1       0.225  10.355  17.904  0.00  0.00    +0.000 N 
ATOM     10  C   UNL     1      -0.992  10.795  18.377  0.00  0.00    +0.000 C 
ATOM     11  O   UNL     1      -1.127  11.252  19.509  0.00  0.00    +0.000 OA
ATOM     12  H   UNL     1       0.261  10.010  16.951  0.00  0.00    +0.000 HD
BRANCH  10  13
ATOM     13  C   UNL     1      -2.084  10.668  17.431  0.00  0.00    +0.000 A 
ATOM     14  C   UNL     1      -2.244   9.844  16.332  0.00  0.00    +0.000 A 
ATOM     15  C   UNL     1      -3.491  10.176  15.750  0.00  0.00    +0.000 A 
ATOM     16  C   UNL     1      -4.015  11.185  16.523  0.00  0.00    +0.000 A 
ATOM     17  O   UNL     1      -3.179  11.483  17.552  0.00  0.00    +0.000 OA
ENDBRANCH  10  13
ENDBRANCH   8   9
ENDBRANCH   2   8
BRANCH   5  18
ATOM     18  S   UNL     1       2.414   5.333  20.389  0.00  0.00    +0.000 S 
BRANCH  18  19
ATOM     19  C   UNL     1       2.799   4.156  19.041  0.00  0.00    +0.000 C 
BRANCH  19  20
ATOM     20  C   UNL     1       4.230   3.630  19.043  0.00  0.00    +0.000 C 
ATOM     21  O   UNL     1       4.690   2.856  19.882  0.00  0.00    +0.000 OA
BRANCH  20  22
ATOM     22  C   UNL     1       5.146   4.148  17.961  0.00  0.00    +0.000 A 
ATOM     23  C   UNL     1       4.800   3.956  16.617  0.00  0.00    +0.000 A 
ATOM     24  C   UNL     1       5.673   4.364  15.595  0.00  0.00    +0.000 A 
ATOM     25  C   UNL     1       6.882   4.998  15.893  0.00  0.00    +0.000 A 
ATOM     26  C   UNL     1       7.216   5.218  17.229  0.00  0.00    +0.000 A 
ATOM     27  C   UNL     1       6.354   4.795  18.257  0.00  0.00    +0.000 A 
BRANCH  25  28
ATOM     28  O   UNL     1       7.664   5.298  14.816  0.00  0.00    +0.000 OA
ATOM     29  C   UNL     1       7.197   4.872  13.541  0.00  0.00    +0.000 C 
ENDBRANCH  25  28
ENDBRANCH  20  22
ENDBRANCH  19  20
ENDBRANCH  18  19
ENDBRANCH   5  18
TORSDOF 9
ENDMDL
MODEL 2
REMARK VINA RESULT:      -7.4      4.326      8.566
REMARK  Name = 
REMARK  11 active torsions:
REMARK  status: ('A' for Active; 'I' for Inactive)
REMARK    1  A    between atoms: C_1  and  C_2
REMARK    2  A    between atoms: C_2  and  N_3
REMARK    3  A    between atoms: C_4  and  C_5
REMARK    4  A    between atoms: C_5  and  N_6
REMARK    5  A    between atoms: C_7  and  C_9
REMARK    6  A    between atoms: C_16  and  S_17
REMARK    7  A    between atoms: S_17  and  C_18
REMARK    8  A    between atoms: C_18  and  C_19
REMARK    9  A    between atoms: C_19  and  C_21
REMARK   10  A    between atoms: C_24  and  O_25
REMARK   11  A    between atoms: O_25  and  C_26
REMARK                            x       y       z     vdW  Elec       q    Type
REMARK                         _______ _______ _______ _____ _____    ______ ____
ROOT
ATOM      1  N   UNL     1       6.210   6.152  17.970  0.00  0.00    +0.000 N 
ATOM      2  C   UNL     1       7.399   6.813  18.269  0.00  0.00    +0.000 A 
ATOM      3  N   UNL     1       7.979   6.214  19.289  0.00  0.00    +0.000 NA
ATOM      4  N   UNL     1       7.178   5.180  19.684  0.00  0.00    +0.000 NA
ATOM      5  C   UNL     1       6.114   5.156  18.911  0.00  0.00    +0.000 A 
ENDROOT
BRANCH   1   7
ATOM      6  C   UNL     1       5.365   5.857  15.543  0.00  0.00    +0.000 C 
ATOM      7  C   UNL     1       5.358   6.573  16.879  0.00  0.00    +0.000 C 
ENDBRANCH   1   7
BRANCH   2   8
ATOM      8  C   UNL     1       7.958   7.987  17.532  0.00  0.00    +0.000 C 
BRANCH   8   9
ATOM      9  N   UNL     1       8.672   8.856  18.437  0.00  0.00    +0.000 N 
ATOM     10  C   UNL     1       8.696  10.228  18.313  0.00  0.00    +0.000 C 
ATOM     11  O   UNL     1       8.016  10.822  17.480  0.00  0.00    +0.000 OA
ATOM     12  H   UNL     1       9.246   8.441  19.163  0.00  0.00    +0.000 HD
BRANCH  10  13
ATOM     13  C   UNL     1       9.586  10.898  19.243  0.00  0.00    +0.000 A 
ATOM     14  C   UNL     1       9.410  11.270  20.563  0.00  0.00    +0.000 A 
ATOM     15  C   UNL     1      10.597  11.928  20.964  0.00  0.00    +0.000 A 
ATOM     16  C   UNL     1      11.423  11.926  19.865  0.00  0.00    +0.000 A 
ATOM     17  O   UNL     1      10.828  11.293  18.820  0.00  0.00    +0.000 OA
ENDBRANCH  10  13
ENDBRANCH   8   9
ENDBRANCH   2   8
BRANCH   5  18
ATOM     18  S   UNL     1       4.817   4.018  19.131  0.00  0.00    +0.000 S 
BRANCH  18  19
ATOM     19  C   UNL     1       3.531   5.125  19.817  0.00  0.00    +0.000 C 
BRANCH  19  20
ATOM     20  C   UNL     1       2.568   5.700  18.786  0.00  0.00    +0.000 C 
ATOM     21  O   UNL     1       2.154   5.093  17.798  0.00  0.00    +0.000 OA
BRANCH  20  22
ATOM     22  C   UNL     1       2.144   7.136  18.978  0.00  0.00    +0.000 A 
ATOM     23  C   UNL     1       1.749   7.572  20.250  0.00  0.00    +0.000 A 
ATOM     24  C   UNL     1       1.280   8.883  20.437  0.00  0.00    +0.000 A 
ATOM     25  C   UNL     1       1.234   9.788  19.372  0.00  0.00    +0.000 A 
ATOM     26  C   UNL     1       1.655   9.367  18.112  0.00  0.00    +0.000 A 
ATOM     27  C   UNL     1       2.107   8.050  17.915  0.00  0.00    +0.000 A 
BRANCH  25  28
ATOM     28  O   UNL     1       0.712  11.013  19.671  0.00  0.00    +0.000 OA
ATOM     29  C   UNL     1      -0.266  11.534  18.776  0.00  0.00    +0.000 C 
ENDBRANCH  25  28
ENDBRANCH  20  22
ENDBRANCH  19  20
ENDBRANCH  18  19
ENDBRANCH   5  18
TORSDOF 9
ENDMDL
MODEL 3
REMARK VINA RESULT:      -7.3      1.351      1.909
REMARK  Name = 
REMARK  11 active torsions:
REMARK  status: ('A' for Active; 'I' for Inactive)
REMARK    1  A    between atoms: C_1  and  C_2
REMARK    2  A    between atoms: C_2  and  N_3
REMARK    3  A    between atoms: C_4  and  C_5
REMARK    4  A    between atoms: C_5  and  N_6
REMARK    5  A    between atoms: C_7  and  C_9
REMARK    6  A    between atoms: C_16  and  S_17
REMARK    7  A    between atoms: S_17  and  C_18
REMARK    8  A    between atoms: C_18  and  C_19
REMARK    9  A    between atoms: C_19  and  C_21
REMARK   10  A    between atoms: C_24  and  O_25
REMARK   11  A    between atoms: O_25  and  C_26
REMARK                            x       y       z     vdW  Elec       q    Type
REMARK                         _______ _______ _______ _____ _____    ______ ____
ROOT
ATOM      1  N   UNL     1       1.541   8.572  19.747  0.00  0.00    +0.000 N 
ATOM      2  C   UNL     1       1.576   9.430  18.650  0.00  0.00    +0.000 A 
ATOM      3  N   UNL     1       2.119   8.798  17.628  0.00  0.00    +0.000 NA
ATOM      4  N   UNL     1       2.466   7.543  18.041  0.00  0.00    +0.000 NA
ATOM      5  C   UNL     1       2.141   7.415  19.309  0.00  0.00    +0.000 A 
ENDROOT
BRANCH   1   7
ATOM      6  C   UNL     1      -0.301   8.375  21.552  0.00  0.00    +0.000 C 
ATOM      7  C   UNL     1       0.980   8.981  21.016  0.00  0.00    +0.000 C 
ENDBRANCH   1   7
BRANCH   2   8
ATOM      8  C   UNL     1       1.047  10.827  18.613  0.00  0.00    +0.000 C 
BRANCH   8   9
ATOM      9  N   UNL     1      -0.257  10.855  17.995  0.00  0.00    +0.000 N 
ATOM     10  C   UNL     1      -1.228  11.779  18.312  0.00  0.00    +0.000 C 
ATOM     11  O   UNL     1      -1.013  12.720  19.072  0.00  0.00    +0.000 OA
ATOM     12  H   UNL     1      -0.506  10.119  17.343  0.00  0.00    +0.000 HD
BRANCH  10  13
ATOM     13  C   UNL     1      -2.510  11.544  17.676  0.00  0.00    +0.000 A 
ATOM     14  C   UNL     1      -3.793  11.520  18.194  0.00  0.00    +0.000 A 
ATOM     15  C   UNL     1      -4.661  11.201  17.123  0.00  0.00    +0.000 A 
ATOM     16  C   UNL     1      -3.859  11.041  16.018  0.00  0.00    +0.000 A 
ATOM     17  O   UNL     1      -2.557  11.260  16.336  0.00  0.00    +0.000 OA
ENDBRANCH  10  13
ENDBRANCH   8   9
ENDBRANCH   2   8
BRANCH   5  18
ATOM     18  S   UNL     1       2.475   5.976  20.226  0.00  0.00    +0.000 S 
BRANCH  18  19
ATOM     19  C   UNL     1       2.242   4.706  18.929  0.00  0.00    +0.000 C 
BRANCH  19  20
ATOM     20  C   UNL     1       3.508   3.951  18.541  0.00  0.00    +0.000 C 
ATOM     21  O   UNL     1       3.666   2.736  18.666  0.00  0.00    +0.000 OA
BRANCH  20  22
ATOM     22  C   UNL     1       4.659   4.776  18.018  0.00  0.00    +0.000 A 
ATOM     23  C   UNL     1       5.737   5.067  18.863  0.00  0.00    +0.000 A 
ATOM     24  C   UNL     1       6.783   5.894  18.421  0.00  0.00    +0.000 A 
ATOM     25  C   UNL     1       6.790   6.411  17.122  0.00  0.00    +0.000 A 
ATOM     26  C   UNL     1       5.734   6.099  16.267  0.00  0.00    +0.000 A 
ATOM     27  C   UNL     1       4.674   5.287  16.712  0.00  0.00    +0.000 A 
BRANCH  25  28
ATOM     28  O   UNL     1       7.833   7.241  16.831  0.00  0.00    +0.000 OA
ATOM     29  C   UNL     1       8.003   8.382  17.666  0.00  0.00    +0.000 C 
ENDBRANCH  25  28
ENDBRANCH  20  22
ENDBRANCH  19  20
ENDBRANCH  18  19
ENDBRANCH   5  18
TORSDOF 9
ENDMDL
MODEL 4
REMARK VINA RESULT:      -7.3      4.323      8.354
REMARK  Name = 
REMARK  11 active torsions:
REMARK  status: ('A' for Active; 'I' for Inactive)
REMARK    1  A    between atoms: C_1  and  C_2
REMARK    2  A    between atoms: C_2  and  N_3
REMARK    3  A    between atoms: C_4  and  C_5
REMARK    4  A    between atoms: C_5  and  N_6
REMARK    5  A    between atoms: C_7  and  C_9
REMARK    6  A    between atoms: C_16  and  S_17
REMARK    7  A    between atoms: S_17  and  C_18
REMARK    8  A    between atoms: C_18  and  C_19
REMARK    9  A    between atoms: C_19  and  C_21
REMARK   10  A    between atoms: C_24  and  O_25
REMARK   11  A    between atoms: O_25  and  C_26
REMARK                            x       y       z     vdW  Elec       q    Type
REMARK                         _______ _______ _______ _____ _____    ______ ____
ROOT
ATOM      1  N   UNL     1       6.228   6.100  17.846  0.00  0.00    +0.000 N 
ATOM      2  C   UNL     1       7.354   6.834  18.215  0.00  0.00    +0.000 A 
ATOM      3  N   UNL     1       7.882   6.293  19.295  0.00  0.00    +0.000 NA
ATOM      4  N   UNL     1       7.109   5.227  19.658  0.00  0.00    +0.000 NA
ATOM      5  C   UNL     1       6.112   5.125  18.807  0.00  0.00    +0.000 A 
ENDROOT
BRANCH   1   7
ATOM      6  C   UNL     1       5.478   5.604  15.421  0.00  0.00    +0.000 C 
ATOM      7  C   UNL     1       5.443   6.445  16.680  0.00  0.00    +0.000 C 
ENDBRANCH   1   7
BRANCH   2   8
ATOM      8  C   UNL     1       7.905   8.017  17.489  0.00  0.00    +0.000 C 
BRANCH   8   9
ATOM      9  N   UNL     1       8.603   8.889  18.404  0.00  0.00    +0.000 N 
ATOM     10  C   UNL     1       8.639  10.259  18.269  0.00  0.00    +0.000 C 
ATOM     11  O   UNL     1       7.985  10.850  17.413  0.00  0.00    +0.000 OA
ATOM     12  H   UNL     1       9.155   8.476  19.147  0.00  0.00    +0.000 HD
BRANCH  10  13
ATOM     13  C   UNL     1       9.510  10.932  19.214  0.00  0.00    +0.000 A 
ATOM     14  C   UNL     1      10.814  11.378  19.092  0.00  0.00    +0.000 A 
ATOM     15  C   UNL     1      11.178  11.925  20.346  0.00  0.00    +0.000 A 
ATOM     16  C   UNL     1      10.079  11.776  21.159  0.00  0.00    +0.000 A 
ATOM     17  O   UNL     1       9.059  11.188  20.482  0.00  0.00    +0.000 OA
ENDBRANCH  10  13
ENDBRANCH   8   9
ENDBRANCH   2   8
BRANCH   5  18
ATOM     18  S   UNL     1       4.863   3.924  18.959  0.00  0.00    +0.000 S 
BRANCH  18  19
ATOM     19  C   UNL     1       3.393   4.934  18.553  0.00  0.00    +0.000 C 
BRANCH  19  20
ATOM     20  C   UNL     1       2.737   5.615  19.748  0.00  0.00    +0.000 C 
ATOM     21  O   UNL     1       2.578   5.093  20.852  0.00  0.00    +0.000 OA
BRANCH  20  22
ATOM     22  C   UNL     1       2.202   7.009  19.528  0.00  0.00    +0.000 A 
ATOM     23  C   UNL     1       2.373   7.622  18.280  0.00  0.00    +0.000 A 
ATOM     24  C   UNL     1       1.950   8.946  18.075  0.00  0.00    +0.000 A 
ATOM     25  C   UNL     1       1.318   9.663  19.094  0.00  0.00    +0.000 A 
ATOM     26  C   UNL     1       1.117   9.047  20.328  0.00  0.00    +0.000 A 
ATOM     27  C   UNL     1       1.557   7.728  20.544  0.00  0.00    +0.000 A 
BRANCH  25  28
ATOM     28  O   UNL     1       1.001  10.955  18.787  0.00  0.00    +0.000 OA
ATOM     29  C   UNL     1       2.066  11.796  18.356  0.00  0.00    +0.000 C 
ENDBRANCH  25  28
ENDBRANCH  20  22
ENDBRANCH  19  20
ENDBRANCH  18  19
ENDBRANCH   5  18
TORSDOF 9
ENDMDL
MODEL 5
REMARK VINA RESULT:      -7.1      0.865      1.067
REMARK  Name = 
REMARK  11 active torsions:
REMARK  status: ('A' for Active; 'I' for Inactive)
REMARK    1  A    between atoms: C_1  and  C_2
REMARK    2  A    between atoms: C_2  and  N_3
REMARK    3  A    between atoms: C_4  and  C_5
REMARK    4  A    between atoms: C_5  and  N_6
REMARK    5  A    between atoms: C_7  and  C_9
REMARK    6  A    between atoms: C_16  and  S_17
REMARK    7  A    between atoms: S_17  and  C_18
REMARK    8  A    between atoms: C_18  and  C_19
REMARK    9  A    between atoms: C_19  and  C_21
REMARK   10  A    between atoms: C_24  and  O_25
REMARK   11  A    between atoms: O_25  and  C_26
REMARK                            x       y       z     vdW  Elec       q    Type
REMARK                         _______ _______ _______ _____ _____    ______ ____
ROOT
ATOM      1  N   UNL     1       1.628   8.186  19.861  0.00  0.00    +0.000 N 
ATOM      2  C   UNL     1       1.654   9.066  18.781  0.00  0.00    +0.000 A 
ATOM      3  N   UNL     1       2.116   8.431  17.723  0.00  0.00    +0.000 NA
ATOM      4  N   UNL     1       2.418   7.152  18.092  0.00  0.00    +0.000 NA
ATOM      5  C   UNL     1       2.146   7.011  19.372  0.00  0.00    +0.000 A 
ENDROOT
BRANCH   1   7
ATOM      6  C   UNL     1      -0.315   8.485  21.543  0.00  0.00    +0.000 C 
ATOM      7  C   UNL     1       1.148   8.593  21.164  0.00  0.00    +0.000 C 
ENDBRANCH   1   7
BRANCH   2   8
ATOM      8  C   UNL     1       1.196  10.488  18.799  0.00  0.00    +0.000 C 
BRANCH   8   9
ATOM      9  N   UNL     1      -0.046  10.625  18.077  0.00  0.00    +0.000 N 
ATOM     10  C   UNL     1      -1.065  11.466  18.470  0.00  0.00    +0.000 C 
ATOM     11  O   UNL     1      -0.943  12.246  19.412  0.00  0.00    +0.000 OA
ATOM     12  H   UNL     1      -0.216  10.025  17.277  0.00  0.00    +0.000 HD
BRANCH  10  13
ATOM     13  C   UNL     1      -2.277  11.347  17.682  0.00  0.00    +0.000 A 
ATOM     14  C   UNL     1      -3.608  11.484  18.034  0.00  0.00    +0.000 A 
ATOM     15  C   UNL     1      -4.368  11.220  16.869  0.00  0.00    +0.000 A 
ATOM     16  C   UNL     1      -3.459  10.933  15.879  0.00  0.00    +0.000 A 
ATOM     17  O   UNL     1      -2.189  11.020  16.354  0.00  0.00    +0.000 OA
ENDBRANCH  10  13
ENDBRANCH   8   9
ENDBRANCH   2   8
BRANCH   5  18
ATOM     18  S   UNL     1       2.450   5.536  20.242  0.00  0.00    +0.000 S 
BRANCH  18  19
ATOM     19  C   UNL     1       4.169   5.198  19.713  0.00  0.00    +0.000 C 
BRANCH  19  20
ATOM     20  C   UNL     1       4.301   4.180  18.585  0.00  0.00    +0.000 C 
ATOM     21  O   UNL     1       3.775   3.067  18.582  0.00  0.00    +0.000 OA
BRANCH  20  22
ATOM     22  C   UNL     1       5.186   4.562  17.424  0.00  0.00    +0.000 A 
ATOM     23  C   UNL     1       4.906   4.053  16.150  0.00  0.00    +0.000 A 
ATOM     24  C   UNL     1       5.758   4.335  15.069  0.00  0.00    +0.000 A 
ATOM     25  C   UNL     1       6.877   5.157  15.233  0.00  0.00    +0.000 A 
ATOM     26  C   UNL     1       7.142   5.691  16.493  0.00  0.00    +0.000 A 
ATOM     27  C   UNL     1       6.302   5.395  17.582  0.00  0.00    +0.000 A 
BRANCH  25  28
ATOM     28  O   UNL     1       7.653   5.313  14.122  0.00  0.00    +0.000 OA
ATOM     29  C   UNL     1       7.264   4.594  12.956  0.00  0.00    +0.000 C 
ENDBRANCH  25  28
ENDBRANCH  20  22
ENDBRANCH  19  20
ENDBRANCH  18  19
ENDBRANCH   5  18
TORSDOF 9
ENDMDL
MODEL 6
REMARK VINA RESULT:      -7.0      2.197      3.352
REMARK  Name = 
REMARK  11 active torsions:
REMARK  status: ('A' for Active; 'I' for Inactive)
REMARK    1  A    between atoms: C_1  and  C_2
REMARK    2  A    between atoms: C_2  and  N_3
REMARK    3  A    between atoms: C_4  and  C_5
REMARK    4  A    between atoms: C_5  and  N_6
REMARK    5  A    between atoms: C_7  and  C_9
REMARK    6  A    between atoms: C_16  and  S_17
REMARK    7  A    between atoms: S_17  and  C_18
REMARK    8  A    between atoms: C_18  and  C_19
REMARK    9  A    between atoms: C_19  and  C_21
REMARK   10  A    between atoms: C_24  and  O_25
REMARK   11  A    between atoms: O_25  and  C_26
REMARK                            x       y       z     vdW  Elec       q    Type
REMARK                         _______ _______ _______ _____ _____    ______ ____
ROOT
ATOM      1  N   UNL     1       1.938   4.671  19.921  0.00  0.00    +0.000 N 
ATOM      2  C   UNL     1       2.024   6.032  19.636  0.00  0.00    +0.000 A 
ATOM      3  N   UNL     1       1.990   6.199  18.329  0.00  0.00    +0.000 NA
ATOM      4  N   UNL     1       1.907   4.967  17.746  0.00  0.00    +0.000 NA
ATOM      5  C   UNL     1       1.897   4.055  18.694  0.00  0.00    +0.000 A 
ENDROOT
BRANCH   1   7
ATOM      6  C   UNL     1       1.572   2.742  21.605  0.00  0.00    +0.000 C 
ATOM      7  C   UNL     1       1.933   4.177  21.281  0.00  0.00    +0.000 C 
ENDBRANCH   1   7
BRANCH   2   8
ATOM      8  C   UNL     1       2.101   7.135  20.641  0.00  0.00    +0.000 C 
BRANCH   8   9
ATOM      9  N   UNL     1       1.549   8.352  20.095  0.00  0.00    +0.000 N 
ATOM     10  C   UNL     1       0.607   9.118  20.747  0.00  0.00    +0.000 C 
ATOM     11  O   UNL     1       0.246   8.874  21.896  0.00  0.00    +0.000 OA
ATOM     12  H   UNL     1       1.810   8.630  19.156  0.00  0.00    +0.000 HD
BRANCH  10  13
ATOM     13  C   UNL     1       0.086  10.222  19.963  0.00  0.00    +0.000 A 
ATOM     14  C   UNL     1      -0.796  10.245  18.898  0.00  0.00    +0.000 A 
ATOM     15  C   UNL     1      -0.917  11.597  18.496  0.00  0.00    +0.000 A 
ATOM     16  C   UNL     1      -0.098  12.317  19.334  0.00  0.00    +0.000 A 
ATOM     17  O   UNL     1       0.505  11.498  20.235  0.00  0.00    +0.000 OA
ENDBRANCH  10  13
ENDBRANCH   8   9
ENDBRANCH   2   8
BRANCH   5  18
ATOM     18  S   UNL     1       1.860   2.349  18.359  0.00  0.00    +0.000 S 
BRANCH  18  19
ATOM     19  C   UNL     1       3.627   2.055  17.987  0.00  0.00    +0.000 C 
BRANCH  19  20
ATOM     20  C   UNL     1       4.601   2.825  18.872  0.00  0.00    +0.000 C 
ATOM     21  O   UNL     1       4.805   2.587  20.062  0.00  0.00    +0.000 OA
BRANCH  20  22
ATOM     22  C   UNL     1       5.320   3.992  18.238  0.00  0.00    +0.000 A 
ATOM     23  C   UNL     1       6.034   4.882  19.050  0.00  0.00    +0.000 A 
ATOM     24  C   UNL     1       6.648   6.015  18.491  0.00  0.00    +0.000 A 
ATOM     25  C   UNL     1       6.591   6.258  17.116  0.00  0.00    +0.000 A 
ATOM     26  C   UNL     1       5.907   5.358  16.300  0.00  0.00    +0.000 A 
ATOM     27  C   UNL     1       5.275   4.232  16.858  0.00  0.00    +0.000 A 
BRANCH  25  28
ATOM     28  O   UNL     1       7.182   7.418  16.704  0.00  0.00    +0.000 OA
ATOM     29  C   UNL     1       7.819   8.208  17.702  0.00  0.00    +0.000 C 
ENDBRANCH  25  28
ENDBRANCH  20  22
ENDBRANCH  19  20
ENDBRANCH  18  19
ENDBRANCH   5  18
TORSDOF 9
ENDMDL
MODEL 7
REMARK VINA RESULT:      -7.0      0.936      1.422
REMARK  Name = 
REMARK  11 active torsions:
REMARK  status: ('A' for Active; 'I' for Inactive)
REMARK    1  A    between atoms: C_1  and  C_2
REMARK    2  A    between atoms: C_2  and  N_3
REMARK    3  A    between atoms: C_4  and  C_5
REMARK    4  A    between atoms: C_5  and  N_6
REMARK    5  A    between atoms: C_7  and  C_9
REMARK    6  A    between atoms: C_16  and  S_17
REMARK    7  A    between atoms: S_17  and  C_18
REMARK    8  A    between atoms: C_18  and  C_19
REMARK    9  A    between atoms: C_19  and  C_21
REMARK   10  A    between atoms: C_24  and  O_25
REMARK   11  A    between atoms: O_25  and  C_26
REMARK                            x       y       z     vdW  Elec       q    Type
REMARK                         _______ _______ _______ _____ _____    ______ ____
ROOT
ATOM      1  N   UNL     1       1.313   8.781  19.660  0.00  0.00    +0.000 N 
ATOM      2  C   UNL     1       1.447   9.774  18.692  0.00  0.00    +0.000 A 
ATOM      3  N   UNL     1       2.105   9.282  17.662  0.00  0.00    +0.000 NA
ATOM      4  N   UNL     1       2.430   7.986  17.945  0.00  0.00    +0.000 NA
ATOM      5  C   UNL     1       1.976   7.693  19.144  0.00  0.00    +0.000 A 
ENDROOT
BRANCH   1   7
ATOM      6  C   UNL     1       1.355   9.389  22.174  0.00  0.00    +0.000 C 
ATOM      7  C   UNL     1       0.615   9.020  20.905  0.00  0.00    +0.000 C 
ENDBRANCH   1   7
BRANCH   2   8
ATOM      8  C   UNL     1       0.900  11.161  18.779  0.00  0.00    +0.000 C 
BRANCH   8   9
ATOM      9  N   UNL     1      -0.341  11.259  18.048  0.00  0.00    +0.000 N 
ATOM     10  C   UNL     1      -1.565  11.449  18.652  0.00  0.00    +0.000 C 
ATOM     11  O   UNL     1      -1.675  11.657  19.857  0.00  0.00    +0.000 OA
ATOM     12  H   UNL     1      -0.331  11.114  17.045  0.00  0.00    +0.000 HD
BRANCH  10  13
ATOM     13  C   UNL     1      -2.697  11.379  17.747  0.00  0.00    +0.000 A 
ATOM     14  C   UNL     1      -4.053  11.533  17.971  0.00  0.00    +0.000 A 
ATOM     15  C   UNL     1      -4.700  11.320  16.731  0.00  0.00    +0.000 A 
ATOM     16  C   UNL     1      -3.703  11.042  15.825  0.00  0.00    +0.000 A 
ATOM     17  O   UNL     1      -2.485  11.088  16.424  0.00  0.00    +0.000 OA
ENDBRANCH  10  13
ENDBRANCH   8   9
ENDBRANCH   2   8
BRANCH   5  18
ATOM     18  S   UNL     1       2.238   6.149  19.900  0.00  0.00    +0.000 S 
BRANCH  18  19
ATOM     19  C   UNL     1       2.226   5.064  18.426  0.00  0.00    +0.000 C 
BRANCH  19  20
ATOM     20  C   UNL     1       3.349   4.034  18.383  0.00  0.00    +0.000 C 
ATOM     21  O   UNL     1       3.394   3.016  19.073  0.00  0.00    +0.000 OA
BRANCH  20  22
ATOM     22  C   UNL     1       4.507   4.329  17.459  0.00  0.00    +0.000 A 
ATOM     23  C   UNL     1       5.483   5.253  17.854  0.00  0.00    +0.000 A 
ATOM     24  C   UNL     1       6.528   5.598  16.981  0.00  0.00    +0.000 A 
ATOM     25  C   UNL     1       6.637   5.003  15.721  0.00  0.00    +0.000 A 
ATOM     26  C   UNL     1       5.685   4.059  15.337  0.00  0.00    +0.000 A 
ATOM     27  C   UNL     1       4.626   3.725  16.200  0.00  0.00    +0.000 A 
BRANCH  25  28
ATOM     28  O   UNL     1       7.664   5.459  14.948  0.00  0.00    +0.000 OA
ATOM     29  C   UNL     1       7.676   5.053  13.583  0.00  0.00    +0.000 C 
ENDBRANCH  25  28
ENDBRANCH  20  22
ENDBRANCH  19  20
ENDBRANCH  18  19
ENDBRANCH   5  18
TORSDOF 9
ENDMDL
MODEL 8
REMARK VINA RESULT:      -6.9      5.925      8.700
REMARK  Name = 
REMARK  11 active torsions:
REMARK  status: ('A' for Active; 'I' for Inactive)
REMARK    1  A    between atoms: C_1  and  C_2
REMARK    2  A    between atoms: C_2  and  N_3
REMARK    3  A    between atoms: C_4  and  C_5
REMARK    4  A    between atoms: C_5  and  N_6
REMARK    5  A    between atoms: C_7  and  C_9
REMARK    6  A    between atoms: C_16  and  S_17
REMARK    7  A    between atoms: S_17  and  C_18
REMARK    8  A    between atoms: C_18  and  C_19
REMARK    9  A    between atoms: C_19  and  C_21
REMARK   10  A    between atoms: C_24  and  O_25
REMARK   11  A    between atoms: O_25  and  C_26
REMARK                            x       y       z     vdW  Elec       q    Type
REMARK                         _______ _______ _______ _____ _____    ______ ____
ROOT
ATOM      1  N   UNL     1       6.511   6.568  17.551  0.00  0.00    +0.000 N 
ATOM      2  C   UNL     1       6.755   5.293  18.056  0.00  0.00    +0.000 A 
ATOM      3  N   UNL     1       7.803   5.341  18.853  0.00  0.00    +0.000 NA
ATOM      4  N   UNL     1       8.269   6.625  18.865  0.00  0.00    +0.000 NA
ATOM      5  C   UNL     1       7.512   7.352  18.072  0.00  0.00    +0.000 A 
ENDROOT
BRANCH   1   7
ATOM      6  C   UNL     1       4.023   7.165  17.175  0.00  0.00    +0.000 C 
ATOM      7  C   UNL     1       5.406   6.834  16.655  0.00  0.00    +0.000 C 
ENDBRANCH   1   7
BRANCH   2   8
ATOM      8  C   UNL     1       5.942   4.070  17.777  0.00  0.00    +0.000 C 
BRANCH   8   9
ATOM      9  N   UNL     1       4.835   3.982  18.699  0.00  0.00    +0.000 N 
ATOM     10  C   UNL     1       3.793   3.093  18.552  0.00  0.00    +0.000 C 
ATOM     11  O   UNL     1       3.788   2.230  17.677  0.00  0.00    +0.000 OA
ATOM     12  H   UNL     1       4.776   4.652  19.458  0.00  0.00    +0.000 HD
BRANCH  10  13
ATOM     13  C   UNL     1       2.718   3.266  19.509  0.00  0.00    +0.000 A 
ATOM     14  C   UNL     1       1.605   4.088  19.490  0.00  0.00    +0.000 A 
ATOM     15  C   UNL     1       0.916   3.872  20.707  0.00  0.00    +0.000 A 
ATOM     16  C   UNL     1       1.649   2.938  21.399  0.00  0.00    +0.000 A 
ATOM     17  O   UNL     1       2.735   2.553  20.680  0.00  0.00    +0.000 OA
ENDBRANCH  10  13
ENDBRANCH   8   9
ENDBRANCH   2   8
BRANCH   5  18
ATOM     18  S   UNL     1       7.815   9.037  17.766  0.00  0.00    +0.000 S 
BRANCH  18  19
ATOM     19  C   UNL     1       9.282   9.298  18.829  0.00  0.00    +0.000 C 
BRANCH  19  20
ATOM     20  C   UNL     1       9.284  10.613  19.600  0.00  0.00    +0.000 C 
ATOM     21  O   UNL     1       8.902  10.744  20.763  0.00  0.00    +0.000 OA
BRANCH  20  22
ATOM     22  C   UNL     1       9.742  11.841  18.851  0.00  0.00    +0.000 A 
ATOM     23  C   UNL     1      10.633  11.700  17.780  0.00  0.00    +0.000 A 
ATOM     24  C   UNL     1      11.130  12.834  17.115  0.00  0.00    +0.000 A 
ATOM     25  C   UNL     1      10.718  14.118  17.482  0.00  0.00    +0.000 A 
ATOM     26  C   UNL     1       9.807  14.261  18.528  0.00  0.00    +0.000 A 
ATOM     27  C   UNL     1       9.322  13.130  19.209  0.00  0.00    +0.000 A 
BRANCH  25  28
ATOM     28  O   UNL     1      11.311  15.138  16.796  0.00  0.00    +0.000 OA
ATOM     29  C   UNL     1      10.629  16.388  16.780  0.00  0.00    +0.000 C 
ENDBRANCH  25  28
ENDBRANCH  20  22
ENDBRANCH  19  20
ENDBRANCH  18  19
ENDBRANCH   5  18
TORSDOF 9
ENDMDL
MODEL 9
REMARK VINA RESULT:      -6.9      1.058      1.961
REMARK  Name = 
REMARK  11 active torsions:
REMARK  status: ('A' for Active; 'I' for Inactive)
REMARK    1  A    between atoms: C_1  and  C_2
REMARK    2  A    between atoms: C_2  and  N_3
REMARK    3  A    between atoms: C_4  and  C_5
REMARK    4  A    between atoms: C_5  and  N_6
REMARK    5  A    between atoms: C_7  and  C_9
REMARK    6  A    between atoms: C_16  and  S_17
REMARK    7  A    between atoms: S_17  and  C_18
REMARK    8  A    between atoms: C_18  and  C_19
REMARK    9  A    between atoms: C_19  and  C_21
REMARK   10  A    between atoms: C_24  and  O_25
REMARK   11  A    between atoms: O_25  and  C_26
REMARK                            x       y       z     vdW  Elec       q    Type
REMARK                         _______ _______ _______ _____ _____    ______ ____
ROOT
ATOM      1  N   UNL     1       2.057   7.811  18.925  0.00  0.00    +0.000 N 
ATOM      2  C   UNL     1       1.530   8.960  19.513  0.00  0.00    +0.000 A 
ATOM      3  N   UNL     1       1.188   8.687  20.756  0.00  0.00    +0.000 NA
ATOM      4  N   UNL     1       1.459   7.369  20.991  0.00  0.00    +0.000 NA
ATOM      5  C   UNL     1       1.958   6.842  19.894  0.00  0.00    +0.000 A 
ENDROOT
BRANCH   1   7
ATOM      6  C   UNL     1       4.006   7.606  17.237  0.00  0.00    +0.000 C 
ATOM      7  C   UNL     1       2.540   7.806  17.561  0.00  0.00    +0.000 C 
ENDBRANCH   1   7
BRANCH   2   8
ATOM      8  C   UNL     1       1.407  10.299  18.861  0.00  0.00    +0.000 C 
BRANCH   8   9
ATOM      9  N   UNL     1       0.238  10.341  18.015  0.00  0.00    +0.000 N 
ATOM     10  C   UNL     1      -1.002  10.754  18.453  0.00  0.00    +0.000 C 
ATOM     11  O   UNL     1      -1.177  11.222  19.576  0.00  0.00    +0.000 OA
ATOM     12  H   UNL     1       0.305   9.985  17.069  0.00  0.00    +0.000 HD
BRANCH  10  13
ATOM     13  C   UNL     1      -2.066  10.586  17.483  0.00  0.00    +0.000 A 
ATOM     14  C   UNL     1      -3.122   9.694  17.435  0.00  0.00    +0.000 A 
ATOM     15  C   UNL     1      -3.828   9.960  16.237  0.00  0.00    +0.000 A 
ATOM     16  C   UNL     1      -3.160  10.992  15.622  0.00  0.00    +0.000 A 
ATOM     17  O   UNL     1      -2.100  11.390  16.373  0.00  0.00    +0.000 OA
ENDBRANCH  10  13
ENDBRANCH   8   9
ENDBRANCH   2   8
BRANCH   5  18
ATOM     18  S   UNL     1       2.380   5.160  19.766  0.00  0.00    +0.000 S 
BRANCH  18  19
ATOM     19  C   UNL     1       4.205   5.287  19.731  0.00  0.00    +0.000 C 
BRANCH  19  20
ATOM     20  C   UNL     1       4.916   4.090  19.110  0.00  0.00    +0.000 C 
ATOM     21  O   UNL     1       5.097   3.012  19.675  0.00  0.00    +0.000 OA
BRANCH  20  22
ATOM     22  C   UNL     1       5.476   4.279  17.721  0.00  0.00    +0.000 A 
ATOM     23  C   UNL     1       6.810   4.678  17.566  0.00  0.00    +0.000 A 
ATOM     24  C   UNL     1       7.332   4.930  16.286  0.00  0.00    +0.000 A 
ATOM     25  C   UNL     1       6.546   4.754  15.143  0.00  0.00    +0.000 A 
ATOM     26  C   UNL     1       5.227   4.327  15.291  0.00  0.00    +0.000 A 
ATOM     27  C   UNL     1       4.695   4.092  16.572  0.00  0.00    +0.000 A 
BRANCH  25  28
ATOM     28  O   UNL     1       7.151   5.081  13.965  0.00  0.00    +0.000 OA
ATOM     29  C   UNL     1       6.912   4.221  12.855  0.00  0.00    +0.000 C 
ENDBRANCH  25  28
ENDBRANCH  20  22
ENDBRANCH  19  20
ENDBRANCH  18  19
ENDBRANCH   5  18
TORSDOF 9
ENDMDL
