MODEL 1
REMARK VINA RESULT:      -8.2      0.000      0.000
REMARK  Name = 
REMARK  10 active torsions:
REMARK  status: ('A' for Active; 'I' for Inactive)
REMARK    1  A    between atoms: C_2  and  C_5
REMARK    2  A    between atoms: N_3  and  O_4
REMARK    3  A    between atoms: C_5  and  C_6
REMARK    4  A    between atoms: C_5  and  N_25
REMARK    5  A    between atoms: C_6  and  N_7
REMARK    6  A    between atoms: N_7  and  S_8
REMARK    7  A    between atoms: S_8  and  C_11
REMARK    8  A    between atoms: C_14  and  O_15
REMARK    9  A    between atoms: O_15  and  C_16
REMARK   10  A    between atoms: C_16  and  C_17
REMARK                            x       y       z     vdW  Elec       q    Type
REMARK                         _______ _______ _______ _____ _____    ______ ____
ROOT
ATOM      1  S   UNL     1       4.208   3.201  18.928  0.00  0.00    +0.000 S 
ATOM      2  O   UNL     1       3.373   2.328  18.133  0.00  0.00    +0.000 OA
ATOM      3  O   UNL     1       4.804   2.753  20.169  0.00  0.00    +0.000 OA
ENDROOT
BRANCH   1   4
ATOM      4  C   UNL     1       3.281   4.674  19.274  0.00  0.00    +0.000 A 
ATOM      5  C   UNL     1       2.411   4.698  20.367  0.00  0.00    +0.000 A 
ATOM      6  C   UNL     1       1.747   5.881  20.696  0.00  0.00    +0.000 A 
ATOM      7  C   UNL     1       1.968   7.043  19.949  0.00  0.00    +0.000 A 
ATOM      8  C   UNL     1       2.805   7.001  18.834  0.00  0.00    +0.000 A 
ATOM      9  C   UNL     1       3.482   5.825  18.509  0.00  0.00    +0.000 A 
BRANCH   7  10
ATOM     10  O   UNL     1       1.427   8.266  20.238  0.00  0.00    +0.000 OA
BRANCH  10  11
ATOM     11  C   UNL     1       1.463   9.205  19.157  0.00  0.00    +0.000 C 
BRANCH  11  12
ATOM     12  C   UNL     1       0.222  10.065  19.148  0.00  0.00    +0.000 A 
ATOM     13  C   UNL     1      -0.101  10.911  20.216  0.00  0.00    +0.000 A 
ATOM     14  C   UNL     1      -1.270  11.675  20.183  0.00  0.00    +0.000 A 
ATOM     15  C   UNL     1      -2.116  11.615  19.076  0.00  0.00    +0.000 A 
ATOM     16  C   UNL     1      -1.785  10.806  17.992  0.00  0.00    +0.000 A 
ATOM     17  C   UNL     1      -0.621  10.041  18.024  0.00  0.00    +0.000 A 
ENDBRANCH  11  12
ENDBRANCH  10  11
ENDBRANCH   7  10
ENDBRANCH   1   4
BRANCH   1  18
ATOM     18  N   UNL     1       5.425   3.717  17.893  0.00  0.00    +0.000 NA
ATOM     19  H   UNL     1       5.831   4.585  18.249  0.00  0.00    +0.000 HD
BRANCH  18  20
ATOM     20  C   UNL     1       5.151   3.678  16.441  0.00  0.00    +0.000 C 
BRANCH  20  21
ATOM     21  C   UNL     1       5.660   4.917  15.662  0.00  0.00    +0.000 C 
BRANCH  21  22
ATOM     22  N   UNL     1       5.943   4.821  14.190  0.00  0.00    +0.000 NA
ATOM     23  C   UNL     1       7.357   5.007  13.828  0.00  0.00    +0.000 C 
ATOM     24  C   UNL     1       7.562   4.969  12.311  0.00  0.00    +0.000 C 
ATOM     25  C   UNL     1       7.050   3.655  11.734  0.00  0.00    +0.000 C 
ATOM     26  C   UNL     1       5.598   3.444  12.139  0.00  0.00    +0.000 C 
ATOM     27  C   UNL     1       5.429   3.546  13.656  0.00  0.00    +0.000 C 
ENDBRANCH  21  22
BRANCH  21  29
ATOM     28  O   UNL     1       7.736   5.004  16.965  0.00  0.00    +0.000 OA
ATOM     29  C   UNL     1       6.812   5.601  16.414  0.00  0.00    +0.000 C 
ATOM     30  N   UNL     1       6.673   6.968  16.521  0.00  0.00    +0.000 N 
ATOM     31  H   UNL     1       6.191   7.469  15.777  0.00  0.00    +0.000 HD
BRANCH  30  32
ATOM     32  O   UNL     1       7.729   7.638  17.182  0.00  0.00    +0.000 OA
ATOM     33  H   UNL     1       8.444   6.963  17.178  0.00  0.00    +0.000 HD
ENDBRANCH  30  32
ENDBRANCH  21  29
ENDBRANCH  20  21
ENDBRANCH  18  20
ENDBRANCH   1  18
TORSDOF 10
ENDMDL
MODEL 2
REMARK VINA RESULT:      -8.1      0.935      1.575
REMARK  Name = 
REMARK  10 active torsions:
REMARK  status: ('A' for Active; 'I' for Inactive)
REMARK    1  A    between atoms: C_2  and  C_5
REMARK    2  A    between atoms: N_3  and  O_4
REMARK    3  A    between atoms: C_5  and  C_6
REMARK    4  A    between atoms: C_5  and  N_25
REMARK    5  A    between atoms: C_6  and  N_7
REMARK    6  A    between atoms: N_7  and  S_8
REMARK    7  A    between atoms: S_8  and  C_11
REMARK    8  A    between atoms: C_14  and  O_15
REMARK    9  A    between atoms: O_15  and  C_16
REMARK   10  A    between atoms: C_16  and  C_17
REMARK                            x       y       z     vdW  Elec       q    Type
REMARK                         _______ _______ _______ _____ _____    ______ ____
ROOT
ATOM      1  S   UNL     1       3.389   3.394  18.690  0.00  0.00    +0.000 S 
ATOM      2  O   UNL     1       2.625   2.808  17.610  0.00  0.00    +0.000 OA
ATOM      3  O   UNL     1       3.501   2.741  19.978  0.00  0.00    +0.000 OA
ENDROOT
BRANCH   1   4
ATOM      4  C   UNL     1       2.774   5.034  18.966  0.00  0.00    +0.000 A 
ATOM      5  C   UNL     1       2.228   5.363  20.210  0.00  0.00    +0.000 A 
ATOM      6  C   UNL     1       1.824   6.676  20.461  0.00  0.00    +0.000 A 
ATOM      7  C   UNL     1       1.985   7.661  19.482  0.00  0.00    +0.000 A 
ATOM      8  C   UNL     1       2.491   7.318  18.229  0.00  0.00    +0.000 A 
ATOM      9  C   UNL     1       2.909   6.010  17.976  0.00  0.00    +0.000 A 
BRANCH   7  10
ATOM     10  O   UNL     1       1.693   8.986  19.660  0.00  0.00    +0.000 OA
BRANCH  10  11
ATOM     11  C   UNL     1       0.707   9.251  20.665  0.00  0.00    +0.000 C 
BRANCH  11  12
ATOM     12  C   UNL     1      -0.305  10.259  20.176  0.00  0.00    +0.000 A 
ATOM     13  C   UNL     1      -0.762  10.267  18.852  0.00  0.00    +0.000 A 
ATOM     14  C   UNL     1      -1.682  11.230  18.428  0.00  0.00    +0.000 A 
ATOM     15  C   UNL     1      -2.166  12.179  19.328  0.00  0.00    +0.000 A 
ATOM     16  C   UNL     1      -1.749  12.156  20.656  0.00  0.00    +0.000 A 
ATOM     17  C   UNL     1      -0.829  11.198  21.079  0.00  0.00    +0.000 A 
ENDBRANCH  11  12
ENDBRANCH  10  11
ENDBRANCH   7  10
ENDBRANCH   1   4
BRANCH   1  18
ATOM     18  N   UNL     1       4.929   3.634  18.065  0.00  0.00    +0.000 NA
ATOM     19  H   UNL     1       5.347   4.460  18.497  0.00  0.00    +0.000 HD
BRANCH  18  20
ATOM     20  C   UNL     1       5.101   3.509  16.603  0.00  0.00    +0.000 C 
BRANCH  20  21
ATOM     21  C   UNL     1       6.115   4.510  15.993  0.00  0.00    +0.000 C 
BRANCH  21  22
ATOM     22  N   UNL     1       6.713   4.248  14.640  0.00  0.00    +0.000 NA
ATOM     23  C   UNL     1       5.755   3.766  13.633  0.00  0.00    +0.000 C 
ATOM     24  C   UNL     1       6.443   3.451  12.302  0.00  0.00    +0.000 C 
ATOM     25  C   UNL     1       7.174   4.679  11.773  0.00  0.00    +0.000 C 
ATOM     26  C   UNL     1       8.140   5.200  12.828  0.00  0.00    +0.000 C 
ATOM     27  C   UNL     1       7.423   5.447  14.157  0.00  0.00    +0.000 C 
ENDBRANCH  21  22
BRANCH  21  29
ATOM     28  O   UNL     1       8.141   4.183  17.334  0.00  0.00    +0.000 OA
ATOM     29  C   UNL     1       7.190   4.896  17.020  0.00  0.00    +0.000 C 
ATOM     30  N   UNL     1       6.943   6.091  17.661  0.00  0.00    +0.000 N 
ATOM     31  H   UNL     1       6.444   6.821  17.156  0.00  0.00    +0.000 HD
BRANCH  30  32
ATOM     32  O   UNL     1       7.926   6.496  18.594  0.00  0.00    +0.000 OA
ATOM     33  H   UNL     1       8.438   7.163  18.087  0.00  0.00    +0.000 HD
ENDBRANCH  30  32
ENDBRANCH  21  29
ENDBRANCH  20  21
ENDBRANCH  18  20
ENDBRANCH   1  18
TORSDOF 10
ENDMDL
MODEL 3
REMARK VINA RESULT:      -8.0      1.597      2.275
REMARK  Name = 
REMARK  10 active torsions:
REMARK  status: ('A' for Active; 'I' for Inactive)
REMARK    1  A    between atoms: C_2  and  C_5
REMARK    2  A    between atoms: N_3  and  O_4
REMARK    3  A    between atoms: C_5  and  C_6
REMARK    4  A    between atoms: C_5  and  N_25
REMARK    5  A    between atoms: C_6  and  N_7
REMARK    6  A    between atoms: N_7  and  S_8
REMARK    7  A    between atoms: S_8  and  C_11
REMARK    8  A    between atoms: C_14  and  O_15
REMARK    9  A    between atoms: O_15  and  C_16
REMARK   10  A    between atoms: C_16  and  C_17
REMARK                            x       y       z     vdW  Elec       q    Type
REMARK                         _______ _______ _______ _____ _____    ______ ____
ROOT
ATOM      1  S   UNL     1       3.144   3.189  18.794  0.00  0.00    +0.000 S 
ATOM      2  O   UNL     1       2.179   2.762  17.805  0.00  0.00    +0.000 OA
ATOM      3  O   UNL     1       3.377   2.426  20.003  0.00  0.00    +0.000 OA
ENDROOT
BRANCH   1   4
ATOM      4  C   UNL     1       2.738   4.848  19.271  0.00  0.00    +0.000 A 
ATOM      5  C   UNL     1       3.029   5.904  18.403  0.00  0.00    +0.000 A 
ATOM      6  C   UNL     1       2.631   7.201  18.736  0.00  0.00    +0.000 A 
ATOM      7  C   UNL     1       1.925   7.439  19.920  0.00  0.00    +0.000 A 
ATOM      8  C   UNL     1       1.675   6.387  20.801  0.00  0.00    +0.000 A 
ATOM      9  C   UNL     1       2.059   5.087  20.468  0.00  0.00    +0.000 A 
BRANCH   7  10
ATOM     10  O   UNL     1       1.426   8.657  20.294  0.00  0.00    +0.000 OA
BRANCH  10  11
ATOM     11  C   UNL     1       1.096   8.765  21.684  0.00  0.00    +0.000 C 
BRANCH  11  12
ATOM     12  C   UNL     1       0.264   9.996  21.946  0.00  0.00    +0.000 A 
ATOM     13  C   UNL     1      -0.664  10.054  22.994  0.00  0.00    +0.000 A 
ATOM     14  C   UNL     1      -1.434  11.202  23.193  0.00  0.00    +0.000 A 
ATOM     15  C   UNL     1      -1.272  12.308  22.360  0.00  0.00    +0.000 A 
ATOM     16  C   UNL     1      -0.325  12.276  21.339  0.00  0.00    +0.000 A 
ATOM     17  C   UNL     1       0.442  11.131  21.137  0.00  0.00    +0.000 A 
ENDBRANCH  11  12
ENDBRANCH  10  11
ENDBRANCH   7  10
ENDBRANCH   1   4
BRANCH   1  18
ATOM     18  N   UNL     1       4.594   3.346  17.961  0.00  0.00    +0.000 NA
ATOM     19  H   UNL     1       5.215   3.977  18.473  0.00  0.00    +0.000 HD
BRANCH  18  20
ATOM     20  C   UNL     1       4.525   3.548  16.499  0.00  0.00    +0.000 C 
BRANCH  20  21
ATOM     21  C   UNL     1       5.549   4.572  15.948  0.00  0.00    +0.000 C 
BRANCH  21  22
ATOM     22  N   UNL     1       6.339   4.258  14.709  0.00  0.00    +0.000 NA
ATOM     23  C   UNL     1       5.530   3.781  13.576  0.00  0.00    +0.000 C 
ATOM     24  C   UNL     1       6.404   3.412  12.374  0.00  0.00    +0.000 C 
ATOM     25  C   UNL     1       7.250   4.603  11.940  0.00  0.00    +0.000 C 
ATOM     26  C   UNL     1       8.060   5.119  13.122  0.00  0.00    +0.000 C 
ATOM     27  C   UNL     1       7.156   5.422  14.318  0.00  0.00    +0.000 C 
ENDBRANCH  21  22
BRANCH  21  29
ATOM     28  O   UNL     1       6.451   6.268  17.472  0.00  0.00    +0.000 OA
ATOM     29  C   UNL     1       6.451   5.105  17.072  0.00  0.00    +0.000 C 
ATOM     30  N   UNL     1       7.361   4.182  17.540  0.00  0.00    +0.000 N 
ATOM     31  H   UNL     1       7.109   3.196  17.523  0.00  0.00    +0.000 HD
BRANCH  30  32
ATOM     32  O   UNL     1       8.190   4.626  18.597  0.00  0.00    +0.000 OA
ATOM     33  H   UNL     1       8.857   3.908  18.659  0.00  0.00    +0.000 HD
ENDBRANCH  30  32
ENDBRANCH  21  29
ENDBRANCH  20  21
ENDBRANCH  18  20
ENDBRANCH   1  18
TORSDOF 10
ENDMDL
MODEL 4
REMARK VINA RESULT:      -7.9      1.443      1.712
REMARK  Name = 
REMARK  10 active torsions:
REMARK  status: ('A' for Active; 'I' for Inactive)
REMARK    1  A    between atoms: C_2  and  C_5
REMARK    2  A    between atoms: N_3  and  O_4
REMARK    3  A    between atoms: C_5  and  C_6
REMARK    4  A    between atoms: C_5  and  N_25
REMARK    5  A    between atoms: C_6  and  N_7
REMARK    6  A    between atoms: N_7  and  S_8
REMARK    7  A    between atoms: S_8  and  C_11
REMARK    8  A    between atoms: C_14  and  O_15
REMARK    9  A    between atoms: O_15  and  C_16
REMARK   10  A    between atoms: C_16  and  C_17
REMARK                            x       y       z     vdW  Elec       q    Type
REMARK                         _______ _______ _______ _____ _____    ______ ____
ROOT
ATOM      1  S   UNL     1       4.415   3.149  18.620  0.00  0.00    +0.000 S 
ATOM      2  O   UNL     1       3.800   2.619  17.423  0.00  0.00    +0.000 OA
ATOM      3  O   UNL     1       4.829   2.283  19.705  0.00  0.00    +0.000 OA
ENDROOT
BRANCH   1   4
ATOM      4  C   UNL     1       3.328   4.378  19.293  0.00  0.00    +0.000 A 
ATOM      5  C   UNL     1       2.292   3.987  20.145  0.00  0.00    +0.000 A 
ATOM      6  C   UNL     1       1.489   4.958  20.748  0.00  0.00    +0.000 A 
ATOM      7  C   UNL     1       1.734   6.316  20.517  0.00  0.00    +0.000 A 
ATOM      8  C   UNL     1       2.742   6.698  19.632  0.00  0.00    +0.000 A 
ATOM      9  C   UNL     1       3.557   5.732  19.038  0.00  0.00    +0.000 A 
BRANCH   7  10
ATOM     10  O   UNL     1       1.055   7.339  21.119  0.00  0.00    +0.000 OA
BRANCH  10  11
ATOM     11  C   UNL     1       1.234   8.620  20.501  0.00  0.00    +0.000 C 
BRANCH  11  12
ATOM     12  C   UNL     1       0.505   9.696  21.268  0.00  0.00    +0.000 A 
ATOM     13  C   UNL     1      -0.269   9.404  22.399  0.00  0.00    +0.000 A 
ATOM     14  C   UNL     1      -0.949  10.423  23.071  0.00  0.00    +0.000 A 
ATOM     15  C   UNL     1      -0.847  11.742  22.631  0.00  0.00    +0.000 A 
ATOM     16  C   UNL     1      -0.049  12.049  21.531  0.00  0.00    +0.000 A 
ATOM     17  C   UNL     1       0.628  11.034  20.858  0.00  0.00    +0.000 A 
ENDBRANCH  11  12
ENDBRANCH  10  11
ENDBRANCH   7  10
ENDBRANCH   1   4
BRANCH   1  18
ATOM     18  N   UNL     1       5.744   4.026  18.086  0.00  0.00    +0.000 NA
ATOM     19  H   UNL     1       5.667   4.993  18.408  0.00  0.00    +0.000 HD
BRANCH  18  20
ATOM     20  C   UNL     1       6.165   3.842  16.681  0.00  0.00    +0.000 C 
BRANCH  20  21
ATOM     21  C   UNL     1       5.655   4.941  15.714  0.00  0.00    +0.000 C 
BRANCH  21  22
ATOM     22  N   UNL     1       5.912   4.826  14.239  0.00  0.00    +0.000 NA
ATOM     23  C   UNL     1       7.320   5.005  13.850  0.00  0.00    +0.000 C 
ATOM     24  C   UNL     1       7.499   4.949  12.330  0.00  0.00    +0.000 C 
ATOM     25  C   UNL     1       6.974   3.630  11.777  0.00  0.00    +0.000 C 
ATOM     26  C   UNL     1       5.528   3.427  12.209  0.00  0.00    +0.000 C 
ATOM     27  C   UNL     1       5.385   3.547  13.727  0.00  0.00    +0.000 C 
ENDBRANCH  21  22
BRANCH  21  29
ATOM     28  O   UNL     1       5.231   7.296  16.247  0.00  0.00    +0.000 OA
ATOM     29  C   UNL     1       6.005   6.341  16.241  0.00  0.00    +0.000 C 
ATOM     30  N   UNL     1       7.323   6.480  16.618  0.00  0.00    +0.000 N 
ATOM     31  H   UNL     1       7.814   5.667  16.985  0.00  0.00    +0.000 HD
BRANCH  30  32
ATOM     32  O   UNL     1       7.678   7.748  17.136  0.00  0.00    +0.000 OA
ATOM     33  H   UNL     1       8.477   7.974  16.612  0.00  0.00    +0.000 HD
ENDBRANCH  30  32
ENDBRANCH  21  29
ENDBRANCH  20  21
ENDBRANCH  18  20
ENDBRANCH   1  18
TORSDOF 10
ENDMDL
MODEL 5
REMARK VINA RESULT:      -7.9      3.727      8.938
REMARK  Name = 
REMARK  10 active torsions:
REMARK  status: ('A' for Active; 'I' for Inactive)
REMARK    1  A    between atoms: C_2  and  C_5
REMARK    2  A    between atoms: N_3  and  O_4
REMARK    3  A    between atoms: C_5  and  C_6
REMARK    4  A    between atoms: C_5  and  N_25
REMARK    5  A    between atoms: C_6  and  N_7
REMARK    6  A    between atoms: N_7  and  S_8
REMARK    7  A    between atoms: S_8  and  C_11
REMARK    8  A    between atoms: C_14  and  O_15
REMARK    9  A    between atoms: O_15  and  C_16
REMARK   10  A    between atoms: C_16  and  C_17
REMARK                            x       y       z     vdW  Elec       q    Type
REMARK                         _______ _______ _______ _____ _____    ______ ____
ROOT
ATOM      1  S   UNL     1       0.936   9.231  21.598  0.00  0.00    +0.000 S 
ATOM      2  O   UNL     1       1.903   9.410  22.659  0.00  0.00    +0.000 OA
ATOM      3  O   UNL     1      -0.445   8.898  21.882  0.00  0.00    +0.000 OA
ENDROOT
BRANCH   1   4
ATOM      4  C   UNL     1       1.571   8.005  20.485  0.00  0.00    +0.000 A 
ATOM      5  C   UNL     1       1.610   6.666  20.886  0.00  0.00    +0.000 A 
ATOM      6  C   UNL     1       2.025   5.686  19.981  0.00  0.00    +0.000 A 
ATOM      7  C   UNL     1       2.378   6.039  18.675  0.00  0.00    +0.000 A 
ATOM      8  C   UNL     1       2.376   7.380  18.294  0.00  0.00    +0.000 A 
ATOM      9  C   UNL     1       1.949   8.363  19.189  0.00  0.00    +0.000 A 
BRANCH   7  10
ATOM     10  O   UNL     1       2.722   5.146  17.697  0.00  0.00    +0.000 OA
BRANCH  10  11
ATOM     11  C   UNL     1       3.708   4.183  18.088  0.00  0.00    +0.000 C 
BRANCH  11  12
ATOM     12  C   UNL     1       4.976   4.355  17.287  0.00  0.00    +0.000 A 
ATOM     13  C   UNL     1       6.228   4.485  17.902  0.00  0.00    +0.000 A 
ATOM     14  C   UNL     1       7.378   4.666  17.130  0.00  0.00    +0.000 A 
ATOM     15  C   UNL     1       7.291   4.699  15.739  0.00  0.00    +0.000 A 
ATOM     16  C   UNL     1       6.056   4.532  15.115  0.00  0.00    +0.000 A 
ATOM     17  C   UNL     1       4.908   4.354  15.884  0.00  0.00    +0.000 A 
ENDBRANCH  11  12
ENDBRANCH  10  11
ENDBRANCH   7  10
ENDBRANCH   1   4
BRANCH   1  18
ATOM     18  N   UNL     1       0.982  10.654  20.709  0.00  0.00    +0.000 NA
ATOM     19  H   UNL     1       1.889  11.108  20.838  0.00  0.00    +0.000 HD
BRANCH  18  20
ATOM     20  C   UNL     1      -0.200  11.538  20.772  0.00  0.00    +0.000 C 
BRANCH  20  21
ATOM     21  C   UNL     1      -0.487  12.313  19.460  0.00  0.00    +0.000 C 
BRANCH  21  22
ATOM     22  N   UNL     1      -1.379  11.715  18.410  0.00  0.00    +0.000 NA
ATOM     23  C   UNL     1      -1.094  10.304  18.100  0.00  0.00    +0.000 C 
ATOM     24  C   UNL     1      -1.990   9.781  16.973  0.00  0.00    +0.000 C 
ATOM     25  C   UNL     1      -3.460   9.943  17.338  0.00  0.00    +0.000 C 
ATOM     26  C   UNL     1      -3.747  11.395  17.694  0.00  0.00    +0.000 C 
ATOM     27  C   UNL     1      -2.794  11.894  18.782  0.00  0.00    +0.000 C 
ENDBRANCH  21  22
BRANCH  21  29
ATOM     28  O   UNL     1       1.199  14.022  18.963  0.00  0.00    +0.000 OA
ATOM     29  C   UNL     1       0.813  12.860  18.851  0.00  0.00    +0.000 C 
ATOM     30  N   UNL     1       1.481  11.953  18.058  0.00  0.00    +0.000 N 
ATOM     31  H   UNL     1       1.409  10.962  18.283  0.00  0.00    +0.000 HD
BRANCH  30  32
ATOM     32  O   UNL     1       2.699  12.410  17.502  0.00  0.00    +0.000 OA
ATOM     33  H   UNL     1       3.366  11.876  17.986  0.00  0.00    +0.000 HD
ENDBRANCH  30  32
ENDBRANCH  21  29
ENDBRANCH  20  21
ENDBRANCH  18  20
ENDBRANCH   1  18
TORSDOF 10
ENDMDL
MODEL 6
REMARK VINA RESULT:      -7.9      1.663      2.608
REMARK  Name = 
REMARK  10 active torsions:
REMARK  status: ('A' for Active; 'I' for Inactive)
REMARK    1  A    between atoms: C_2  and  C_5
REMARK    2  A    between atoms: N_3  and  O_4
REMARK    3  A    between atoms: C_5  and  C_6
REMARK    4  A    between atoms: C_5  and  N_25
REMARK    5  A    between atoms: C_6  and  N_7
REMARK    6  A    between atoms: N_7  and  S_8
REMARK    7  A    between atoms: S_8  and  C_11
REMARK    8  A    between atoms: C_14  and  O_15
REMARK    9  A    between atoms: O_15  and  C_16
REMARK   10  A    between atoms: C_16  and  C_17
REMARK                            x       y       z     vdW  Elec       q    Type
REMARK                         _______ _______ _______ _____ _____    ______ ____
ROOT
ATOM      1  S   UNL     1       3.063   5.356  19.303  0.00  0.00    +0.000 S 
ATOM      2  O   UNL     1       2.012   4.517  19.834  0.00  0.00    +0.000 OA
ATOM      3  O   UNL     1       4.362   5.435  19.940  0.00  0.00    +0.000 OA
ENDROOT
BRANCH   1   4
ATOM      4  C   UNL     1       2.426   7.006  19.166  0.00  0.00    +0.000 A 
ATOM      5  C   UNL     1       2.501   7.672  17.940  0.00  0.00    +0.000 A 
ATOM      6  C   UNL     1       1.922   8.936  17.804  0.00  0.00    +0.000 A 
ATOM      7  C   UNL     1       1.251   9.522  18.882  0.00  0.00    +0.000 A 
ATOM      8  C   UNL     1       1.217   8.870  20.114  0.00  0.00    +0.000 A 
ATOM      9  C   UNL     1       1.782   7.601  20.253  0.00  0.00    +0.000 A 
BRANCH   7  10
ATOM     10  O   UNL     1       0.587  10.717  18.825  0.00  0.00    +0.000 OA
BRANCH  10  11
ATOM     11  C   UNL     1      -0.723  10.700  19.403  0.00  0.00    +0.000 C 
BRANCH  11  12
ATOM     12  C   UNL     1      -1.786  10.683  18.331  0.00  0.00    +0.000 A 
ATOM     13  C   UNL     1      -1.672   9.882  17.188  0.00  0.00    +0.000 A 
ATOM     14  C   UNL     1      -2.664   9.911  16.204  0.00  0.00    +0.000 A 
ATOM     15  C   UNL     1      -3.785  10.723  16.363  0.00  0.00    +0.000 A 
ATOM     16  C   UNL     1      -3.928  11.494  17.514  0.00  0.00    +0.000 A 
ATOM     17  C   UNL     1      -2.938  11.470  18.495  0.00  0.00    +0.000 A 
ENDBRANCH  11  12
ENDBRANCH  10  11
ENDBRANCH   7  10
ENDBRANCH   1   4
BRANCH   1  18
ATOM     18  N   UNL     1       3.266   4.862  17.711  0.00  0.00    +0.000 NA
ATOM     19  H   UNL     1       2.464   4.297  17.424  0.00  0.00    +0.000 HD
BRANCH  18  20
ATOM     20  C   UNL     1       4.595   4.349  17.318  0.00  0.00    +0.000 C 
BRANCH  20  21
ATOM     21  C   UNL     1       5.489   5.387  16.593  0.00  0.00    +0.000 C 
BRANCH  21  22
ATOM     22  N   UNL     1       5.820   5.214  15.139  0.00  0.00    +0.000 NA
ATOM     23  C   UNL     1       7.237   4.922  14.867  0.00  0.00    +0.000 C 
ATOM     24  C   UNL     1       7.518   4.830  13.364  0.00  0.00    +0.000 C 
ATOM     25  C   UNL     1       6.638   3.767  12.719  0.00  0.00    +0.000 C 
ATOM     26  C   UNL     1       5.174   4.049  13.030  0.00  0.00    +0.000 C 
ATOM     27  C   UNL     1       4.949   4.189  14.536  0.00  0.00    +0.000 C 
ENDBRANCH  21  22
BRANCH  21  29
ATOM     28  O   UNL     1       7.465   6.684  17.246  0.00  0.00    +0.000 OA
ATOM     29  C   UNL     1       6.743   5.704  17.423  0.00  0.00    +0.000 C 
ATOM     30  N   UNL     1       7.067   4.726  18.338  0.00  0.00    +0.000 N 
ATOM     31  H   UNL     1       6.316   4.176  18.751  0.00  0.00    +0.000 HD
BRANCH  30  32
ATOM     32  O   UNL     1       8.199   4.995  19.142  0.00  0.00    +0.000 OA
ATOM     33  H   UNL     1       8.308   4.157  19.642  0.00  0.00    +0.000 HD
ENDBRANCH  30  32
ENDBRANCH  21  29
ENDBRANCH  20  21
ENDBRANCH  18  20
ENDBRANCH   1  18
TORSDOF 10
ENDMDL
MODEL 7
REMARK VINA RESULT:      -7.8      2.137      3.672
REMARK  Name = 
REMARK  10 active torsions:
REMARK  status: ('A' for Active; 'I' for Inactive)
REMARK    1  A    between atoms: C_2  and  C_5
REMARK    2  A    between atoms: N_3  and  O_4
REMARK    3  A    between atoms: C_5  and  C_6
REMARK    4  A    between atoms: C_5  and  N_25
REMARK    5  A    between atoms: C_6  and  N_7
REMARK    6  A    between atoms: N_7  and  S_8
REMARK    7  A    between atoms: S_8  and  C_11
REMARK    8  A    between atoms: C_14  and  O_15
REMARK    9  A    between atoms: O_15  and  C_16
REMARK   10  A    between atoms: C_16  and  C_17
REMARK                            x       y       z     vdW  Elec       q    Type
REMARK                         _______ _______ _______ _____ _____    ______ ____
ROOT
ATOM      1  S   UNL     1       2.744   5.541  19.972  0.00  0.00    +0.000 S 
ATOM      2  O   UNL     1       2.251   4.859  21.149  0.00  0.00    +0.000 OA
ATOM      3  O   UNL     1       4.162   5.644  19.696  0.00  0.00    +0.000 OA
ENDROOT
BRANCH   1   4
ATOM      4  C   UNL     1       2.073   7.183  19.973  0.00  0.00    +0.000 A 
ATOM      5  C   UNL     1       2.156   7.961  18.815  0.00  0.00    +0.000 A 
ATOM      6  C   UNL     1       1.551   9.219  18.783  0.00  0.00    +0.000 A 
ATOM      7  C   UNL     1       0.847   9.689  19.896  0.00  0.00    +0.000 A 
ATOM      8  C   UNL     1       0.803   8.927  21.062  0.00  0.00    +0.000 A 
ATOM      9  C   UNL     1       1.394   7.662  21.095  0.00  0.00    +0.000 A 
BRANCH   7  10
ATOM     10  O   UNL     1       0.157  10.871  19.934  0.00  0.00    +0.000 OA
BRANCH  10  11
ATOM     11  C   UNL     1      -0.146  11.427  18.649  0.00  0.00    +0.000 C 
BRANCH  11  12
ATOM     12  C   UNL     1      -1.578  11.145  18.264  0.00  0.00    +0.000 A 
ATOM     13  C   UNL     1      -2.643  11.908  18.759  0.00  0.00    +0.000 A 
ATOM     14  C   UNL     1      -3.958  11.604  18.400  0.00  0.00    +0.000 A 
ATOM     15  C   UNL     1      -4.219  10.548  17.527  0.00  0.00    +0.000 A 
ATOM     16  C   UNL     1      -3.166   9.807  16.997  0.00  0.00    +0.000 A 
ATOM     17  C   UNL     1      -1.853  10.107  17.358  0.00  0.00    +0.000 A 
ENDBRANCH  11  12
ENDBRANCH  10  11
ENDBRANCH   7  10
ENDBRANCH   1   4
BRANCH   1  18
ATOM     18  N   UNL     1       1.989   4.791  18.674  0.00  0.00    +0.000 NA
ATOM     19  H   UNL     1       1.370   4.054  19.018  0.00  0.00    +0.000 HD
BRANCH  18  20
ATOM     20  C   UNL     1       2.822   4.445  17.504  0.00  0.00    +0.000 C 
BRANCH  20  21
ATOM     21  C   UNL     1       4.246   3.947  17.861  0.00  0.00    +0.000 C 
BRANCH  21  22
ATOM     22  N   UNL     1       5.320   3.913  16.811  0.00  0.00    +0.000 NA
ATOM     23  C   UNL     1       4.833   4.107  15.436  0.00  0.00    +0.000 C 
ATOM     24  C   UNL     1       5.967   3.989  14.413  0.00  0.00    +0.000 C 
ATOM     25  C   UNL     1       7.070   4.994  14.717  0.00  0.00    +0.000 C 
ATOM     26  C   UNL     1       7.550   4.817  16.152  0.00  0.00    +0.000 C 
ATOM     27  C   UNL     1       6.380   4.886  17.135  0.00  0.00    +0.000 C 
ENDBRANCH  21  22
BRANCH  21  29
ATOM     28  O   UNL     1       3.292   1.791  18.533  0.00  0.00    +0.000 OA
ATOM     29  C   UNL     1       4.184   2.629  18.648  0.00  0.00    +0.000 C 
ATOM     30  N   UNL     1       5.174   2.501  19.597  0.00  0.00    +0.000 N 
ATOM     31  H   UNL     1       6.076   2.941  19.424  0.00  0.00    +0.000 HD
BRANCH  30  32
ATOM     32  O   UNL     1       5.168   1.286  20.323  0.00  0.00    +0.000 OA
ATOM     33  H   UNL     1       5.827   0.745  19.836  0.00  0.00    +0.000 HD
ENDBRANCH  30  32
ENDBRANCH  21  29
ENDBRANCH  20  21
ENDBRANCH  18  20
ENDBRANCH   1  18
TORSDOF 10
ENDMDL
MODEL 8
REMARK VINA RESULT:      -7.8      0.643      1.080
REMARK  Name = 
REMARK  10 active torsions:
REMARK  status: ('A' for Active; 'I' for Inactive)
REMARK    1  A    between atoms: C_2  and  C_5
REMARK    2  A    between atoms: N_3  and  O_4
REMARK    3  A    between atoms: C_5  and  C_6
REMARK    4  A    between atoms: C_5  and  N_25
REMARK    5  A    between atoms: C_6  and  N_7
REMARK    6  A    between atoms: N_7  and  S_8
REMARK    7  A    between atoms: S_8  and  C_11
REMARK    8  A    between atoms: C_14  and  O_15
REMARK    9  A    between atoms: O_15  and  C_16
REMARK   10  A    between atoms: C_16  and  C_17
REMARK                            x       y       z     vdW  Elec       q    Type
REMARK                         _______ _______ _______ _____ _____    ______ ____
ROOT
ATOM      1  S   UNL     1       4.345   3.641  18.962  0.00  0.00    +0.000 S 
ATOM      2  O   UNL     1       3.592   2.528  19.496  0.00  0.00    +0.000 OA
ATOM      3  O   UNL     1       5.696   3.922  19.404  0.00  0.00    +0.000 OA
ENDROOT
BRANCH   1   4
ATOM      4  C   UNL     1       3.383   5.113  19.196  0.00  0.00    +0.000 A 
ATOM      5  C   UNL     1       2.528   5.207  20.298  0.00  0.00    +0.000 A 
ATOM      6  C   UNL     1       1.837   6.397  20.535  0.00  0.00    +0.000 A 
ATOM      7  C   UNL     1       2.015   7.496  19.688  0.00  0.00    +0.000 A 
ATOM      8  C   UNL     1       2.837   7.381  18.568  0.00  0.00    +0.000 A 
ATOM      9  C   UNL     1       3.541   6.199  18.333  0.00  0.00    +0.000 A 
BRANCH   7  10
ATOM     10  O   UNL     1       1.444   8.724  19.881  0.00  0.00    +0.000 OA
BRANCH  10  11
ATOM     11  C   UNL     1       0.869   9.306  18.705  0.00  0.00    +0.000 C 
BRANCH  11  12
ATOM     12  C   UNL     1      -0.185  10.325  19.067  0.00  0.00    +0.000 A 
ATOM     13  C   UNL     1      -1.079  10.835  18.117  0.00  0.00    +0.000 A 
ATOM     14  C   UNL     1      -2.027  11.794  18.484  0.00  0.00    +0.000 A 
ATOM     15  C   UNL     1      -2.101  12.237  19.803  0.00  0.00    +0.000 A 
ATOM     16  C   UNL     1      -1.243  11.708  20.764  0.00  0.00    +0.000 A 
ATOM     17  C   UNL     1      -0.295  10.753  20.400  0.00  0.00    +0.000 A 
ENDBRANCH  11  12
ENDBRANCH  10  11
ENDBRANCH   7  10
ENDBRANCH   1   4
BRANCH   1  18
ATOM     18  N   UNL     1       4.352   3.417  17.298  0.00  0.00    +0.000 NA
ATOM     19  H   UNL     1       3.784   2.600  17.062  0.00  0.00    +0.000 HD
BRANCH  18  20
ATOM     20  C   UNL     1       5.647   3.531  16.597  0.00  0.00    +0.000 C 
BRANCH  20  21
ATOM     21  C   UNL     1       5.836   4.858  15.819  0.00  0.00    +0.000 C 
BRANCH  21  22
ATOM     22  N   UNL     1       6.074   4.836  14.336  0.00  0.00    +0.000 NA
ATOM     23  C   UNL     1       7.478   5.030  13.941  0.00  0.00    +0.000 C 
ATOM     24  C   UNL     1       7.638   5.070  12.419  0.00  0.00    +0.000 C 
ATOM     25  C   UNL     1       7.096   3.793  11.790  0.00  0.00    +0.000 C 
ATOM     26  C   UNL     1       5.654   3.572  12.226  0.00  0.00    +0.000 C 
ATOM     27  C   UNL     1       5.531   3.596  13.751  0.00  0.00    +0.000 C 
ENDBRANCH  21  22
BRANCH  21  29
ATOM     28  O   UNL     1       7.804   5.383  17.185  0.00  0.00    +0.000 OA
ATOM     29  C   UNL     1       6.835   5.778  16.537  0.00  0.00    +0.000 C 
ATOM     30  N   UNL     1       6.496   7.112  16.491  0.00  0.00    +0.000 N 
ATOM     31  H   UNL     1       5.988   7.458  15.679  0.00  0.00    +0.000 HD
BRANCH  30  32
ATOM     32  O   UNL     1       7.408   7.994  17.117  0.00  0.00    +0.000 OA
ATOM     33  H   UNL     1       8.238   7.830  16.618  0.00  0.00    +0.000 HD
ENDBRANCH  30  32
ENDBRANCH  21  29
ENDBRANCH  20  21
ENDBRANCH  18  20
ENDBRANCH   1  18
TORSDOF 10
ENDMDL
MODEL 9
REMARK VINA RESULT:      -7.8      1.220      2.092
REMARK  Name = 
REMARK  10 active torsions:
REMARK  status: ('A' for Active; 'I' for Inactive)
REMARK    1  A    between atoms: C_2  and  C_5
REMARK    2  A    between atoms: N_3  and  O_4
REMARK    3  A    between atoms: C_5  and  C_6
REMARK    4  A    between atoms: C_5  and  N_25
REMARK    5  A    between atoms: C_6  and  N_7
REMARK    6  A    between atoms: N_7  and  S_8
REMARK    7  A    between atoms: S_8  and  C_11
REMARK    8  A    between atoms: C_14  and  O_15
REMARK    9  A    between atoms: O_15  and  C_16
REMARK   10  A    between atoms: C_16  and  C_17
REMARK                            x       y       z     vdW  Elec       q    Type
REMARK                         _______ _______ _______ _____ _____    ______ ____
ROOT
ATOM      1  S   UNL     1       4.184   2.668  18.739  0.00  0.00    +0.000 S 
ATOM      2  O   UNL     1       3.284   1.950  17.863  0.00  0.00    +0.000 OA
ATOM      3  O   UNL     1       4.916   1.991  19.790  0.00  0.00    +0.000 OA
ENDROOT
BRANCH   1   4
ATOM      4  C   UNL     1       3.275   3.997  19.483  0.00  0.00    +0.000 A 
ATOM      5  C   UNL     1       3.787   5.297  19.424  0.00  0.00    +0.000 A 
ATOM      6  C   UNL     1       3.034   6.359  19.929  0.00  0.00    +0.000 A 
ATOM      7  C   UNL     1       1.765   6.127  20.470  0.00  0.00    +0.000 A 
ATOM      8  C   UNL     1       1.279   4.824  20.564  0.00  0.00    +0.000 A 
ATOM      9  C   UNL     1       2.021   3.760  20.048  0.00  0.00    +0.000 A 
BRANCH   7  10
ATOM     10  O   UNL     1       0.922   7.108  20.918  0.00  0.00    +0.000 OA
BRANCH  10  11
ATOM     11  C   UNL     1       1.406   8.443  20.728  0.00  0.00    +0.000 C 
BRANCH  11  12
ATOM     12  C   UNL     1       0.463   9.450  21.340  0.00  0.00    +0.000 A 
ATOM     13  C   UNL     1      -0.047  10.528  20.606  0.00  0.00    +0.000 A 
ATOM     14  C   UNL     1      -0.900  11.455  21.212  0.00  0.00    +0.000 A 
ATOM     15  C   UNL     1      -1.264  11.301  22.549  0.00  0.00    +0.000 A 
ATOM     16  C   UNL     1      -0.794  10.212  23.278  0.00  0.00    +0.000 A 
ATOM     17  C   UNL     1       0.058   9.288  22.676  0.00  0.00    +0.000 A 
ENDBRANCH  11  12
ENDBRANCH  10  11
ENDBRANCH   7  10
ENDBRANCH   1   4
BRANCH   1  18
ATOM     18  N   UNL     1       5.276   3.437  17.722  0.00  0.00    +0.000 NA
ATOM     19  H   UNL     1       6.002   3.891  18.281  0.00  0.00    +0.000 HD
BRANCH  18  20
ATOM     20  C   UNL     1       4.727   4.231  16.603  0.00  0.00    +0.000 C 
BRANCH  20  21
ATOM     21  C   UNL     1       5.795   4.989  15.775  0.00  0.00    +0.000 C 
BRANCH  21  22
ATOM     22  N   UNL     1       6.361   4.373  14.528  0.00  0.00    +0.000 NA
ATOM     23  C   UNL     1       5.350   3.899  13.569  0.00  0.00    +0.000 C 
ATOM     24  C   UNL     1       5.994   3.218  12.358  0.00  0.00    +0.000 C 
ATOM     25  C   UNL     1       6.960   4.168  11.662  0.00  0.00    +0.000 C 
ATOM     26  C   UNL     1       7.986   4.687  12.660  0.00  0.00    +0.000 C 
ATOM     27  C   UNL     1       7.300   5.307  13.880  0.00  0.00    +0.000 C 
ENDBRANCH  21  22
BRANCH  21  29
ATOM     28  O   UNL     1       7.750   4.850  17.249  0.00  0.00    +0.000 OA
ATOM     29  C   UNL     1       6.903   5.541  16.685  0.00  0.00    +0.000 C 
ATOM     30  N   UNL     1       6.811   6.897  16.914  0.00  0.00    +0.000 N 
ATOM     31  H   UNL     1       6.416   7.489  16.186  0.00  0.00    +0.000 HD
BRANCH  30  32
ATOM     32  O   UNL     1       7.831   7.448  17.725  0.00  0.00    +0.000 OA
ATOM     33  H   UNL     1       8.475   6.710  17.785  0.00  0.00    +0.000 HD
ENDBRANCH  30  32
ENDBRANCH  21  29
ENDBRANCH  20  21
ENDBRANCH  18  20
ENDBRANCH   1  18
TORSDOF 10
ENDMDL
