MODEL 1
REMARK VINA RESULT:      -7.1      0.000      0.000
REMARK  Name = 
REMARK  11 active torsions:
REMARK  status: ('A' for Active; 'I' for Inactive)
REMARK    1  A    between atoms: C_1  and  C_2
REMARK    2  A    between atoms: C_2  and  N_3
REMARK    3  A    between atoms: C_4  and  S_5
REMARK    4  A    between atoms: S_5  and  C_6
REMARK    5  A    between atoms: C_6  and  C_7
REMARK    6  A    between atoms: N_9  and  C_10
REMARK    7  A    between atoms: C_10  and  C_11
REMARK    8  A    between atoms: C_18  and  C_19
REMARK    9  A    between atoms: C_23  and  N_24
REMARK   10  A    between atoms: N_24  and  C_25
REMARK   11  A    between atoms: N_24  and  C_26
REMARK                            x       y       z     vdW  Elec       q    Type
REMARK                         _______ _______ _______ _____ _____    ______ ____
ROOT
ATOM      1  N   UNL     1       1.704   8.159  19.877  0.00  0.00    +0.000 N 
ATOM      2  C   UNL     1       2.368   7.046  19.408  0.00  0.00    +0.000 A 
ATOM      3  N   UNL     1       2.579   7.154  18.121  0.00  0.00    +0.000 NA
ATOM      4  N   UNL     1       2.004   8.323  17.704  0.00  0.00    +0.000 NA
ATOM      5  C   UNL     1       1.503   8.963  18.750  0.00  0.00    +0.000 A 
ENDROOT
BRANCH   5   6
ATOM      6  C   UNL     1       0.810  10.266  18.644  0.00  0.00    +0.000 A 
ATOM      7  C   UNL     1       1.575  11.436  18.734  0.00  0.00    +0.000 A 
ATOM      8  C   UNL     1       0.973  12.689  18.668  0.00  0.00    +0.000 A 
ATOM      9  C   UNL     1      -0.409  12.793  18.499  0.00  0.00    +0.000 A 
ATOM     10  C   UNL     1      -1.234  11.662  18.419  0.00  0.00    +0.000 A 
ATOM     11  C   UNL     1      -0.587  10.409  18.525  0.00  0.00    +0.000 A 
BRANCH  10  12
ATOM     12  N   UNL     1      -2.603  11.778  18.215  0.00  0.00    +0.000 N 
ATOM     13  C   UNL     1      -3.513  12.174  19.289  0.00  0.00    +0.000 C 
ATOM     14  C   UNL     1      -3.258  11.292  17.006  0.00  0.00    +0.000 C 
ENDBRANCH  10  12
ENDBRANCH   5   6
BRANCH   1  16
ATOM     15  C   UNL     1      -0.225   8.366  21.587  0.00  0.00    +0.000 C 
ATOM     16  C   UNL     1       1.243   8.500  21.208  0.00  0.00    +0.000 C 
ENDBRANCH   1  16
BRANCH   2  17
ATOM     17  S   UNL     1       2.782   5.635  20.318  0.00  0.00    +0.000 S 
BRANCH  17  18
ATOM     18  C   UNL     1       3.013   4.388  19.031  0.00  0.00    +0.000 C 
BRANCH  18  19
ATOM     19  C   UNL     1       4.486   4.190  18.722  0.00  0.00    +0.000 C 
ATOM     20  O   UNL     1       5.202   3.428  19.366  0.00  0.00    +0.000 OA
ATOM     21  N   UNL     1       4.944   4.952  17.675  0.00  0.00    +0.000 N 
ATOM     22  H   UNL     1       4.295   5.549  17.177  0.00  0.00    +0.000 HD
BRANCH  21  23
ATOM     23  C   UNL     1       6.310   4.885  17.204  0.00  0.00    +0.000 C 
BRANCH  23  24
ATOM     24  C   UNL     1       7.064   6.081  17.659  0.00  0.00    +0.000 A 
ATOM     25  C   UNL     1       7.895   6.357  18.726  0.00  0.00    +0.000 A 
ATOM     26  C   UNL     1       8.325   7.694  18.578  0.00  0.00    +0.000 A 
ATOM     27  C   UNL     1       7.710   8.166  17.444  0.00  0.00    +0.000 A 
ATOM     28  O   UNL     1       6.945   7.196  16.878  0.00  0.00    +0.000 OA
ENDBRANCH  23  24
ENDBRANCH  21  23
ENDBRANCH  18  19
ENDBRANCH  17  18
ENDBRANCH   2  17
TORSDOF 8
ENDMDL
MODEL 2
REMARK VINA RESULT:      -7.1      2.415      3.409
REMARK  Name = 
REMARK  11 active torsions:
REMARK  status: ('A' for Active; 'I' for Inactive)
REMARK    1  A    between atoms: C_1  and  C_2
REMARK    2  A    between atoms: C_2  and  N_3
REMARK    3  A    between atoms: C_4  and  S_5
REMARK    4  A    between atoms: S_5  and  C_6
REMARK    5  A    between atoms: C_6  and  C_7
REMARK    6  A    between atoms: N_9  and  C_10
REMARK    7  A    between atoms: C_10  and  C_11
REMARK    8  A    between atoms: C_18  and  C_19
REMARK    9  A    between atoms: C_23  and  N_24
REMARK   10  A    between atoms: N_24  and  C_25
REMARK   11  A    between atoms: N_24  and  C_26
REMARK                            x       y       z     vdW  Elec       q    Type
REMARK                         _______ _______ _______ _____ _____    ______ ____
ROOT
ATOM      1  N   UNL     1       2.564   4.888  19.923  0.00  0.00    +0.000 N 
ATOM      2  C   UNL     1       3.713   4.129  19.885  0.00  0.00    +0.000 A 
ATOM      3  N   UNL     1       4.746   4.885  19.606  0.00  0.00    +0.000 NA
ATOM      4  N   UNL     1       4.284   6.156  19.398  0.00  0.00    +0.000 NA
ATOM      5  C   UNL     1       2.978   6.190  19.620  0.00  0.00    +0.000 A 
ENDROOT
BRANCH   5   6
ATOM      6  C   UNL     1       2.166   7.420  19.483  0.00  0.00    +0.000 A 
ATOM      7  C   UNL     1       2.062   8.010  18.218  0.00  0.00    +0.000 A 
ATOM      8  C   UNL     1       1.334   9.183  18.036  0.00  0.00    +0.000 A 
ATOM      9  C   UNL     1       0.686   9.779  19.120  0.00  0.00    +0.000 A 
ATOM     10  C   UNL     1       0.765   9.248  20.415  0.00  0.00    +0.000 A 
ATOM     11  C   UNL     1       1.542   8.076  20.563  0.00  0.00    +0.000 A 
BRANCH  10  12
ATOM     12  N   UNL     1       0.087   9.830  21.478  0.00  0.00    +0.000 N 
ATOM     13  C   UNL     1      -0.673  11.070  21.322  0.00  0.00    +0.000 C 
ATOM     14  C   UNL     1       0.271   9.395  22.857  0.00  0.00    +0.000 C 
ENDBRANCH  10  12
ENDBRANCH   5   6
BRANCH   1  16
ATOM     15  C   UNL     1       0.598   3.242  19.584  0.00  0.00    +0.000 C 
ATOM     16  C   UNL     1       1.187   4.515  20.177  0.00  0.00    +0.000 C 
ENDBRANCH   1  16
BRANCH   2  17
ATOM     17  S   UNL     1       3.820   2.412  20.056  0.00  0.00    +0.000 S 
BRANCH  17  18
ATOM     18  C   UNL     1       3.697   1.835  18.348  0.00  0.00    +0.000 C 
BRANCH  18  19
ATOM     19  C   UNL     1       3.864   2.984  17.371  0.00  0.00    +0.000 C 
ATOM     20  O   UNL     1       2.916   3.649  16.962  0.00  0.00    +0.000 OA
ATOM     21  N   UNL     1       5.162   3.196  16.974  0.00  0.00    +0.000 N 
ATOM     22  H   UNL     1       5.898   2.618  17.363  0.00  0.00    +0.000 HD
BRANCH  21  23
ATOM     23  C   UNL     1       5.535   4.262  16.071  0.00  0.00    +0.000 C 
BRANCH  23  24
ATOM     24  C   UNL     1       6.363   5.267  16.786  0.00  0.00    +0.000 A 
ATOM     25  C   UNL     1       7.386   5.203  17.710  0.00  0.00    +0.000 A 
ATOM     26  C   UNL     1       7.779   6.532  17.983  0.00  0.00    +0.000 A 
ATOM     27  C   UNL     1       6.954   7.332  17.230  0.00  0.00    +0.000 A 
ATOM     28  O   UNL     1       6.093   6.576  16.499  0.00  0.00    +0.000 OA
ENDBRANCH  23  24
ENDBRANCH  21  23
ENDBRANCH  18  19
ENDBRANCH  17  18
ENDBRANCH   2  17
TORSDOF 8
ENDMDL
MODEL 3
REMARK VINA RESULT:      -7.0      1.865      2.954
REMARK  Name = 
REMARK  11 active torsions:
REMARK  status: ('A' for Active; 'I' for Inactive)
REMARK    1  A    between atoms: C_1  and  C_2
REMARK    2  A    between atoms: C_2  and  N_3
REMARK    3  A    between atoms: C_4  and  S_5
REMARK    4  A    between atoms: S_5  and  C_6
REMARK    5  A    between atoms: C_6  and  C_7
REMARK    6  A    between atoms: N_9  and  C_10
REMARK    7  A    between atoms: C_10  and  C_11
REMARK    8  A    between atoms: C_18  and  C_19
REMARK    9  A    between atoms: C_23  and  N_24
REMARK   10  A    between atoms: N_24  and  C_25
REMARK   11  A    between atoms: N_24  and  C_26
REMARK                            x       y       z     vdW  Elec       q    Type
REMARK                         _______ _______ _______ _____ _____    ______ ____
ROOT
ATOM      1  N   UNL     1       1.722   8.087  19.645  0.00  0.00    +0.000 N 
ATOM      2  C   UNL     1       2.588   7.143  19.137  0.00  0.00    +0.000 A 
ATOM      3  N   UNL     1       2.954   7.470  17.923  0.00  0.00    +0.000 NA
ATOM      4  N   UNL     1       2.287   8.616  17.585  0.00  0.00    +0.000 NA
ATOM      5  C   UNL     1       1.567   9.026  18.620  0.00  0.00    +0.000 A 
ENDROOT
BRANCH   5   6
ATOM      6  C   UNL     1       0.724  10.242  18.587  0.00  0.00    +0.000 A 
ATOM      7  C   UNL     1      -0.608  10.116  18.175  0.00  0.00    +0.000 A 
ATOM      8  C   UNL     1      -1.440  11.230  18.099  0.00  0.00    +0.000 A 
ATOM      9  C   UNL     1      -0.953  12.492  18.448  0.00  0.00    +0.000 A 
ATOM     10  C   UNL     1       0.376  12.688  18.852  0.00  0.00    +0.000 A 
ATOM     11  C   UNL     1       1.196  11.537  18.882  0.00  0.00    +0.000 A 
BRANCH  10  12
ATOM     12  N   UNL     1       0.838  13.941  19.230  0.00  0.00    +0.000 N 
ATOM     13  C   UNL     1       1.929  14.104  20.190  0.00  0.00    +0.000 C 
ATOM     14  C   UNL     1       0.130  15.171  18.895  0.00  0.00    +0.000 C 
ENDBRANCH  10  12
ENDBRANCH   5   6
BRANCH   1  16
ATOM     15  C   UNL     1       1.448   9.200  21.963  0.00  0.00    +0.000 C 
ATOM     16  C   UNL     1       1.045   8.164  20.923  0.00  0.00    +0.000 C 
ENDBRANCH   1  16
BRANCH   2  17
ATOM     17  S   UNL     1       3.064   5.665  19.900  0.00  0.00    +0.000 S 
BRANCH  17  18
ATOM     18  C   UNL     1       3.420   4.590  18.492  0.00  0.00    +0.000 C 
BRANCH  18  19
ATOM     19  C   UNL     1       4.900   4.602  18.156  0.00  0.00    +0.000 C 
ATOM     20  O   UNL     1       5.738   4.008  18.829  0.00  0.00    +0.000 OA
ATOM     21  N   UNL     1       5.215   5.352  17.049  0.00  0.00    +0.000 N 
ATOM     22  H   UNL     1       4.472   5.805  16.531  0.00  0.00    +0.000 HD
BRANCH  21  23
ATOM     23  C   UNL     1       6.566   5.467  16.546  0.00  0.00    +0.000 C 
BRANCH  23  24
ATOM     24  C   UNL     1       6.643   4.925  15.165  0.00  0.00    +0.000 A 
ATOM     25  C   UNL     1       5.940   3.973  14.454  0.00  0.00    +0.000 A 
ATOM     26  C   UNL     1       6.491   3.939  13.155  0.00  0.00    +0.000 A 
ATOM     27  C   UNL     1       7.516   4.854  13.155  0.00  0.00    +0.000 A 
ATOM     28  O   UNL     1       7.616   5.459  14.367  0.00  0.00    +0.000 OA
ENDBRANCH  23  24
ENDBRANCH  21  23
ENDBRANCH  18  19
ENDBRANCH  17  18
ENDBRANCH   2  17
TORSDOF 8
ENDMDL
MODEL 4
REMARK VINA RESULT:      -7.0      3.707      8.584
REMARK  Name = 
REMARK  11 active torsions:
REMARK  status: ('A' for Active; 'I' for Inactive)
REMARK    1  A    between atoms: C_1  and  C_2
REMARK    2  A    between atoms: C_2  and  N_3
REMARK    3  A    between atoms: C_4  and  S_5
REMARK    4  A    between atoms: S_5  and  C_6
REMARK    5  A    between atoms: C_6  and  C_7
REMARK    6  A    between atoms: N_9  and  C_10
REMARK    7  A    between atoms: C_10  and  C_11
REMARK    8  A    between atoms: C_18  and  C_19
REMARK    9  A    between atoms: C_23  and  N_24
REMARK   10  A    between atoms: N_24  and  C_25
REMARK   11  A    between atoms: N_24  and  C_26
REMARK                            x       y       z     vdW  Elec       q    Type
REMARK                         _______ _______ _______ _____ _____    ______ ____
ROOT
ATOM      1  N   UNL     1       5.985   5.126  16.781  0.00  0.00    +0.000 N 
ATOM      2  C   UNL     1       6.451   4.938  18.065  0.00  0.00    +0.000 A 
ATOM      3  N   UNL     1       7.645   4.401  18.040  0.00  0.00    +0.000 NA
ATOM      4  N   UNL     1       7.967   4.172  16.730  0.00  0.00    +0.000 NA
ATOM      5  C   UNL     1       6.999   4.634  15.952  0.00  0.00    +0.000 A 
ENDROOT
BRANCH   5   6
ATOM      6  C   UNL     1       7.036   4.545  14.476  0.00  0.00    +0.000 A 
ATOM      7  C   UNL     1       7.895   5.404  13.779  0.00  0.00    +0.000 A 
ATOM      8  C   UNL     1       7.951   5.382  12.388  0.00  0.00    +0.000 A 
ATOM      9  C   UNL     1       7.153   4.489  11.669  0.00  0.00    +0.000 A 
ATOM     10  C   UNL     1       6.260   3.615  12.306  0.00  0.00    +0.000 A 
ATOM     11  C   UNL     1       6.209   3.692  13.716  0.00  0.00    +0.000 A 
BRANCH  10  12
ATOM     12  N   UNL     1       5.500   2.706  11.582  0.00  0.00    +0.000 N 
ATOM     13  C   UNL     1       4.108   2.977  11.224  0.00  0.00    +0.000 C 
ATOM     14  C   UNL     1       5.940   1.338  11.335  0.00  0.00    +0.000 C 
ENDBRANCH  10  12
ENDBRANCH   5   6
BRANCH   1  16
ATOM     15  C   UNL     1       4.525   7.172  16.175  0.00  0.00    +0.000 C 
ATOM     16  C   UNL     1       4.733   5.670  16.296  0.00  0.00    +0.000 C 
ENDBRANCH   1  16
BRANCH   2  17
ATOM     17  S   UNL     1       5.583   5.240  19.530  0.00  0.00    +0.000 S 
BRANCH  17  18
ATOM     18  C   UNL     1       4.175   4.115  19.395  0.00  0.00    +0.000 C 
BRANCH  18  19
ATOM     19  C   UNL     1       2.886   4.801  19.809  0.00  0.00    +0.000 C 
ATOM     20  O   UNL     1       1.814   4.208  19.885  0.00  0.00    +0.000 OA
ATOM     21  N   UNL     1       3.027   6.143  20.069  0.00  0.00    +0.000 N 
ATOM     22  H   UNL     1       3.945   6.566  20.001  0.00  0.00    +0.000 HD
BRANCH  21  23
ATOM     23  C   UNL     1       1.925   6.970  20.507  0.00  0.00    +0.000 C 
BRANCH  23  24
ATOM     24  C   UNL     1       1.738   8.107  19.570  0.00  0.00    +0.000 A 
ATOM     25  C   UNL     1       2.075   8.346  18.253  0.00  0.00    +0.000 A 
ATOM     26  C   UNL     1       1.585   9.631  17.929  0.00  0.00    +0.000 A 
ATOM     27  C   UNL     1       1.003  10.113  19.076  0.00  0.00    +0.000 A 
ATOM     28  O   UNL     1       1.087   9.198  20.076  0.00  0.00    +0.000 OA
ENDBRANCH  23  24
ENDBRANCH  21  23
ENDBRANCH  18  19
ENDBRANCH  17  18
ENDBRANCH   2  17
TORSDOF 8
ENDMDL
MODEL 5
REMARK VINA RESULT:      -6.8      1.572      2.510
REMARK  Name = 
REMARK  11 active torsions:
REMARK  status: ('A' for Active; 'I' for Inactive)
REMARK    1  A    between atoms: C_1  and  C_2
REMARK    2  A    between atoms: C_2  and  N_3
REMARK    3  A    between atoms: C_4  and  S_5
REMARK    4  A    between atoms: S_5  and  C_6
REMARK    5  A    between atoms: C_6  and  C_7
REMARK    6  A    between atoms: N_9  and  C_10
REMARK    7  A    between atoms: C_10  and  C_11
REMARK    8  A    between atoms: C_18  and  C_19
REMARK    9  A    between atoms: C_23  and  N_24
REMARK   10  A    between atoms: N_24  and  C_25
REMARK   11  A    between atoms: N_24  and  C_26
REMARK                            x       y       z     vdW  Elec       q    Type
REMARK                         _______ _______ _______ _____ _____    ______ ____
ROOT
ATOM      1  N   UNL     1       1.587   8.618  19.688  0.00  0.00    +0.000 N 
ATOM      2  C   UNL     1       2.180   7.565  19.025  0.00  0.00    +0.000 A 
ATOM      3  N   UNL     1       2.398   7.883  17.774  0.00  0.00    +0.000 NA
ATOM      4  N   UNL     1       1.897   9.140  17.574  0.00  0.00    +0.000 NA
ATOM      5  C   UNL     1       1.437   9.618  18.721  0.00  0.00    +0.000 A 
ENDROOT
BRANCH   5   6
ATOM      6  C   UNL     1       0.827  10.959  18.852  0.00  0.00    +0.000 A 
ATOM      7  C   UNL     1      -0.530  11.106  18.540  0.00  0.00    +0.000 A 
ATOM      8  C   UNL     1      -1.150  12.351  18.620  0.00  0.00    +0.000 A 
ATOM      9  C   UNL     1      -0.421  13.470  19.026  0.00  0.00    +0.000 A 
ATOM     10  C   UNL     1       0.945  13.394  19.337  0.00  0.00    +0.000 A 
ATOM     11  C   UNL     1       1.543  12.119  19.210  0.00  0.00    +0.000 A 
BRANCH  10  12
ATOM     12  N   UNL     1       1.650  14.507  19.774  0.00  0.00    +0.000 N 
ATOM     13  C   UNL     1       2.055  15.573  18.859  0.00  0.00    +0.000 C 
ATOM     14  C   UNL     1       2.240  14.586  21.105  0.00  0.00    +0.000 C 
ENDBRANCH  10  12
ENDBRANCH   5   6
BRANCH   1  16
ATOM     15  C   UNL     1      -0.307   8.518  21.446  0.00  0.00    +0.000 C 
ATOM     16  C   UNL     1       1.148   8.748  21.062  0.00  0.00    +0.000 C 
ENDBRANCH   1  16
BRANCH   2  17
ATOM     17  S   UNL     1       2.504   5.993  19.670  0.00  0.00    +0.000 S 
BRANCH  17  18
ATOM     18  C   UNL     1       2.262   4.920  18.236  0.00  0.00    +0.000 C 
BRANCH  18  19
ATOM     19  C   UNL     1       3.592   4.504  17.635  0.00  0.00    +0.000 C 
ATOM     20  O   UNL     1       3.900   3.329  17.458  0.00  0.00    +0.000 OA
ATOM     21  N   UNL     1       4.420   5.556  17.329  0.00  0.00    +0.000 N 
ATOM     22  H   UNL     1       4.095   6.503  17.488  0.00  0.00    +0.000 HD
BRANCH  21  23
ATOM     23  C   UNL     1       5.718   5.372  16.720  0.00  0.00    +0.000 C 
BRANCH  23  24
ATOM     24  C   UNL     1       6.718   6.252  17.378  0.00  0.00    +0.000 A 
ATOM     25  C   UNL     1       7.589   6.108  18.439  0.00  0.00    +0.000 A 
ATOM     26  C   UNL     1       8.305   7.321  18.552  0.00  0.00    +0.000 A 
ATOM     27  C   UNL     1       7.810   8.144  17.570  0.00  0.00    +0.000 A 
ATOM     28  O   UNL     1       6.850   7.506  16.851  0.00  0.00    +0.000 OA
ENDBRANCH  23  24
ENDBRANCH  21  23
ENDBRANCH  18  19
ENDBRANCH  17  18
ENDBRANCH   2  17
TORSDOF 8
ENDMDL
MODEL 6
REMARK VINA RESULT:      -6.8      2.923      4.008
REMARK  Name = 
REMARK  11 active torsions:
REMARK  status: ('A' for Active; 'I' for Inactive)
REMARK    1  A    between atoms: C_1  and  C_2
REMARK    2  A    between atoms: C_2  and  N_3
REMARK    3  A    between atoms: C_4  and  S_5
REMARK    4  A    between atoms: S_5  and  C_6
REMARK    5  A    between atoms: C_6  and  C_7
REMARK    6  A    between atoms: N_9  and  C_10
REMARK    7  A    between atoms: C_10  and  C_11
REMARK    8  A    between atoms: C_18  and  C_19
REMARK    9  A    between atoms: C_23  and  N_24
REMARK   10  A    between atoms: N_24  and  C_25
REMARK   11  A    between atoms: N_24  and  C_26
REMARK                            x       y       z     vdW  Elec       q    Type
REMARK                         _______ _______ _______ _____ _____    ______ ____
ROOT
ATOM      1  N   UNL     1       2.832   4.669  20.024  0.00  0.00    +0.000 N 
ATOM      2  C   UNL     1       3.939   3.848  20.009  0.00  0.00    +0.000 A 
ATOM      3  N   UNL     1       4.982   4.502  19.564  0.00  0.00    +0.000 NA
ATOM      4  N   UNL     1       4.566   5.759  19.221  0.00  0.00    +0.000 NA
ATOM      5  C   UNL     1       3.283   5.895  19.523  0.00  0.00    +0.000 A 
ENDROOT
BRANCH   5   6
ATOM      6  C   UNL     1       2.522   7.140  19.280  0.00  0.00    +0.000 A 
ATOM      7  C   UNL     1       2.567   7.707  17.999  0.00  0.00    +0.000 A 
ATOM      8  C   UNL     1       1.892   8.892  17.720  0.00  0.00    +0.000 A 
ATOM      9  C   UNL     1       1.149   9.526  18.719  0.00  0.00    +0.000 A 
ATOM     10  C   UNL     1       1.077   9.020  20.025  0.00  0.00    +0.000 A 
ATOM     11  C   UNL     1       1.804   7.834  20.275  0.00  0.00    +0.000 A 
BRANCH  10  12
ATOM     12  N   UNL     1       0.306   9.640  20.999  0.00  0.00    +0.000 N 
ATOM     13  C   UNL     1       0.199  11.096  21.088  0.00  0.00    +0.000 C 
ATOM     14  C   UNL     1      -0.252   8.915  22.134  0.00  0.00    +0.000 C 
ENDBRANCH  10  12
ENDBRANCH   5   6
BRANCH   1  16
ATOM     15  C   UNL     1       1.052   3.057  20.983  0.00  0.00    +0.000 C 
ATOM     16  C   UNL     1       1.462   4.409  20.417  0.00  0.00    +0.000 C 
ENDBRANCH   1  16
BRANCH   2  17
ATOM     17  S   UNL     1       3.977   2.163  20.400  0.00  0.00    +0.000 S 
BRANCH  17  18
ATOM     18  C   UNL     1       3.685   1.379  18.799  0.00  0.00    +0.000 C 
BRANCH  18  19
ATOM     19  C   UNL     1       3.235   2.396  17.767  0.00  0.00    +0.000 C 
ATOM     20  O   UNL     1       2.053   2.587  17.495  0.00  0.00    +0.000 OA
ATOM     21  N   UNL     1       4.267   3.065  17.155  0.00  0.00    +0.000 N 
ATOM     22  H   UNL     1       5.220   2.869  17.438  0.00  0.00    +0.000 HD
BRANCH  21  23
ATOM     23  C   UNL     1       4.048   4.096  16.165  0.00  0.00    +0.000 C 
BRANCH  23  24
ATOM     24  C   UNL     1       5.306   4.364  15.422  0.00  0.00    +0.000 A 
ATOM     25  C   UNL     1       5.693   4.266  14.101  0.00  0.00    +0.000 A 
ATOM     26  C   UNL     1       7.035   4.703  14.032  0.00  0.00    +0.000 A 
ATOM     27  C   UNL     1       7.397   5.016  15.319  0.00  0.00    +0.000 A 
ATOM     28  O   UNL     1       6.356   4.818  16.170  0.00  0.00    +0.000 OA
ENDBRANCH  23  24
ENDBRANCH  21  23
ENDBRANCH  18  19
ENDBRANCH  17  18
ENDBRANCH   2  17
TORSDOF 8
ENDMDL
MODEL 7
REMARK VINA RESULT:      -6.7      1.906      2.135
REMARK  Name = 
REMARK  11 active torsions:
REMARK  status: ('A' for Active; 'I' for Inactive)
REMARK    1  A    between atoms: C_1  and  C_2
REMARK    2  A    between atoms: C_2  and  N_3
REMARK    3  A    between atoms: C_4  and  S_5
REMARK    4  A    between atoms: S_5  and  C_6
REMARK    5  A    between atoms: C_6  and  C_7
REMARK    6  A    between atoms: N_9  and  C_10
REMARK    7  A    between atoms: C_10  and  C_11
REMARK    8  A    between atoms: C_18  and  C_19
REMARK    9  A    between atoms: C_23  and  N_24
REMARK   10  A    between atoms: N_24  and  C_25
REMARK   11  A    between atoms: N_24  and  C_26
REMARK                            x       y       z     vdW  Elec       q    Type
REMARK                         _______ _______ _______ _____ _____    ______ ____
ROOT
ATOM      1  N   UNL     1       1.497   8.105  19.923  0.00  0.00    +0.000 N 
ATOM      2  C   UNL     1       2.337   7.085  19.533  0.00  0.00    +0.000 A 
ATOM      3  N   UNL     1       2.775   7.298  18.318  0.00  0.00    +0.000 NA
ATOM      4  N   UNL     1       2.181   8.443  17.860  0.00  0.00    +0.000 NA
ATOM      5  C   UNL     1       1.436   8.966  18.822  0.00  0.00    +0.000 A 
ENDROOT
BRANCH   5   6
ATOM      6  C   UNL     1       0.657  10.213  18.654  0.00  0.00    +0.000 A 
ATOM      7  C   UNL     1       1.246  11.423  19.042  0.00  0.00    +0.000 A 
ATOM      8  C   UNL     1       0.549  12.623  18.932  0.00  0.00    +0.000 A 
ATOM      9  C   UNL     1      -0.749  12.634  18.418  0.00  0.00    +0.000 A 
ATOM     10  C   UNL     1      -1.402  11.456  18.027  0.00  0.00    +0.000 A 
ATOM     11  C   UNL     1      -0.672  10.255  18.187  0.00  0.00    +0.000 A 
BRANCH  10  12
ATOM     12  N   UNL     1      -2.679  11.483  17.484  0.00  0.00    +0.000 N 
ATOM     13  C   UNL     1      -3.868  11.676  18.314  0.00  0.00    +0.000 C 
ATOM     14  C   UNL     1      -2.953  11.090  16.107  0.00  0.00    +0.000 C 
ENDBRANCH  10  12
ENDBRANCH   5   6
BRANCH   1  16
ATOM     15  C   UNL     1       1.333   9.188  22.266  0.00  0.00    +0.000 C 
ATOM     16  C   UNL     1       0.766   8.314  21.156  0.00  0.00    +0.000 C 
ENDBRANCH   1  16
BRANCH   2  17
ATOM     17  S   UNL     1       2.704   5.652  20.430  0.00  0.00    +0.000 S 
BRANCH  17  18
ATOM     18  C   UNL     1       1.499   4.467  19.791  0.00  0.00    +0.000 C 
BRANCH  18  19
ATOM     19  C   UNL     1       2.158   3.471  18.854  0.00  0.00    +0.000 C 
ATOM     20  O   UNL     1       1.791   2.303  18.765  0.00  0.00    +0.000 OA
ATOM     21  N   UNL     1       3.207   3.991  18.135  0.00  0.00    +0.000 N 
ATOM     22  H   UNL     1       3.446   4.969  18.248  0.00  0.00    +0.000 HD
BRANCH  21  23
ATOM     23  C   UNL     1       3.946   3.213  17.166  0.00  0.00    +0.000 C 
BRANCH  23  24
ATOM     24  C   UNL     1       4.901   4.085  16.436  0.00  0.00    +0.000 A 
ATOM     25  C   UNL     1       5.056   5.449  16.291  0.00  0.00    +0.000 A 
ATOM     26  C   UNL     1       6.191   5.651  15.477  0.00  0.00    +0.000 A 
ATOM     27  C   UNL     1       6.648   4.398  15.148  0.00  0.00    +0.000 A 
ATOM     28  O   UNL     1       5.876   3.442  15.726  0.00  0.00    +0.000 OA
ENDBRANCH  23  24
ENDBRANCH  21  23
ENDBRANCH  18  19
ENDBRANCH  17  18
ENDBRANCH   2  17
TORSDOF 8
ENDMDL
MODEL 8
REMARK VINA RESULT:      -6.7      1.755      2.106
REMARK  Name = 
REMARK  11 active torsions:
REMARK  status: ('A' for Active; 'I' for Inactive)
REMARK    1  A    between atoms: C_1  and  C_2
REMARK    2  A    between atoms: C_2  and  N_3
REMARK    3  A    between atoms: C_4  and  S_5
REMARK    4  A    between atoms: S_5  and  C_6
REMARK    5  A    between atoms: C_6  and  C_7
REMARK    6  A    between atoms: N_9  and  C_10
REMARK    7  A    between atoms: C_10  and  C_11
REMARK    8  A    between atoms: C_18  and  C_19
REMARK    9  A    between atoms: C_23  and  N_24
REMARK   10  A    between atoms: N_24  and  C_25
REMARK   11  A    between atoms: N_24  and  C_26
REMARK                            x       y       z     vdW  Elec       q    Type
REMARK                         _______ _______ _______ _____ _____    ______ ____
ROOT
ATOM      1  N   UNL     1       1.667   8.365  19.779  0.00  0.00    +0.000 N 
ATOM      2  C   UNL     1       2.405   7.320  19.267  0.00  0.00    +0.000 A 
ATOM      3  N   UNL     1       2.591   7.483  17.981  0.00  0.00    +0.000 NA
ATOM      4  N   UNL     1       1.924   8.618  17.608  0.00  0.00    +0.000 NA
ATOM      5  C   UNL     1       1.391   9.187  18.680  0.00  0.00    +0.000 A 
ENDROOT
BRANCH   5   6
ATOM      6  C   UNL     1       0.601  10.437  18.624  0.00  0.00    +0.000 A 
ATOM      7  C   UNL     1       1.282  11.658  18.710  0.00  0.00    +0.000 A 
ATOM      8  C   UNL     1       0.588  12.864  18.690  0.00  0.00    +0.000 A 
ATOM      9  C   UNL     1      -0.804  12.869  18.571  0.00  0.00    +0.000 A 
ATOM     10  C   UNL     1      -1.546  11.681  18.497  0.00  0.00    +0.000 A 
ATOM     11  C   UNL     1      -0.806  10.478  18.555  0.00  0.00    +0.000 A 
BRANCH  10  12
ATOM     12  N   UNL     1      -2.925  11.700  18.342  0.00  0.00    +0.000 N 
ATOM     13  C   UNL     1      -3.565  11.345  17.076  0.00  0.00    +0.000 C 
ATOM     14  C   UNL     1      -3.816  12.294  19.332  0.00  0.00    +0.000 C 
ENDBRANCH  10  12
ENDBRANCH   5   6
BRANCH   1  16
ATOM     15  C   UNL     1      -0.246   8.362  21.519  0.00  0.00    +0.000 C 
ATOM     16  C   UNL     1       1.200   8.629  21.124  0.00  0.00    +0.000 C 
ENDBRANCH   1  16
BRANCH   2  17
ATOM     17  S   UNL     1       2.936   5.916  20.127  0.00  0.00    +0.000 S 
BRANCH  17  18
ATOM     18  C   UNL     1       1.669   4.697  19.713  0.00  0.00    +0.000 C 
BRANCH  18  19
ATOM     19  C   UNL     1       1.967   4.029  18.383  0.00  0.00    +0.000 C 
ATOM     20  O   UNL     1       1.111   3.437  17.732  0.00  0.00    +0.000 OA
ATOM     21  N   UNL     1       3.279   4.132  17.989  0.00  0.00    +0.000 N 
ATOM     22  H   UNL     1       3.930   4.648  18.568  0.00  0.00    +0.000 HD
BRANCH  21  23
ATOM     23  C   UNL     1       3.759   3.589  16.738  0.00  0.00    +0.000 C 
BRANCH  23  24
ATOM     24  C   UNL     1       5.140   4.068  16.472  0.00  0.00    +0.000 A 
ATOM     25  C   UNL     1       6.184   4.507  17.261  0.00  0.00    +0.000 A 
ATOM     26  C   UNL     1       7.261   4.798  16.394  0.00  0.00    +0.000 A 
ATOM     27  C   UNL     1       6.802   4.546  15.124  0.00  0.00    +0.000 A 
ATOM     28  O   UNL     1       5.519   4.101  15.159  0.00  0.00    +0.000 OA
ENDBRANCH  23  24
ENDBRANCH  21  23
ENDBRANCH  18  19
ENDBRANCH  17  18
ENDBRANCH   2  17
TORSDOF 8
ENDMDL
MODEL 9
REMARK VINA RESULT:      -6.6      3.392      8.599
REMARK  Name = 
REMARK  11 active torsions:
REMARK  status: ('A' for Active; 'I' for Inactive)
REMARK    1  A    between atoms: C_1  and  C_2
REMARK    2  A    between atoms: C_2  and  N_3
REMARK    3  A    between atoms: C_4  and  S_5
REMARK    4  A    between atoms: S_5  and  C_6
REMARK    5  A    between atoms: C_6  and  C_7
REMARK    6  A    between atoms: N_9  and  C_10
REMARK    7  A    between atoms: C_10  and  C_11
REMARK    8  A    between atoms: C_18  and  C_19
REMARK    9  A    between atoms: C_23  and  N_24
REMARK   10  A    between atoms: N_24  and  C_25
REMARK   11  A    between atoms: N_24  and  C_26
REMARK                            x       y       z     vdW  Elec       q    Type
REMARK                         _______ _______ _______ _____ _____    ______ ____
ROOT
ATOM      1  N   UNL     1       1.961   6.909  19.871  0.00  0.00    +0.000 N 
ATOM      2  C   UNL     1       1.451   8.185  19.985  0.00  0.00    +0.000 A 
ATOM      3  N   UNL     1       1.668   8.859  18.884  0.00  0.00    +0.000 NA
ATOM      4  N   UNL     1       2.381   8.053  18.039  0.00  0.00    +0.000 NA
ATOM      5  C   UNL     1       2.537   6.861  18.597  0.00  0.00    +0.000 A 
ENDROOT
BRANCH   5   6
ATOM      6  C   UNL     1       3.265   5.751  17.943  0.00  0.00    +0.000 A 
ATOM      7  C   UNL     1       2.555   4.584  17.631  0.00  0.00    +0.000 A 
ATOM      8  C   UNL     1       3.195   3.498  17.039  0.00  0.00    +0.000 A 
ATOM      9  C   UNL     1       4.557   3.566  16.739  0.00  0.00    +0.000 A 
ATOM     10  C   UNL     1       5.327   4.699  17.041  0.00  0.00    +0.000 A 
ATOM     11  C   UNL     1       4.647   5.766  17.672  0.00  0.00    +0.000 A 
BRANCH  10  12
ATOM     12  N   UNL     1       6.673   4.769  16.705  0.00  0.00    +0.000 N 
ATOM     13  C   UNL     1       7.122   4.755  15.313  0.00  0.00    +0.000 C 
ATOM     14  C   UNL     1       7.735   4.619  17.692  0.00  0.00    +0.000 C 
ENDBRANCH  10  12
ENDBRANCH   5   6
BRANCH   1  16
ATOM     15  C   UNL     1       1.098   4.583  20.600  0.00  0.00    +0.000 C 
ATOM     16  C   UNL     1       1.978   5.807  20.810  0.00  0.00    +0.000 C 
ENDBRANCH   1  16
BRANCH   2  17
ATOM     17  S   UNL     1       0.725   8.882  21.391  0.00  0.00    +0.000 S 
BRANCH  17  18
ATOM     18  C   UNL     1       1.356  10.575  21.363  0.00  0.00    +0.000 C 
BRANCH  18  19
ATOM     19  C   UNL     1       0.314  11.537  20.821  0.00  0.00    +0.000 C 
ATOM     20  O   UNL     1       0.408  12.755  20.945  0.00  0.00    +0.000 OA
ATOM     21  N   UNL     1      -0.745  10.920  20.200  0.00  0.00    +0.000 N 
ATOM     22  H   UNL     1      -0.751   9.911  20.120  0.00  0.00    +0.000 HD
BRANCH  21  23
ATOM     23  C   UNL     1      -1.826  11.661  19.590  0.00  0.00    +0.000 C 
BRANCH  23  24
ATOM     24  C   UNL     1      -2.192  11.047  18.287  0.00  0.00    +0.000 A 
ATOM     25  C   UNL     1      -1.615  10.103  17.462  0.00  0.00    +0.000 A 
ATOM     26  C   UNL     1      -2.484   9.930  16.363  0.00  0.00    +0.000 A 
ATOM     27  C   UNL     1      -3.529  10.799  16.567  0.00  0.00    +0.000 A 
ATOM     28  O   UNL     1      -3.363  11.479  17.731  0.00  0.00    +0.000 OA
ENDBRANCH  23  24
ENDBRANCH  21  23
ENDBRANCH  18  19
ENDBRANCH  17  18
ENDBRANCH   2  17
TORSDOF 8
ENDMDL
