MODEL 1
REMARK VINA RESULT:      -8.5      0.000      0.000
REMARK  Name = 
REMARK  2 active torsions:
REMARK  status: ('A' for Active; 'I' for Inactive)
REMARK    1  A    between atoms: N_11  and  C_12
REMARK    2  A    between atoms: N_21  and  C_22
REMARK                            x       y       z     vdW  Elec       q    Type
REMARK                         _______ _______ _______ _____ _____    ______ ____
ROOT
ATOM      1  O   UNL     1       3.228   6.740  17.728  0.00  0.00    +0.000 OA
ATOM      2  C   UNL     1       2.536   7.121  18.667  0.00  0.00    +0.000 A 
ATOM      3  C   UNL     1       2.093   8.536  18.691  0.00  0.00    +0.000 A 
ATOM      4  C   UNL     1       2.335   9.508  17.725  0.00  0.00    +0.000 A 
ATOM      5  C   UNL     1       1.860  10.823  17.930  0.00  0.00    +0.000 A 
ATOM      6  C   UNL     1       1.134  11.180  19.084  0.00  0.00    +0.000 A 
ATOM      7  C   UNL     1       0.880  10.201  20.021  0.00  0.00    +0.000 A 
ATOM      8  C   UNL     1       1.397   8.922  19.800  0.00  0.00    +0.000 A 
ATOM      9  C   UNL     1       1.088   8.099  20.946  0.00  0.00    +0.000 A 
ATOM     10  C   UNL     1       1.436   6.817  20.865  0.00  0.00    +0.000 A 
ATOM     11  N   UNL     1       2.140   6.295  19.764  0.00  0.00    +0.000 N 
ATOM     12  N   UNL     1       0.457   8.935  21.854  0.00  0.00    +0.000 N 
ATOM     13  N   UNL     1       0.221  10.198  21.278  0.00  0.00    +0.000 N 
ATOM     14  H   UNL     1      -0.327   8.508  22.340  0.00  0.00    +0.000 HD
ENDROOT
BRANCH  11  15
ATOM     15  C   UNL     1       2.732   4.936  19.805  0.00  0.00    +0.000 C 
ATOM     16  C   UNL     1       2.736   4.194  18.429  0.00  0.00    +0.000 C 
ATOM     17  N   UNL     1       2.401   2.747  18.557  0.00  0.00    +0.000 NA
ATOM     18  C   UNL     1       3.297   2.118  19.548  0.00  0.00    +0.000 C 
ATOM     19  C   UNL     1       3.168   2.770  20.935  0.00  0.00    +0.000 C 
ATOM     20  C   UNL     1       2.173   3.940  20.860  0.00  0.00    +0.000 C 
ATOM     21  C   UNL     1       0.827   3.357  20.382  0.00  0.00    +0.000 C 
ATOM     22  C   UNL     1       1.008   2.648  19.034  0.00  0.00    +0.000 C 
ENDBRANCH  11  15
BRANCH  13  23
ATOM     23  C   UNL     1      -0.368  11.278  21.965  0.00  0.00    +0.000 A 
ATOM     24  C   UNL     1       0.058  12.601  21.741  0.00  0.00    +0.000 A 
ATOM     25  C   UNL     1      -0.569  13.675  22.383  0.00  0.00    +0.000 A 
ATOM     26  C   UNL     1      -1.610  13.427  23.271  0.00  0.00    +0.000 A 
ATOM     27  F   UNL     1      -2.216  14.457  23.878  0.00  0.00    +0.000 F 
ATOM     28  C   UNL     1      -2.023  12.134  23.540  0.00  0.00    +0.000 A 
ATOM     29  C   UNL     1      -1.403  11.063  22.889  0.00  0.00    +0.000 A 
ENDBRANCH  13  23
TORSDOF 2
ENDMDL
MODEL 2
REMARK VINA RESULT:      -8.4      2.473      3.693
REMARK  Name = 
REMARK  2 active torsions:
REMARK  status: ('A' for Active; 'I' for Inactive)
REMARK    1  A    between atoms: N_11  and  C_12
REMARK    2  A    between atoms: N_21  and  C_22
REMARK                            x       y       z     vdW  Elec       q    Type
REMARK                         _______ _______ _______ _____ _____    ______ ____
ROOT
ATOM      1  O   UNL     1       1.789   5.868  20.526  0.00  0.00    +0.000 OA
ATOM      2  C   UNL     1       1.909   6.909  19.887  0.00  0.00    +0.000 A 
ATOM      3  C   UNL     1       1.415   8.170  20.489  0.00  0.00    +0.000 A 
ATOM      4  C   UNL     1       0.853   8.334  21.753  0.00  0.00    +0.000 A 
ATOM      5  C   UNL     1       0.405   9.613  22.152  0.00  0.00    +0.000 A 
ATOM      6  C   UNL     1       0.521  10.738  21.310  0.00  0.00    +0.000 A 
ATOM      7  C   UNL     1       1.103  10.566  20.072  0.00  0.00    +0.000 A 
ATOM      8  C   UNL     1       1.500   9.280  19.699  0.00  0.00    +0.000 A 
ATOM      9  C   UNL     1       1.988   9.328  18.341  0.00  0.00    +0.000 A 
ATOM     10  C   UNL     1       2.490   8.195  17.852  0.00  0.00    +0.000 A 
ATOM     11  N   UNL     1       2.477   6.991  18.578  0.00  0.00    +0.000 N 
ATOM     12  N   UNL     1       1.799  10.633  17.916  0.00  0.00    +0.000 N 
ATOM     13  N   UNL     1       1.358  11.439  18.982  0.00  0.00    +0.000 N 
ATOM     14  H   UNL     1       2.561  11.004  17.356  0.00  0.00    +0.000 HD
ENDROOT
BRANCH  11  15
ATOM     15  C   UNL     1       2.809   5.699  17.929  0.00  0.00    +0.000 C 
ATOM     16  C   UNL     1       2.105   4.458  18.567  0.00  0.00    +0.000 C 
ATOM     17  N   UNL     1       3.003   3.272  18.655  0.00  0.00    +0.000 NA
ATOM     18  C   UNL     1       3.574   2.984  17.323  0.00  0.00    +0.000 C 
ATOM     19  C   UNL     1       4.388   4.169  16.778  0.00  0.00    +0.000 C 
ATOM     20  C   UNL     1       4.314   5.340  17.771  0.00  0.00    +0.000 C 
ATOM     21  C   UNL     1       4.884   4.832  19.112  0.00  0.00    +0.000 C 
ATOM     22  C   UNL     1       4.097   3.604  19.587  0.00  0.00    +0.000 C 
ENDBRANCH  11  15
BRANCH  13  23
ATOM     23  C   UNL     1       1.037  12.805  18.856  0.00  0.00    +0.000 A 
ATOM     24  C   UNL     1      -0.302  13.239  18.834  0.00  0.00    +0.000 A 
ATOM     25  C   UNL     1      -0.614  14.601  18.767  0.00  0.00    +0.000 A 
ATOM     26  C   UNL     1       0.414  15.535  18.695  0.00  0.00    +0.000 A 
ATOM     27  F   UNL     1       0.115  16.840  18.640  0.00  0.00    +0.000 F 
ATOM     28  C   UNL     1       1.739  15.135  18.674  0.00  0.00    +0.000 A 
ATOM     29  C   UNL     1       2.048  13.774  18.754  0.00  0.00    +0.000 A 
ENDBRANCH  13  23
TORSDOF 2
ENDMDL
MODEL 3
REMARK VINA RESULT:      -8.4      4.120      8.767
REMARK  Name = 
REMARK  2 active torsions:
REMARK  status: ('A' for Active; 'I' for Inactive)
REMARK    1  A    between atoms: N_11  and  C_12
REMARK    2  A    between atoms: N_21  and  C_22
REMARK                            x       y       z     vdW  Elec       q    Type
REMARK                         _______ _______ _______ _____ _____    ______ ____
ROOT
ATOM      1  O   UNL     1      -0.179   8.525  21.649  0.00  0.00    +0.000 OA
ATOM      2  C   UNL     1       0.524   8.492  20.643  0.00  0.00    +0.000 A 
ATOM      3  C   UNL     1       1.365   7.294  20.406  0.00  0.00    +0.000 A 
ATOM      4  C   UNL     1       1.425   6.142  21.186  0.00  0.00    +0.000 A 
ATOM      5  C   UNL     1       2.315   5.106  20.824  0.00  0.00    +0.000 A 
ATOM      6  C   UNL     1       3.139   5.196  19.684  0.00  0.00    +0.000 A 
ATOM      7  C   UNL     1       3.049   6.331  18.907  0.00  0.00    +0.000 A 
ATOM      8  C   UNL     1       2.185   7.350  19.317  0.00  0.00    +0.000 A 
ATOM      9  C   UNL     1       2.330   8.465  18.411  0.00  0.00    +0.000 A 
ATOM     10  C   UNL     1       1.511   9.497  18.607  0.00  0.00    +0.000 A 
ATOM     11  N   UNL     1       0.608   9.548  19.683  0.00  0.00    +0.000 N 
ATOM     12  N   UNL     1       3.334   8.106  17.525  0.00  0.00    +0.000 N 
ATOM     13  N   UNL     1       3.721   6.770  17.735  0.00  0.00    +0.000 N 
ATOM     14  H   UNL     1       3.157   8.378  16.562  0.00  0.00    +0.000 HD
ENDROOT
BRANCH  11  15
ATOM     15  C   UNL     1      -0.110  10.799  20.026  0.00  0.00    +0.000 C 
ATOM     16  C   UNL     1      -0.780  11.512  18.807  0.00  0.00    +0.000 C 
ATOM     17  N   UNL     1      -0.638  12.995  18.862  0.00  0.00    +0.000 NA
ATOM     18  C   UNL     1      -1.139  13.492  20.161  0.00  0.00    +0.000 C 
ATOM     19  C   UNL     1      -0.365  12.887  21.344  0.00  0.00    +0.000 C 
ATOM     20  C   UNL     1       0.675  11.884  20.817  0.00  0.00    +0.000 C 
ATOM     21  C   UNL     1       1.611  12.662  19.868  0.00  0.00    +0.000 C 
ATOM     22  C   UNL     1       0.796  13.315  18.743  0.00  0.00    +0.000 C 
ENDBRANCH  11  15
BRANCH  13  23
ATOM     23  C   UNL     1       4.750   6.126  17.019  0.00  0.00    +0.000 A 
ATOM     24  C   UNL     1       4.486   4.991  16.230  0.00  0.00    +0.000 A 
ATOM     25  C   UNL     1       5.500   4.390  15.475  0.00  0.00    +0.000 A 
ATOM     26  C   UNL     1       6.789   4.909  15.527  0.00  0.00    +0.000 A 
ATOM     27  F   UNL     1       7.757   4.339  14.797  0.00  0.00    +0.000 F 
ATOM     28  C   UNL     1       7.086   5.999  16.326  0.00  0.00    +0.000 A 
ATOM     29  C   UNL     1       6.068   6.605  17.070  0.00  0.00    +0.000 A 
ENDBRANCH  13  23
TORSDOF 2
ENDMDL
MODEL 4
REMARK VINA RESULT:      -8.3      0.605      1.205
REMARK  Name = 
REMARK  2 active torsions:
REMARK  status: ('A' for Active; 'I' for Inactive)
REMARK    1  A    between atoms: N_11  and  C_12
REMARK    2  A    between atoms: N_21  and  C_22
REMARK                            x       y       z     vdW  Elec       q    Type
REMARK                         _______ _______ _______ _____ _____    ______ ____
ROOT
ATOM      1  O   UNL     1       3.177   6.574  17.971  0.00  0.00    +0.000 OA
ATOM      2  C   UNL     1       2.495   7.025  18.887  0.00  0.00    +0.000 A 
ATOM      3  C   UNL     1       2.051   8.438  18.810  0.00  0.00    +0.000 A 
ATOM      4  C   UNL     1       2.282   9.335  17.771  0.00  0.00    +0.000 A 
ATOM      5  C   UNL     1       1.809  10.662  17.883  0.00  0.00    +0.000 A 
ATOM      6  C   UNL     1       1.095  11.105  19.015  0.00  0.00    +0.000 A 
ATOM      7  C   UNL     1       0.852  10.198  20.024  0.00  0.00    +0.000 A 
ATOM      8  C   UNL     1       1.367   8.905  19.894  0.00  0.00    +0.000 A 
ATOM      9  C   UNL     1       1.071   8.171  21.102  0.00  0.00    +0.000 A 
ATOM     10  C   UNL     1       1.419   6.886  21.113  0.00  0.00    +0.000 A 
ATOM     11  N   UNL     1       2.111   6.283  20.047  0.00  0.00    +0.000 N 
ATOM     12  N   UNL     1       0.449   9.073  21.951  0.00  0.00    +0.000 N 
ATOM     13  N   UNL     1       0.207  10.289  21.286  0.00  0.00    +0.000 N 
ATOM     14  H   UNL     1      -0.328   8.683  22.476  0.00  0.00    +0.000 HD
ENDROOT
BRANCH  11  15
ATOM     15  C   UNL     1       2.704   4.931  20.182  0.00  0.00    +0.000 C 
ATOM     16  C   UNL     1       3.951   4.681  19.274  0.00  0.00    +0.000 C 
ATOM     17  N   UNL     1       3.961   3.315  18.678  0.00  0.00    +0.000 NA
ATOM     18  C   UNL     1       3.822   2.306  19.749  0.00  0.00    +0.000 C 
ATOM     19  C   UNL     1       2.513   2.482  20.536  0.00  0.00    +0.000 C 
ATOM     20  C   UNL     1       1.756   3.710  20.005  0.00  0.00    +0.000 C 
ATOM     21  C   UNL     1       1.485   3.460  18.507  0.00  0.00    +0.000 C 
ATOM     22  C   UNL     1       2.806   3.213  17.766  0.00  0.00    +0.000 C 
ENDBRANCH  11  15
BRANCH  13  23
ATOM     23  C   UNL     1      -0.375  11.418  21.896  0.00  0.00    +0.000 A 
ATOM     24  C   UNL     1      -1.466  11.287  22.776  0.00  0.00    +0.000 A 
ATOM     25  C   UNL     1      -2.003  12.406  23.424  0.00  0.00    +0.000 A 
ATOM     26  C   UNL     1      -1.466  13.664  23.174  0.00  0.00    +0.000 A 
ATOM     27  F   UNL     1      -1.975  14.733  23.801  0.00  0.00    +0.000 F 
ATOM     28  C   UNL     1      -0.420  13.827  22.282  0.00  0.00    +0.000 A 
ATOM     29  C   UNL     1       0.123  12.706  21.645  0.00  0.00    +0.000 A 
ENDBRANCH  13  23
TORSDOF 2
ENDMDL
MODEL 5
REMARK VINA RESULT:      -8.3      4.362      9.287
REMARK  Name = 
REMARK  2 active torsions:
REMARK  status: ('A' for Active; 'I' for Inactive)
REMARK    1  A    between atoms: N_11  and  C_12
REMARK    2  A    between atoms: N_21  and  C_22
REMARK                            x       y       z     vdW  Elec       q    Type
REMARK                         _______ _______ _______ _____ _____    ______ ____
ROOT
ATOM      1  O   UNL     1      -5.255  13.274  19.539  0.00  0.00    +0.000 OA
ATOM      2  C   UNL     1      -4.119  12.898  19.812  0.00  0.00    +0.000 A 
ATOM      3  C   UNL     1      -3.481  11.880  18.942  0.00  0.00    +0.000 A 
ATOM      4  C   UNL     1      -4.012  11.311  17.788  0.00  0.00    +0.000 A 
ATOM      5  C   UNL     1      -3.271  10.325  17.098  0.00  0.00    +0.000 A 
ATOM      6  C   UNL     1      -1.999   9.907  17.537  0.00  0.00    +0.000 A 
ATOM      7  C   UNL     1      -1.475  10.498  18.667  0.00  0.00    +0.000 A 
ATOM      8  C   UNL     1      -2.252  11.442  19.343  0.00  0.00    +0.000 A 
ATOM      9  C   UNL     1      -1.545  11.849  20.534  0.00  0.00    +0.000 A 
ATOM     10  C   UNL     1      -2.110  12.814  21.257  0.00  0.00    +0.000 A 
ATOM     11  N   UNL     1      -3.365  13.361  20.935  0.00  0.00    +0.000 N 
ATOM     12  N   UNL     1      -0.394  11.078  20.574  0.00  0.00    +0.000 N 
ATOM     13  N   UNL     1      -0.270  10.319  19.396  0.00  0.00    +0.000 N 
ATOM     14  H   UNL     1       0.435  11.582  20.875  0.00  0.00    +0.000 HD
ENDROOT
BRANCH  11  15
ATOM     15  C   UNL     1      -4.083  14.248  21.882  0.00  0.00    +0.000 C 
ATOM     16  C   UNL     1      -3.167  15.273  22.625  0.00  0.00    +0.000 C 
ATOM     17  N   UNL     1      -3.539  15.441  24.058  0.00  0.00    +0.000 NA
ATOM     18  C   UNL     1      -4.974  15.778  24.160  0.00  0.00    +0.000 C 
ATOM     19  C   UNL     1      -5.866  14.682  23.552  0.00  0.00    +0.000 C 
ATOM     20  C   UNL     1      -4.982  13.574  22.957  0.00  0.00    +0.000 C 
ATOM     21  C   UNL     1      -4.114  13.023  24.107  0.00  0.00    +0.000 C 
ATOM     22  C   UNL     1      -3.296  14.156  24.740  0.00  0.00    +0.000 C 
ENDBRANCH  11  15
BRANCH  13  23
ATOM     23  C   UNL     1       0.775   9.404  19.155  0.00  0.00    +0.000 A 
ATOM     24  C   UNL     1       1.175   8.481  20.140  0.00  0.00    +0.000 A 
ATOM     25  C   UNL     1       2.173   7.538  19.875  0.00  0.00    +0.000 A 
ATOM     26  C   UNL     1       2.795   7.530  18.631  0.00  0.00    +0.000 A 
ATOM     27  F   UNL     1       3.744   6.620  18.375  0.00  0.00    +0.000 F 
ATOM     28  C   UNL     1       2.450   8.451  17.658  0.00  0.00    +0.000 A 
ATOM     29  C   UNL     1       1.443   9.386  17.920  0.00  0.00    +0.000 A 
ENDBRANCH  13  23
TORSDOF 2
ENDMDL
MODEL 6
REMARK VINA RESULT:      -8.3      2.864      4.212
REMARK  Name = 
REMARK  2 active torsions:
REMARK  status: ('A' for Active; 'I' for Inactive)
REMARK    1  A    between atoms: N_11  and  C_12
REMARK    2  A    between atoms: N_21  and  C_22
REMARK                            x       y       z     vdW  Elec       q    Type
REMARK                         _______ _______ _______ _____ _____    ______ ____
ROOT
ATOM      1  O   UNL     1       2.733   5.225  19.705  0.00  0.00    +0.000 OA
ATOM      2  C   UNL     1       2.718   6.360  19.239  0.00  0.00    +0.000 A 
ATOM      3  C   UNL     1       1.896   7.393  19.915  0.00  0.00    +0.000 A 
ATOM      4  C   UNL     1       1.147   7.240  21.078  0.00  0.00    +0.000 A 
ATOM      5  C   UNL     1       0.392   8.331  21.565  0.00  0.00    +0.000 A 
ATOM      6  C   UNL     1       0.384   9.581  20.912  0.00  0.00    +0.000 A 
ATOM      7  C   UNL     1       1.151   9.724  19.775  0.00  0.00    +0.000 A 
ATOM      8  C   UNL     1       1.854   8.613  19.304  0.00  0.00    +0.000 A 
ATOM      9  C   UNL     1       2.501   8.972  18.064  0.00  0.00    +0.000 A 
ATOM     10  C   UNL     1       3.289   8.048  17.519  0.00  0.00    +0.000 A 
ATOM     11  N   UNL     1       3.429   6.759  18.065  0.00  0.00    +0.000 N 
ATOM     12  N   UNL     1       2.103  10.271  17.792  0.00  0.00    +0.000 N 
ATOM     13  N   UNL     1       1.364  10.796  18.868  0.00  0.00    +0.000 N 
ATOM     14  H   UNL     1       2.840  10.864  17.420  0.00  0.00    +0.000 HD
ENDROOT
BRANCH  11  15
ATOM     15  C   UNL     1       4.108   5.675  17.313  0.00  0.00    +0.000 C 
ATOM     16  C   UNL     1       4.962   4.713  18.201  0.00  0.00    +0.000 C 
ATOM     17  N   UNL     1       6.250   4.331  17.555  0.00  0.00    +0.000 NA
ATOM     18  C   UNL     1       5.984   3.783  16.209  0.00  0.00    +0.000 C 
ATOM     19  C   UNL     1       5.272   4.801  15.304  0.00  0.00    +0.000 C 
ATOM     20  C   UNL     1       4.991   6.086  16.101  0.00  0.00    +0.000 C 
ATOM     21  C   UNL     1       6.353   6.620  16.591  0.00  0.00    +0.000 C 
ATOM     22  C   UNL     1       7.069   5.551  17.426  0.00  0.00    +0.000 C 
ENDBRANCH  11  15
BRANCH  13  23
ATOM     23  C   UNL     1       0.786  12.080  18.874  0.00  0.00    +0.000 A 
ATOM     24  C   UNL     1      -0.611  12.249  18.924  0.00  0.00    +0.000 A 
ATOM     25  C   UNL     1      -1.177  13.528  18.988  0.00  0.00    +0.000 A 
ATOM     26  C   UNL     1      -0.348  14.644  18.977  0.00  0.00    +0.000 A 
ATOM     27  F   UNL     1      -0.891  15.867  19.048  0.00  0.00    +0.000 F 
ATOM     28  C   UNL     1       1.026  14.509  18.888  0.00  0.00    +0.000 A 
ATOM     29  C   UNL     1       1.591  13.230  18.836  0.00  0.00    +0.000 A 
ENDBRANCH  13  23
TORSDOF 2
ENDMDL
MODEL 7
REMARK VINA RESULT:      -8.2      4.070      8.832
REMARK  Name = 
REMARK  2 active torsions:
REMARK  status: ('A' for Active; 'I' for Inactive)
REMARK    1  A    between atoms: N_11  and  C_12
REMARK    2  A    between atoms: N_21  and  C_22
REMARK                            x       y       z     vdW  Elec       q    Type
REMARK                         _______ _______ _______ _____ _____    ______ ____
ROOT
ATOM      1  O   UNL     1      -0.054   9.473  21.612  0.00  0.00    +0.000 OA
ATOM      2  C   UNL     1       0.571   9.257  20.578  0.00  0.00    +0.000 A 
ATOM      3  C   UNL     1       1.217   7.934  20.405  0.00  0.00    +0.000 A 
ATOM      4  C   UNL     1       1.164   6.852  21.281  0.00  0.00    +0.000 A 
ATOM      5  C   UNL     1       1.873   5.671  20.967  0.00  0.00    +0.000 A 
ATOM      6  C   UNL     1       2.626   5.547  19.782  0.00  0.00    +0.000 A 
ATOM      7  C   UNL     1       2.649   6.617  18.912  0.00  0.00    +0.000 A 
ATOM      8  C   UNL     1       1.966   7.781  19.274  0.00  0.00    +0.000 A 
ATOM      9  C   UNL     1       2.208   8.786  18.266  0.00  0.00    +0.000 A 
ATOM     10  C   UNL     1       1.558   9.939  18.411  0.00  0.00    +0.000 A 
ATOM     11  N   UNL     1       0.741  10.208  19.524  0.00  0.00    +0.000 N 
ATOM     12  N   UNL     1       3.091   8.213  17.364  0.00  0.00    +0.000 N 
ATOM     13  N   UNL     1       3.299   6.856  17.673  0.00  0.00    +0.000 N 
ATOM     14  H   UNL     1       2.894   8.430  16.391  0.00  0.00    +0.000 HD
ENDROOT
BRANCH  11  15
ATOM     15  C   UNL     1       0.231  11.575  19.791  0.00  0.00    +0.000 C 
ATOM     16  C   UNL     1      -0.192  12.366  18.511  0.00  0.00    +0.000 C 
ATOM     17  N   UNL     1       0.207  13.801  18.567  0.00  0.00    +0.000 NA
ATOM     18  C   UNL     1      -0.308  14.409  19.811  0.00  0.00    +0.000 C 
ATOM     19  C   UNL     1       0.240  13.706  21.064  0.00  0.00    +0.000 C 
ATOM     20  C   UNL     1       1.126  12.523  20.640  0.00  0.00    +0.000 C 
ATOM     21  C   UNL     1       2.264  13.099  19.773  0.00  0.00    +0.000 C 
ATOM     22  C   UNL     1       1.680  13.859  18.575  0.00  0.00    +0.000 C 
ENDBRANCH  11  15
BRANCH  13  23
ATOM     23  C   UNL     1       4.178   6.013  16.964  0.00  0.00    +0.000 A 
ATOM     24  C   UNL     1       5.138   6.541  16.082  0.00  0.00    +0.000 A 
ATOM     25  C   UNL     1       6.046   5.704  15.424  0.00  0.00    +0.000 A 
ATOM     26  C   UNL     1       5.981   4.330  15.629  0.00  0.00    +0.000 A 
ATOM     27  F   UNL     1       6.857   3.529  15.007  0.00  0.00    +0.000 F 
ATOM     28  C   UNL     1       5.021   3.779  16.461  0.00  0.00    +0.000 A 
ATOM     29  C   UNL     1       4.122   4.620  17.125  0.00  0.00    +0.000 A 
ENDBRANCH  13  23
TORSDOF 2
ENDMDL
MODEL 8
REMARK VINA RESULT:      -8.0      2.592      3.805
REMARK  Name = 
REMARK  2 active torsions:
REMARK  status: ('A' for Active; 'I' for Inactive)
REMARK    1  A    between atoms: N_11  and  C_12
REMARK    2  A    between atoms: N_21  and  C_22
REMARK                            x       y       z     vdW  Elec       q    Type
REMARK                         _______ _______ _______ _____ _____    ______ ____
ROOT
ATOM      1  O   UNL     1       1.441   5.968  21.020  0.00  0.00    +0.000 OA
ATOM      2  C   UNL     1       1.654   6.986  20.367  0.00  0.00    +0.000 A 
ATOM      3  C   UNL     1       1.102   8.271  20.859  0.00  0.00    +0.000 A 
ATOM      4  C   UNL     1       0.385   8.482  22.034  0.00  0.00    +0.000 A 
ATOM      5  C   UNL     1      -0.095   9.778  22.329  0.00  0.00    +0.000 A 
ATOM      6  C   UNL     1       0.142  10.873  21.473  0.00  0.00    +0.000 A 
ATOM      7  C   UNL     1       0.875  10.653  20.326  0.00  0.00    +0.000 A 
ATOM      8  C   UNL     1       1.302   9.352  20.050  0.00  0.00    +0.000 A 
ATOM      9  C   UNL     1       1.961   9.349  18.765  0.00  0.00    +0.000 A 
ATOM     10  C   UNL     1       2.508   8.197  18.383  0.00  0.00    +0.000 A 
ATOM     11  N   UNL     1       2.387   7.018  19.140  0.00  0.00    +0.000 N 
ATOM     12  N   UNL     1       1.843  10.641  18.276  0.00  0.00    +0.000 N 
ATOM     13  N   UNL     1       1.279  11.486  19.249  0.00  0.00    +0.000 N 
ATOM     14  H   UNL     1       2.676  10.986  17.807  0.00  0.00    +0.000 HD
ENDROOT
BRANCH  11  15
ATOM     15  C   UNL     1       2.784   5.702  18.583  0.00  0.00    +0.000 C 
ATOM     16  C   UNL     1       3.292   4.677  19.648  0.00  0.00    +0.000 C 
ATOM     17  N   UNL     1       4.460   3.885  19.170  0.00  0.00    +0.000 NA
ATOM     18  C   UNL     1       4.130   3.249  17.877  0.00  0.00    +0.000 C 
ATOM     19  C   UNL     1       3.776   4.288  16.801  0.00  0.00    +0.000 C 
ATOM     20  C   UNL     1       3.813   5.697  17.416  0.00  0.00    +0.000 C 
ATOM     21  C   UNL     1       5.239   5.914  17.963  0.00  0.00    +0.000 C 
ATOM     22  C   UNL     1       5.587   4.816  18.977  0.00  0.00    +0.000 C 
ENDBRANCH  11  15
BRANCH  13  23
ATOM     23  C   UNL     1       0.993  12.849  19.038  0.00  0.00    +0.000 A 
ATOM     24  C   UNL     1       2.026  13.794  18.891  0.00  0.00    +0.000 A 
ATOM     25  C   UNL     1       1.738  15.137  18.624  0.00  0.00    +0.000 A 
ATOM     26  C   UNL     1       0.412  15.546  18.528  0.00  0.00    +0.000 A 
ATOM     27  F   UNL     1       0.137  16.830  18.263  0.00  0.00    +0.000 F 
ATOM     28  C   UNL     1      -0.625  14.646  18.708  0.00  0.00    +0.000 A 
ATOM     29  C   UNL     1      -0.333  13.302  18.962  0.00  0.00    +0.000 A 
ENDBRANCH  13  23
TORSDOF 2
ENDMDL
MODEL 9
REMARK VINA RESULT:      -7.8      4.105      9.195
REMARK  Name = 
REMARK  2 active torsions:
REMARK  status: ('A' for Active; 'I' for Inactive)
REMARK    1  A    between atoms: N_11  and  C_12
REMARK    2  A    between atoms: N_21  and  C_22
REMARK                            x       y       z     vdW  Elec       q    Type
REMARK                         _______ _______ _______ _____ _____    ______ ____
ROOT
ATOM      1  O   UNL     1      -1.233  13.761  22.465  0.00  0.00    +0.000 OA
ATOM      2  C   UNL     1      -0.675  13.090  21.601  0.00  0.00    +0.000 A 
ATOM      3  C   UNL     1      -0.449  11.648  21.860  0.00  0.00    +0.000 A 
ATOM      4  C   UNL     1      -0.844  10.924  22.982  0.00  0.00    +0.000 A 
ATOM      5  C   UNL     1      -0.513   9.554  23.075  0.00  0.00    +0.000 A 
ATOM      6  C   UNL     1       0.198   8.889  22.055  0.00  0.00    +0.000 A 
ATOM      7  C   UNL     1       0.560   9.612  20.939  0.00  0.00    +0.000 A 
ATOM      8  C   UNL     1       0.247  10.974  20.899  0.00  0.00    +0.000 A 
ATOM      9  C   UNL     1       0.802  11.536  19.691  0.00  0.00    +0.000 A 
ATOM     10  C   UNL     1       0.522  12.815  19.451  0.00  0.00    +0.000 A 
ATOM     11  N   UNL     1      -0.203  13.611  20.356  0.00  0.00    +0.000 N 
ATOM     12  N   UNL     1       1.497  10.505  19.077  0.00  0.00    +0.000 N 
ATOM     13  N   UNL     1       1.282   9.293  19.759  0.00  0.00    +0.000 N 
ATOM     14  H   UNL     1       1.396  10.478  18.066  0.00  0.00    +0.000 HD
ENDROOT
BRANCH  11  15
ATOM     15  C   UNL     1      -0.289  15.082  20.190  0.00  0.00    +0.000 C 
ATOM     16  C   UNL     1      -0.325  15.561  18.702  0.00  0.00    +0.000 C 
ATOM     17  N   UNL     1       0.490  16.788  18.476  0.00  0.00    +0.000 NA
ATOM     18  C   UNL     1       0.074  17.840  19.426  0.00  0.00    +0.000 C 
ATOM     19  C   UNL     1       0.258  17.400  20.888  0.00  0.00    +0.000 C 
ATOM     20  C   UNL     1       0.771  15.951  20.925  0.00  0.00    +0.000 C 
ATOM     21  C   UNL     1       2.108  15.925  20.155  0.00  0.00    +0.000 C 
ATOM     22  C   UNL     1       1.902  16.443  18.725  0.00  0.00    +0.000 C 
ENDBRANCH  11  15
BRANCH  13  23
ATOM     23  C   UNL     1       1.887   8.071  19.402  0.00  0.00    +0.000 A 
ATOM     24  C   UNL     1       1.854   6.963  20.269  0.00  0.00    +0.000 A 
ATOM     25  C   UNL     1       2.406   5.736  19.885  0.00  0.00    +0.000 A 
ATOM     26  C   UNL     1       3.016   5.619  18.641  0.00  0.00    +0.000 A 
ATOM     27  F   UNL     1       3.535   4.441  18.271  0.00  0.00    +0.000 F 
ATOM     28  C   UNL     1       3.098   6.703  17.784  0.00  0.00    +0.000 A 
ATOM     29  C   UNL     1       2.535   7.926  18.165  0.00  0.00    +0.000 A 
ENDBRANCH  13  23
TORSDOF 2
ENDMDL
