MODEL 1
REMARK VINA RESULT:      -7.5      0.000      0.000
REMARK  Name = 
REMARK  3 active torsions:
REMARK  status: ('A' for Active; 'I' for Inactive)
REMARK    1  A    between atoms: C_1  and  C_2
REMARK    2  A    between atoms: C_5  and  C_6
REMARK    3  A    between atoms: N_7  and  C_8
REMARK                            x       y       z     vdW  Elec       q    Type
REMARK                         _______ _______ _______ _____ _____    ______ ____
ROOT
ATOM      1  C   UNL     1       5.065   4.207  17.696  0.00  0.00    +0.000 A 
ATOM      2  N   UNL     1       5.850   4.394  18.792  0.00  0.00    +0.000 NA
ATOM      3  C   UNL     1       7.156   4.689  18.637  0.00  0.00    +0.000 A 
ATOM      4  N   UNL     1       7.841   4.838  17.494  0.00  0.00    +0.000 NA
ATOM      5  C   UNL     1       7.049   4.647  16.432  0.00  0.00    +0.000 A 
ATOM      6  N   UNL     1       7.468   4.760  15.137  0.00  0.00    +0.000 N 
ATOM      7  C   UNL     1       6.425   4.522  14.285  0.00  0.00    +0.000 A 
ATOM      8  C   UNL     1       5.313   4.262  15.059  0.00  0.00    +0.000 A 
ATOM      9  C   UNL     1       5.695   4.331  16.434  0.00  0.00    +0.000 A 
ATOM     10  H   UNL     1       8.412   5.000  14.873  0.00  0.00    +0.000 HD
ENDROOT
BRANCH   1  17
ATOM     11  C   UNL     1       2.971   6.370  18.047  0.00  0.00    +0.000 C 
ATOM     12  C   UNL     1       2.817   4.927  18.516  0.00  0.00    +0.000 C 
ATOM     13  C   UNL     1       1.446   4.391  18.083  0.00  0.00    +0.000 C 
ATOM     14  C   UNL     1       1.630   2.886  18.144  0.00  0.00    +0.000 C 
ATOM     15  C   UNL     1       3.079   2.669  17.673  0.00  0.00    +0.000 C 
ATOM     16  C   UNL     1       3.729   1.548  18.480  0.00  0.00    +0.000 C 
ATOM     17  N   UNL     1       3.723   3.969  17.877  0.00  0.00    +0.000 N 
ENDBRANCH   1  17
TORSDOF 1
ENDMDL
MODEL 2
REMARK VINA RESULT:      -7.3      1.020      1.045
REMARK  Name = 
REMARK  3 active torsions:
REMARK  status: ('A' for Active; 'I' for Inactive)
REMARK    1  A    between atoms: C_1  and  C_2
REMARK    2  A    between atoms: C_5  and  C_6
REMARK    3  A    between atoms: N_7  and  C_8
REMARK                            x       y       z     vdW  Elec       q    Type
REMARK                         _______ _______ _______ _____ _____    ______ ____
ROOT
ATOM      1  C   UNL     1       5.244   4.555  18.520  0.00  0.00    +0.000 A 
ATOM      2  N   UNL     1       5.998   5.140  19.490  0.00  0.00    +0.000 NA
ATOM      3  C   UNL     1       7.231   5.598  19.194  0.00  0.00    +0.000 A 
ATOM      4  N   UNL     1       7.865   5.565  18.013  0.00  0.00    +0.000 NA
ATOM      5  C   UNL     1       7.104   4.984  17.077  0.00  0.00    +0.000 A 
ATOM      6  N   UNL     1       7.480   4.835  15.772  0.00  0.00    +0.000 N 
ATOM      7  C   UNL     1       6.483   4.220  15.066  0.00  0.00    +0.000 A 
ATOM      8  C   UNL     1       5.445   3.983  15.941  0.00  0.00    +0.000 A 
ATOM      9  C   UNL     1       5.826   4.459  17.233  0.00  0.00    +0.000 A 
ATOM     10  H   UNL     1       8.365   5.154  15.405  0.00  0.00    +0.000 HD
ENDROOT
BRANCH   1  17
ATOM     11  C   UNL     1       2.783   6.304  18.262  0.00  0.00    +0.000 C 
ATOM     12  C   UNL     1       2.891   5.086  19.173  0.00  0.00    +0.000 C 
ATOM     13  C   UNL     1       1.648   4.202  18.996  0.00  0.00    +0.000 C 
ATOM     14  C   UNL     1       2.105   2.855  19.524  0.00  0.00    +0.000 C 
ATOM     15  C   UNL     1       3.576   2.762  19.080  0.00  0.00    +0.000 C 
ATOM     16  C   UNL     1       4.411   2.095  20.169  0.00  0.00    +0.000 C 
ATOM     17  N   UNL     1       3.967   4.152  18.830  0.00  0.00    +0.000 N 
ENDBRANCH   1  17
TORSDOF 1
ENDMDL
MODEL 3
REMARK VINA RESULT:      -7.2      1.413      2.481
REMARK  Name = 
REMARK  3 active torsions:
REMARK  status: ('A' for Active; 'I' for Inactive)
REMARK    1  A    between atoms: C_1  and  C_2
REMARK    2  A    between atoms: C_5  and  C_6
REMARK    3  A    between atoms: N_7  and  C_8
REMARK                            x       y       z     vdW  Elec       q    Type
REMARK                         _______ _______ _______ _____ _____    ______ ____
ROOT
ATOM      1  C   UNL     1       5.280   4.791  18.864  0.00  0.00    +0.000 A 
ATOM      2  N   UNL     1       6.301   5.292  19.612  0.00  0.00    +0.000 NA
ATOM      3  C   UNL     1       7.504   5.505  19.044  0.00  0.00    +0.000 A 
ATOM      4  N   UNL     1       7.870   5.287  17.772  0.00  0.00    +0.000 NA
ATOM      5  C   UNL     1       6.851   4.792  17.059  0.00  0.00    +0.000 A 
ATOM      6  N   UNL     1       6.923   4.499  15.727  0.00  0.00    +0.000 N 
ATOM      7  C   UNL     1       5.718   4.027  15.286  0.00  0.00    +0.000 A 
ATOM      8  C   UNL     1       4.855   4.034  16.362  0.00  0.00    +0.000 A 
ATOM      9  C   UNL     1       5.564   4.513  17.505  0.00  0.00    +0.000 A 
ATOM     10  H   UNL     1       7.754   4.632  15.169  0.00  0.00    +0.000 HD
ENDROOT
BRANCH   1  17
ATOM     11  C   UNL     1       4.314   2.252  20.206  0.00  0.00    +0.000 C 
ATOM     12  C   UNL     1       3.403   3.339  19.646  0.00  0.00    +0.000 C 
ATOM     13  C   UNL     1       2.320   3.682  20.679  0.00  0.00    +0.000 C 
ATOM     14  C   UNL     1       1.846   5.054  20.237  0.00  0.00    +0.000 C 
ATOM     15  C   UNL     1       3.125   5.746  19.734  0.00  0.00    +0.000 C 
ATOM     16  C   UNL     1       2.812   6.594  18.505  0.00  0.00    +0.000 C 
ATOM     17  N   UNL     1       4.045   4.641  19.449  0.00  0.00    +0.000 N 
ENDBRANCH   1  17
TORSDOF 1
ENDMDL
MODEL 4
REMARK VINA RESULT:      -7.1      0.369      2.036
REMARK  Name = 
REMARK  3 active torsions:
REMARK  status: ('A' for Active; 'I' for Inactive)
REMARK    1  A    between atoms: C_1  and  C_2
REMARK    2  A    between atoms: C_5  and  C_6
REMARK    3  A    between atoms: N_7  and  C_8
REMARK                            x       y       z     vdW  Elec       q    Type
REMARK                         _______ _______ _______ _____ _____    ______ ____
ROOT
ATOM      1  C   UNL     1       5.088   4.305  18.011  0.00  0.00    +0.000 A 
ATOM      2  N   UNL     1       5.945   4.514  19.047  0.00  0.00    +0.000 NA
ATOM      3  C   UNL     1       7.244   4.773  18.798  0.00  0.00    +0.000 A 
ATOM      4  N   UNL     1       7.858   4.864  17.609  0.00  0.00    +0.000 NA
ATOM      5  C   UNL     1       6.995   4.652  16.607  0.00  0.00    +0.000 A 
ATOM      6  N   UNL     1       7.332   4.708  15.285  0.00  0.00    +0.000 N 
ATOM      7  C   UNL     1       6.232   4.462  14.511  0.00  0.00    +0.000 A 
ATOM      8  C   UNL     1       5.167   4.257  15.363  0.00  0.00    +0.000 A 
ATOM      9  C   UNL     1       5.638   4.367  16.707  0.00  0.00    +0.000 A 
ATOM     10  H   UNL     1       8.263   4.917  14.953  0.00  0.00    +0.000 HD
ENDROOT
BRANCH   1  17
ATOM     11  C   UNL     1       3.734   1.594  18.058  0.00  0.00    +0.000 C 
ATOM     12  C   UNL     1       3.014   2.921  17.844  0.00  0.00    +0.000 C 
ATOM     13  C   UNL     1       1.773   2.982  18.745  0.00  0.00    +0.000 C 
ATOM     14  C   UNL     1       1.473   4.467  18.819  0.00  0.00    +0.000 C 
ATOM     15  C   UNL     1       2.863   5.127  18.840  0.00  0.00    +0.000 C 
ATOM     16  C   UNL     1       2.846   6.413  18.019  0.00  0.00    +0.000 C 
ATOM     17  N   UNL     1       3.756   4.105  18.285  0.00  0.00    +0.000 N 
ENDBRANCH   1  17
TORSDOF 1
ENDMDL
MODEL 5
REMARK VINA RESULT:      -6.8      0.977      2.327
REMARK  Name = 
REMARK  3 active torsions:
REMARK  status: ('A' for Active; 'I' for Inactive)
REMARK    1  A    between atoms: C_1  and  C_2
REMARK    2  A    between atoms: C_5  and  C_6
REMARK    3  A    between atoms: N_7  and  C_8
REMARK                            x       y       z     vdW  Elec       q    Type
REMARK                         _______ _______ _______ _____ _____    ______ ____
ROOT
ATOM      1  C   UNL     1       4.691   4.114  17.207  0.00  0.00    +0.000 A 
ATOM      2  N   UNL     1       4.986   3.834  15.909  0.00  0.00    +0.000 NA
ATOM      3  C   UNL     1       6.216   4.101  15.429  0.00  0.00    +0.000 A 
ATOM      4  N   UNL     1       7.261   4.633  16.080  0.00  0.00    +0.000 NA
ATOM      5  C   UNL     1       6.946   4.903  17.353  0.00  0.00    +0.000 A 
ATOM      6  N   UNL     1       7.821   5.425  18.262  0.00  0.00    +0.000 N 
ATOM      7  C   UNL     1       7.205   5.570  19.474  0.00  0.00    +0.000 A 
ATOM      8  C   UNL     1       5.910   5.116  19.335  0.00  0.00    +0.000 A 
ATOM      9  C   UNL     1       5.725   4.692  17.983  0.00  0.00    +0.000 A 
ATOM     10  H   UNL     1       8.781   5.651  18.048  0.00  0.00    +0.000 HD
ENDROOT
BRANCH   1  17
ATOM     11  C   UNL     1       2.516   6.108  17.899  0.00  0.00    +0.000 C 
ATOM     12  C   UNL     1       2.611   4.695  18.464  0.00  0.00    +0.000 C 
ATOM     13  C   UNL     1       1.239   4.013  18.371  0.00  0.00    +0.000 C 
ATOM     14  C   UNL     1       1.580   2.537  18.467  0.00  0.00    +0.000 C 
ATOM     15  C   UNL     1       2.909   2.413  17.700  0.00  0.00    +0.000 C 
ATOM     16  C   UNL     1       3.825   1.413  18.400  0.00  0.00    +0.000 C 
ATOM     17  N   UNL     1       3.450   3.775  17.691  0.00  0.00    +0.000 N 
ENDBRANCH   1  17
TORSDOF 1
ENDMDL
MODEL 6
REMARK VINA RESULT:      -6.7      1.637      2.632
REMARK  Name = 
REMARK  3 active torsions:
REMARK  status: ('A' for Active; 'I' for Inactive)
REMARK    1  A    between atoms: C_1  and  C_2
REMARK    2  A    between atoms: C_5  and  C_6
REMARK    3  A    between atoms: N_7  and  C_8
REMARK                            x       y       z     vdW  Elec       q    Type
REMARK                         _______ _______ _______ _____ _____    ______ ____
ROOT
ATOM      1  C   UNL     1       4.370   4.421  18.142  0.00  0.00    +0.000 A 
ATOM      2  N   UNL     1       4.038   3.952  16.908  0.00  0.00    +0.000 NA
ATOM      3  C   UNL     1       4.959   3.945  15.924  0.00  0.00    +0.000 A 
ATOM      4  N   UNL     1       6.235   4.354  15.982  0.00  0.00    +0.000 NA
ATOM      5  C   UNL     1       6.537   4.812  17.203  0.00  0.00    +0.000 A 
ATOM      6  N   UNL     1       7.772   5.270  17.563  0.00  0.00    +0.000 N 
ATOM      7  C   UNL     1       7.765   5.652  18.876  0.00  0.00    +0.000 A 
ATOM      8  C   UNL     1       6.497   5.420  19.365  0.00  0.00    +0.000 A 
ATOM      9  C   UNL     1       5.696   4.890  18.308  0.00  0.00    +0.000 A 
ATOM     10  H   UNL     1       8.563   5.299  16.935  0.00  0.00    +0.000 HD
ENDROOT
BRANCH   1  17
ATOM     11  C   UNL     1       2.564   6.717  18.944  0.00  0.00    +0.000 C 
ATOM     12  C   UNL     1       2.930   5.544  19.847  0.00  0.00    +0.000 C 
ATOM     13  C   UNL     1       1.660   4.992  20.510  0.00  0.00    +0.000 C 
ATOM     14  C   UNL     1       2.071   3.594  20.931  0.00  0.00    +0.000 C 
ATOM     15  C   UNL     1       2.996   3.121  19.795  0.00  0.00    +0.000 C 
ATOM     16  C   UNL     1       4.153   2.306  20.367  0.00  0.00    +0.000 C 
ATOM     17  N   UNL     1       3.434   4.360  19.146  0.00  0.00    +0.000 N 
ENDBRANCH   1  17
TORSDOF 1
ENDMDL
MODEL 7
REMARK VINA RESULT:      -6.7      1.611      3.327
REMARK  Name = 
REMARK  3 active torsions:
REMARK  status: ('A' for Active; 'I' for Inactive)
REMARK    1  A    between atoms: C_1  and  C_2
REMARK    2  A    between atoms: C_5  and  C_6
REMARK    3  A    between atoms: N_7  and  C_8
REMARK                            x       y       z     vdW  Elec       q    Type
REMARK                         _______ _______ _______ _____ _____    ______ ____
ROOT
ATOM      1  C   UNL     1       4.350   4.687  18.136  0.00  0.00    +0.000 A 
ATOM      2  N   UNL     1       3.974   4.127  16.954  0.00  0.00    +0.000 NA
ATOM      3  C   UNL     1       4.904   3.852  16.018  0.00  0.00    +0.000 A 
ATOM      4  N   UNL     1       6.227   4.058  16.080  0.00  0.00    +0.000 NA
ATOM      5  C   UNL     1       6.572   4.613  17.249  0.00  0.00    +0.000 A 
ATOM      6  N   UNL     1       7.857   4.911  17.603  0.00  0.00    +0.000 N 
ATOM      7  C   UNL     1       7.883   5.451  18.859  0.00  0.00    +0.000 A 
ATOM      8  C   UNL     1       6.583   5.484  19.319  0.00  0.00    +0.000 A 
ATOM      9  C   UNL     1       5.730   4.959  18.300  0.00  0.00    +0.000 A 
ATOM     10  H   UNL     1       8.655   4.737  17.010  0.00  0.00    +0.000 HD
ENDROOT
BRANCH   1  17
ATOM     11  C   UNL     1       3.343   2.567  20.052  0.00  0.00    +0.000 C 
ATOM     12  C   UNL     1       2.575   3.828  19.670  0.00  0.00    +0.000 C 
ATOM     13  C   UNL     1       2.028   4.499  20.938  0.00  0.00    +0.000 C 
ATOM     14  C   UNL     1       1.764   5.924  20.487  0.00  0.00    +0.000 C 
ATOM     15  C   UNL     1       2.914   6.224  19.510  0.00  0.00    +0.000 C 
ATOM     16  C   UNL     1       2.404   7.062  18.342  0.00  0.00    +0.000 C 
ATOM     17  N   UNL     1       3.394   4.901  19.100  0.00  0.00    +0.000 N 
ENDBRANCH   1  17
TORSDOF 1
ENDMDL
MODEL 8
REMARK VINA RESULT:      -6.4      2.023      5.141
REMARK  Name = 
REMARK  3 active torsions:
REMARK  status: ('A' for Active; 'I' for Inactive)
REMARK    1  A    between atoms: C_1  and  C_2
REMARK    2  A    between atoms: C_5  and  C_6
REMARK    3  A    between atoms: N_7  and  C_8
REMARK                            x       y       z     vdW  Elec       q    Type
REMARK                         _______ _______ _______ _____ _____    ______ ____
ROOT
ATOM      1  C   UNL     1       4.834   4.296  19.054  0.00  0.00    +0.000 A 
ATOM      2  N   UNL     1       5.098   3.004  19.392  0.00  0.00    +0.000 NA
ATOM      3  C   UNL     1       4.257   2.342  20.212  0.00  0.00    +0.000 A 
ATOM      4  N   UNL     1       3.128   2.791  20.778  0.00  0.00    +0.000 NA
ATOM      5  C   UNL     1       2.892   4.063  20.433  0.00  0.00    +0.000 A 
ATOM      6  N   UNL     1       1.799   4.774  20.839  0.00  0.00    +0.000 N 
ATOM      7  C   UNL     1       1.836   6.033  20.308  0.00  0.00    +0.000 A 
ATOM      8  C   UNL     1       2.975   6.121  19.536  0.00  0.00    +0.000 A 
ATOM      9  C   UNL     1       3.666   4.873  19.610  0.00  0.00    +0.000 A 
ATOM     10  H   UNL     1       1.075   4.397  21.434  0.00  0.00    +0.000 HD
ENDROOT
BRANCH   1  17
ATOM     11  C   UNL     1       4.645   4.050  16.039  0.00  0.00    +0.000 C 
ATOM     12  C   UNL     1       5.902   4.456  16.800  0.00  0.00    +0.000 C 
ATOM     13  C   UNL     1       6.521   5.698  16.143  0.00  0.00    +0.000 C 
ATOM     14  C   UNL     1       7.398   6.267  17.242  0.00  0.00    +0.000 C 
ATOM     15  C   UNL     1       6.598   6.005  18.530  0.00  0.00    +0.000 C 
ATOM     16  C   UNL     1       7.544   5.619  19.664  0.00  0.00    +0.000 C 
ATOM     17  N   UNL     1       5.670   4.931  18.167  0.00  0.00    +0.000 N 
ENDBRANCH   1  17
TORSDOF 1
ENDMDL
MODEL 9
REMARK VINA RESULT:      -6.1      1.926      3.393
REMARK  Name = 
REMARK  3 active torsions:
REMARK  status: ('A' for Active; 'I' for Inactive)
REMARK    1  A    between atoms: C_1  and  C_2
REMARK    2  A    between atoms: C_5  and  C_6
REMARK    3  A    between atoms: N_7  and  C_8
REMARK                            x       y       z     vdW  Elec       q    Type
REMARK                         _______ _______ _______ _____ _____    ______ ____
ROOT
ATOM      1  C   UNL     1       4.388   5.574  18.080  0.00  0.00    +0.000 A 
ATOM      2  N   UNL     1       4.039   6.075  16.864  0.00  0.00    +0.000 NA
ATOM      3  C   UNL     1       4.973   6.658  16.087  0.00  0.00    +0.000 A 
ATOM      4  N   UNL     1       6.278   6.828  16.348  0.00  0.00    +0.000 NA
ATOM      5  C   UNL     1       6.596   6.331  17.549  0.00  0.00    +0.000 A 
ATOM      6  N   UNL     1       7.859   6.338  18.069  0.00  0.00    +0.000 N 
ATOM      7  C   UNL     1       7.861   5.746  19.301  0.00  0.00    +0.000 A 
ATOM      8  C   UNL     1       6.570   5.341  19.565  0.00  0.00    +0.000 A 
ATOM      9  C   UNL     1       5.746   5.713  18.459  0.00  0.00    +0.000 A 
ATOM     10  H   UNL     1       8.660   6.720  17.587  0.00  0.00    +0.000 HD
ENDROOT
BRANCH   1  17
ATOM     11  C   UNL     1       3.633   2.658  17.750  0.00  0.00    +0.000 C 
ATOM     12  C   UNL     1       2.736   3.722  18.372  0.00  0.00    +0.000 C 
ATOM     13  C   UNL     1       2.147   3.191  19.686  0.00  0.00    +0.000 C 
ATOM     14  C   UNL     1       1.733   4.457  20.414  0.00  0.00    +0.000 C 
ATOM     15  C   UNL     1       2.830   5.472  20.048  0.00  0.00    +0.000 C 
ATOM     16  C   UNL     1       2.217   6.855  19.845  0.00  0.00    +0.000 C 
ATOM     17  N   UNL     1       3.433   4.928  18.828  0.00  0.00    +0.000 N 
ENDBRANCH   1  17
TORSDOF 1
ENDMDL
