MODEL 1
REMARK VINA RESULT:      -7.9      0.000      0.000
REMARK  Name = 
REMARK  8 active torsions:
REMARK  status: ('A' for Active; 'I' for Inactive)
REMARK    1  A    between atoms: C_1  and  C_2
REMARK    2  A    between atoms: C_5  and  C_6
REMARK    3  A    between atoms: C_10  and  O_11
REMARK    4  A    between atoms: O_11  and  C_12
REMARK    5  A    between atoms: C_12  and  C_13
REMARK    6  A    between atoms: C_13  and  C_14
REMARK    7  A    between atoms: C_14  and  N_15
REMARK    8  A    between atoms: C_18  and  C_19
REMARK                            x       y       z     vdW  Elec       q    Type
REMARK                         _______ _______ _______ _____ _____    ______ ____
ROOT
ATOM      1  C   UNL     1       4.255   5.001  17.460  0.00  0.00    +0.000 A 
ATOM      2  N   UNL     1       4.048   3.829  18.098  0.00  0.00    +0.000 NA
ATOM      3  C   UNL     1       3.186   3.824  19.134  0.00  0.00    +0.000 A 
ATOM      4  C   UNL     1       2.500   4.956  19.531  0.00  0.00    +0.000 A 
ATOM      5  C   UNL     1       2.800   6.101  18.821  0.00  0.00    +0.000 A 
ATOM      6  N   UNL     1       3.662   6.162  17.791  0.00  0.00    +0.000 NA
ATOM      7  C   UNL     1       1.539   4.962  20.683  0.00  0.00    +0.000 C 
ATOM      8  C   UNL     1       1.094   3.558  21.090  0.00  0.00    +0.000 C 
ATOM      9  C   UNL     1       2.303   2.636  21.187  0.00  0.00    +0.000 C 
ATOM     10  C   UNL     1       2.970   2.499  19.818  0.00  0.00    +0.000 C 
ENDROOT
BRANCH   1  15
ATOM     11  C   UNL     1       7.948   4.982  12.953  0.00  0.00    +0.000 C 
ATOM     12  C   UNL     1       6.995   4.979  14.110  0.00  0.00    +0.000 A 
ATOM     13  C   UNL     1       5.831   4.210  14.082  0.00  0.00    +0.000 A 
ATOM     14  C   UNL     1       4.949   4.218  15.170  0.00  0.00    +0.000 A 
ATOM     15  C   UNL     1       5.197   4.994  16.320  0.00  0.00    +0.000 A 
ATOM     16  C   UNL     1       6.377   5.760  16.328  0.00  0.00    +0.000 A 
ATOM     17  C   UNL     1       7.263   5.754  15.243  0.00  0.00    +0.000 A 
ENDBRANCH   1  15
BRANCH   5  18
ATOM     18  O   UNL     1       2.220   7.265  19.275  0.00  0.00    +0.000 OA
BRANCH  18  19
ATOM     19  C   UNL     1       2.262   8.345  18.341  0.00  0.00    +0.000 C 
BRANCH  19  20
ATOM     20  C   UNL     1       1.118   9.275  18.735  0.00  0.00    +0.000 C 
BRANCH  20  21
ATOM     21  C   UNL     1       0.619   9.000  20.151  0.00  0.00    +0.000 C 
BRANCH  21  22
ATOM     22  N   UNL     1       1.320   9.794  21.178  0.00  0.00    +0.000 NA
ATOM     23  C   UNL     1       0.973   9.438  22.563  0.00  0.00    +0.000 C 
ATOM     24  C   UNL     1      -0.464   9.797  22.945  0.00  0.00    +0.000 C 
ATOM     25  C   UNL     1      -0.741  11.286  22.708  0.00  0.00    +0.000 C 
ATOM     26  C   UNL     1      -2.213  11.608  22.952  0.00  0.00    +0.000 C 
ATOM     27  C   UNL     1      -0.314  11.705  21.295  0.00  0.00    +0.000 C 
ATOM     28  C   UNL     1       1.110  11.238  20.975  0.00  0.00    +0.000 C 
ENDBRANCH  21  22
ENDBRANCH  20  21
ENDBRANCH  19  20
ENDBRANCH  18  19
ENDBRANCH   5  18
TORSDOF 6
ENDMDL
MODEL 2
REMARK VINA RESULT:      -7.8      2.310      7.783
REMARK  Name = 
REMARK  8 active torsions:
REMARK  status: ('A' for Active; 'I' for Inactive)
REMARK    1  A    between atoms: C_1  and  C_2
REMARK    2  A    between atoms: C_5  and  C_6
REMARK    3  A    between atoms: C_10  and  O_11
REMARK    4  A    between atoms: O_11  and  C_12
REMARK    5  A    between atoms: C_12  and  C_13
REMARK    6  A    between atoms: C_13  and  C_14
REMARK    7  A    between atoms: C_14  and  N_15
REMARK    8  A    between atoms: C_18  and  C_19
REMARK                            x       y       z     vdW  Elec       q    Type
REMARK                         _______ _______ _______ _____ _____    ______ ____
ROOT
ATOM      1  C   UNL     1       2.870   6.334  19.067  0.00  0.00    +0.000 A 
ATOM      2  N   UNL     1       2.079   5.315  18.666  0.00  0.00    +0.000 NA
ATOM      3  C   UNL     1       2.612   4.078  18.648  0.00  0.00    +0.000 A 
ATOM      4  C   UNL     1       3.910   3.825  19.051  0.00  0.00    +0.000 A 
ATOM      5  C   UNL     1       4.633   4.941  19.425  0.00  0.00    +0.000 A 
ATOM      6  N   UNL     1       4.153   6.195  19.446  0.00  0.00    +0.000 NA
ATOM      7  C   UNL     1       4.514   2.452  19.035  0.00  0.00    +0.000 C 
ATOM      8  C   UNL     1       3.465   1.346  18.933  0.00  0.00    +0.000 C 
ATOM      9  C   UNL     1       2.455   1.683  17.843  0.00  0.00    +0.000 C 
ATOM     10  C   UNL     1       1.701   2.963  18.205  0.00  0.00    +0.000 C 
ENDROOT
BRANCH   1  15
ATOM     11  C   UNL     1       0.505  11.659  19.142  0.00  0.00    +0.000 C 
ATOM     12  C   UNL     1       1.119  10.291  19.116  0.00  0.00    +0.000 A 
ATOM     13  C   UNL     1       1.795   9.827  17.987  0.00  0.00    +0.000 A 
ATOM     14  C   UNL     1       2.362   8.546  17.977  0.00  0.00    +0.000 A 
ATOM     15  C   UNL     1       2.273   7.686  19.090  0.00  0.00    +0.000 A 
ATOM     16  C   UNL     1       1.591   8.176  20.218  0.00  0.00    +0.000 A 
ATOM     17  C   UNL     1       1.023   9.457  20.234  0.00  0.00    +0.000 A 
ENDBRANCH   1  15
BRANCH   5  18
ATOM     18  O   UNL     1       5.963   4.730  19.715  0.00  0.00    +0.000 OA
BRANCH  18  19
ATOM     19  C   UNL     1       6.845   5.711  19.169  0.00  0.00    +0.000 C 
BRANCH  19  20
ATOM     20  C   UNL     1       7.833   4.939  18.299  0.00  0.00    +0.000 C 
BRANCH  20  21
ATOM     21  C   UNL     1       7.167   4.360  17.053  0.00  0.00    +0.000 C 
BRANCH  21  22
ATOM     22  N   UNL     1       6.340   5.343  16.328  0.00  0.00    +0.000 NA
ATOM     23  C   UNL     1       5.045   4.821  15.863  0.00  0.00    +0.000 C 
ATOM     24  C   UNL     1       5.169   3.773  14.756  0.00  0.00    +0.000 C 
ATOM     25  C   UNL     1       5.964   4.320  13.566  0.00  0.00    +0.000 C 
ATOM     26  C   UNL     1       6.210   3.226  12.530  0.00  0.00    +0.000 C 
ATOM     27  C   UNL     1       7.287   4.944  14.030  0.00  0.00    +0.000 C 
ATOM     28  C   UNL     1       7.072   5.924  15.189  0.00  0.00    +0.000 C 
ENDBRANCH  21  22
ENDBRANCH  20  21
ENDBRANCH  19  20
ENDBRANCH  18  19
ENDBRANCH   5  18
TORSDOF 6
ENDMDL
MODEL 3
REMARK VINA RESULT:      -7.7      6.891     11.033
REMARK  Name = 
REMARK  8 active torsions:
REMARK  status: ('A' for Active; 'I' for Inactive)
REMARK    1  A    between atoms: C_1  and  C_2
REMARK    2  A    between atoms: C_5  and  C_6
REMARK    3  A    between atoms: C_10  and  O_11
REMARK    4  A    between atoms: O_11  and  C_12
REMARK    5  A    between atoms: C_12  and  C_13
REMARK    6  A    between atoms: C_13  and  C_14
REMARK    7  A    between atoms: C_14  and  N_15
REMARK    8  A    between atoms: C_18  and  C_19
REMARK                            x       y       z     vdW  Elec       q    Type
REMARK                         _______ _______ _______ _____ _____    ______ ____
ROOT
ATOM      1  C   UNL     1       9.366  12.380  21.380  0.00  0.00    +0.000 A 
ATOM      2  N   UNL     1      10.070  13.403  20.850  0.00  0.00    +0.000 NA
ATOM      3  C   UNL     1      10.639  13.212  19.644  0.00  0.00    +0.000 A 
ATOM      4  C   UNL     1      10.496  12.034  18.936  0.00  0.00    +0.000 A 
ATOM      5  C   UNL     1       9.771  11.050  19.578  0.00  0.00    +0.000 A 
ATOM      6  N   UNL     1       9.197  11.184  20.786  0.00  0.00    +0.000 NA
ATOM      7  C   UNL     1      11.126  11.811  17.592  0.00  0.00    +0.000 C 
ATOM      8  C   UNL     1      11.571  13.111  16.924  0.00  0.00    +0.000 C 
ATOM      9  C   UNL     1      12.329  13.977  17.921  0.00  0.00    +0.000 C 
ATOM     10  C   UNL     1      11.409  14.376  19.076  0.00  0.00    +0.000 C 
ENDROOT
BRANCH   1  15
ATOM     11  C   UNL     1       6.908  13.237  26.594  0.00  0.00    +0.000 C 
ATOM     12  C   UNL     1       7.536  13.009  25.251  0.00  0.00    +0.000 A 
ATOM     13  C   UNL     1       7.490  11.756  24.638  0.00  0.00    +0.000 A 
ATOM     14  C   UNL     1       8.082  11.559  23.385  0.00  0.00    +0.000 A 
ATOM     15  C   UNL     1       8.739  12.601  22.701  0.00  0.00    +0.000 A 
ATOM     16  C   UNL     1       8.770  13.856  23.335  0.00  0.00    +0.000 A 
ATOM     17  C   UNL     1       8.178  14.060  24.589  0.00  0.00    +0.000 A 
ENDBRANCH   1  15
BRANCH   5  18
ATOM     18  O   UNL     1       9.717   9.827  18.947  0.00  0.00    +0.000 OA
BRANCH  18  19
ATOM     19  C   UNL     1       8.454   9.530  18.351  0.00  0.00    +0.000 C 
BRANCH  19  20
ATOM     20  C   UNL     1       8.330   8.009  18.384  0.00  0.00    +0.000 C 
BRANCH  20  21
ATOM     21  C   UNL     1       7.343   7.493  17.340  0.00  0.00    +0.000 C 
BRANCH  21  22
ATOM     22  N   UNL     1       7.452   6.041  17.106  0.00  0.00    +0.000 NA
ATOM     23  C   UNL     1       6.664   5.549  15.964  0.00  0.00    +0.000 C 
ATOM     24  C   UNL     1       5.153   5.627  16.185  0.00  0.00    +0.000 C 
ATOM     25  C   UNL     1       4.742   4.879  17.457  0.00  0.00    +0.000 C 
ATOM     26  C   UNL     1       3.258   5.084  17.750  0.00  0.00    +0.000 C 
ATOM     27  C   UNL     1       5.602   5.315  18.651  0.00  0.00    +0.000 C 
ATOM     28  C   UNL     1       7.097   5.275  18.313  0.00  0.00    +0.000 C 
ENDBRANCH  21  22
ENDBRANCH  20  21
ENDBRANCH  19  20
ENDBRANCH  18  19
ENDBRANCH   5  18
TORSDOF 6
ENDMDL
MODEL 4
REMARK VINA RESULT:      -7.7      1.083      1.347
REMARK  Name = 
REMARK  8 active torsions:
REMARK  status: ('A' for Active; 'I' for Inactive)
REMARK    1  A    between atoms: C_1  and  C_2
REMARK    2  A    between atoms: C_5  and  C_6
REMARK    3  A    between atoms: C_10  and  O_11
REMARK    4  A    between atoms: O_11  and  C_12
REMARK    5  A    between atoms: C_12  and  C_13
REMARK    6  A    between atoms: C_13  and  C_14
REMARK    7  A    between atoms: C_14  and  N_15
REMARK    8  A    between atoms: C_18  and  C_19
REMARK                            x       y       z     vdW  Elec       q    Type
REMARK                         _______ _______ _______ _____ _____    ______ ____
ROOT
ATOM      1  C   UNL     1       4.326   4.952  17.294  0.00  0.00    +0.000 A 
ATOM      2  N   UNL     1       4.202   3.828  18.032  0.00  0.00    +0.000 NA
ATOM      3  C   UNL     1       3.363   3.860  19.086  0.00  0.00    +0.000 A 
ATOM      4  C   UNL     1       2.617   4.979  19.405  0.00  0.00    +0.000 A 
ATOM      5  C   UNL     1       2.834   6.076  18.594  0.00  0.00    +0.000 A 
ATOM      6  N   UNL     1       3.670   6.100  17.543  0.00  0.00    +0.000 NA
ATOM      7  C   UNL     1       1.680   5.026  20.576  0.00  0.00    +0.000 C 
ATOM      8  C   UNL     1       1.329   3.638  21.109  0.00  0.00    +0.000 C 
ATOM      9  C   UNL     1       2.593   2.800  21.252  0.00  0.00    +0.000 C 
ATOM     10  C   UNL     1       3.240   2.587  19.882  0.00  0.00    +0.000 C 
ENDROOT
BRANCH   1  15
ATOM     11  C   UNL     1       7.925   4.773  12.715  0.00  0.00    +0.000 C 
ATOM     12  C   UNL     1       6.995   4.812  13.891  0.00  0.00    +0.000 A 
ATOM     13  C   UNL     1       5.760   4.164  13.853  0.00  0.00    +0.000 A 
ATOM     14  C   UNL     1       4.901   4.211  14.958  0.00  0.00    +0.000 A 
ATOM     15  C   UNL     1       5.243   4.904  16.136  0.00  0.00    +0.000 A 
ATOM     16  C   UNL     1       6.494   5.547  16.153  0.00  0.00    +0.000 A 
ATOM     17  C   UNL     1       7.358   5.503  15.051  0.00  0.00    +0.000 A 
ENDBRANCH   1  15
BRANCH   5  18
ATOM     18  O   UNL     1       2.194   7.238  18.965  0.00  0.00    +0.000 OA
BRANCH  18  19
ATOM     19  C   UNL     1       2.556   8.381  18.188  0.00  0.00    +0.000 C 
BRANCH  19  20
ATOM     20  C   UNL     1       1.278   9.202  18.041  0.00  0.00    +0.000 C 
BRANCH  20  21
ATOM     21  C   UNL     1       0.702   9.610  19.395  0.00  0.00    +0.000 C 
BRANCH  21  22
ATOM     22  N   UNL     1       1.051  10.989  19.782  0.00  0.00    +0.000 NA
ATOM     23  C   UNL     1       0.538  11.399  21.099  0.00  0.00    +0.000 C 
ATOM     24  C   UNL     1      -0.985  11.531  21.148  0.00  0.00    +0.000 C 
ATOM     25  C   UNL     1      -1.489  12.500  20.073  0.00  0.00    +0.000 C 
ATOM     26  C   UNL     1      -3.014  12.516  20.031  0.00  0.00    +0.000 C 
ATOM     27  C   UNL     1      -0.906  12.145  18.699  0.00  0.00    +0.000 C 
ATOM     28  C   UNL     1       0.615  11.960  18.763  0.00  0.00    +0.000 C 
ENDBRANCH  21  22
ENDBRANCH  20  21
ENDBRANCH  19  20
ENDBRANCH  18  19
ENDBRANCH   5  18
TORSDOF 6
ENDMDL
MODEL 5
REMARK VINA RESULT:      -7.7      0.915      1.478
REMARK  Name = 
REMARK  8 active torsions:
REMARK  status: ('A' for Active; 'I' for Inactive)
REMARK    1  A    between atoms: C_1  and  C_2
REMARK    2  A    between atoms: C_5  and  C_6
REMARK    3  A    between atoms: C_10  and  O_11
REMARK    4  A    between atoms: O_11  and  C_12
REMARK    5  A    between atoms: C_12  and  C_13
REMARK    6  A    between atoms: C_13  and  C_14
REMARK    7  A    between atoms: C_14  and  N_15
REMARK    8  A    between atoms: C_18  and  C_19
REMARK                            x       y       z     vdW  Elec       q    Type
REMARK                         _______ _______ _______ _____ _____    ______ ____
ROOT
ATOM      1  C   UNL     1       4.260   4.895  17.235  0.00  0.00    +0.000 A 
ATOM      2  N   UNL     1       4.168   3.786  18.000  0.00  0.00    +0.000 NA
ATOM      3  C   UNL     1       3.323   3.818  19.049  0.00  0.00    +0.000 A 
ATOM      4  C   UNL     1       2.539   4.920  19.335  0.00  0.00    +0.000 A 
ATOM      5  C   UNL     1       2.725   6.003  18.499  0.00  0.00    +0.000 A 
ATOM      6  N   UNL     1       3.566   6.027  17.451  0.00  0.00    +0.000 NA
ATOM      7  C   UNL     1       1.595   4.965  20.500  0.00  0.00    +0.000 C 
ATOM      8  C   UNL     1       1.286   3.580  21.066  0.00  0.00    +0.000 C 
ATOM      9  C   UNL     1       2.575   2.787  21.237  0.00  0.00    +0.000 C 
ATOM     10  C   UNL     1       3.237   2.562  19.876  0.00  0.00    +0.000 C 
ENDROOT
BRANCH   1  15
ATOM     11  C   UNL     1       7.890   4.722  12.680  0.00  0.00    +0.000 C 
ATOM     12  C   UNL     1       6.952   4.759  13.849  0.00  0.00    +0.000 A 
ATOM     13  C   UNL     1       5.694   4.159  13.782  0.00  0.00    +0.000 A 
ATOM     14  C   UNL     1       4.828   4.204  14.881  0.00  0.00    +0.000 A 
ATOM     15  C   UNL     1       5.185   4.849  16.082  0.00  0.00    +0.000 A 
ATOM     16  C   UNL     1       6.458   5.445  16.129  0.00  0.00    +0.000 A 
ATOM     17  C   UNL     1       7.329   5.401  15.032  0.00  0.00    +0.000 A 
ENDBRANCH   1  15
BRANCH   5  18
ATOM     18  O   UNL     1       2.046   7.152  18.837  0.00  0.00    +0.000 OA
BRANCH  18  19
ATOM     19  C   UNL     1       2.606   8.347  18.290  0.00  0.00    +0.000 C 
BRANCH  19  20
ATOM     20  C   UNL     1       1.416   9.229  17.921  0.00  0.00    +0.000 C 
BRANCH  20  21
ATOM     21  C   UNL     1       1.468  10.583  18.625  0.00  0.00    +0.000 C 
BRANCH  21  22
ATOM     22  N   UNL     1       0.133  11.145  18.901  0.00  0.00    +0.000 NA
ATOM     23  C   UNL     1       0.115  12.184  19.943  0.00  0.00    +0.000 C 
ATOM     24  C   UNL     1       0.429  11.654  21.343  0.00  0.00    +0.000 C 
ATOM     25  C   UNL     1      -0.526  10.519  21.728  0.00  0.00    +0.000 C 
ATOM     26  C   UNL     1      -0.118   9.897  23.061  0.00  0.00    +0.000 C 
ATOM     27  C   UNL     1      -0.590   9.456  20.623  0.00  0.00    +0.000 C 
ATOM     28  C   UNL     1      -0.833  10.088  19.248  0.00  0.00    +0.000 C 
ENDBRANCH  21  22
ENDBRANCH  20  21
ENDBRANCH  19  20
ENDBRANCH  18  19
ENDBRANCH   5  18
TORSDOF 6
ENDMDL
MODEL 6
REMARK VINA RESULT:      -7.7      1.199      2.033
REMARK  Name = 
REMARK  8 active torsions:
REMARK  status: ('A' for Active; 'I' for Inactive)
REMARK    1  A    between atoms: C_1  and  C_2
REMARK    2  A    between atoms: C_5  and  C_6
REMARK    3  A    between atoms: C_10  and  O_11
REMARK    4  A    between atoms: O_11  and  C_12
REMARK    5  A    between atoms: C_12  and  C_13
REMARK    6  A    between atoms: C_13  and  C_14
REMARK    7  A    between atoms: C_14  and  N_15
REMARK    8  A    between atoms: C_18  and  C_19
REMARK                            x       y       z     vdW  Elec       q    Type
REMARK                         _______ _______ _______ _____ _____    ______ ____
ROOT
ATOM      1  C   UNL     1       4.319   4.932  17.244  0.00  0.00    +0.000 A 
ATOM      2  N   UNL     1       4.165   3.802  17.969  0.00  0.00    +0.000 NA
ATOM      3  C   UNL     1       3.347   3.852  19.039  0.00  0.00    +0.000 A 
ATOM      4  C   UNL     1       2.652   4.995  19.387  0.00  0.00    +0.000 A 
ATOM      5  C   UNL     1       2.897   6.094  18.588  0.00  0.00    +0.000 A 
ATOM      6  N   UNL     1       3.714   6.101  17.522  0.00  0.00    +0.000 NA
ATOM      7  C   UNL     1       1.740   5.061  20.576  0.00  0.00    +0.000 C 
ATOM      8  C   UNL     1       1.344   3.680  21.096  0.00  0.00    +0.000 C 
ATOM      9  C   UNL     1       2.576   2.790  21.203  0.00  0.00    +0.000 C 
ATOM     10  C   UNL     1       3.189   2.573  19.819  0.00  0.00    +0.000 C 
ENDROOT
BRANCH   1  15
ATOM     11  C   UNL     1       7.857   4.661  12.622  0.00  0.00    +0.000 C 
ATOM     12  C   UNL     1       6.950   4.738  13.814  0.00  0.00    +0.000 A 
ATOM     13  C   UNL     1       7.318   5.456  14.952  0.00  0.00    +0.000 A 
ATOM     14  C   UNL     1       6.462   5.517  16.059  0.00  0.00    +0.000 A 
ATOM     15  C   UNL     1       5.213   4.865  16.068  0.00  0.00    +0.000 A 
ATOM     16  C   UNL     1       4.861   4.150  14.909  0.00  0.00    +0.000 A 
ATOM     17  C   UNL     1       5.713   4.086  13.799  0.00  0.00    +0.000 A 
ENDBRANCH   1  15
BRANCH   5  18
ATOM     18  O   UNL     1       2.311   7.275  18.987  0.00  0.00    +0.000 OA
BRANCH  18  19
ATOM     19  C   UNL     1       2.502   8.361  18.080  0.00  0.00    +0.000 C 
BRANCH  19  20
ATOM     20  C   UNL     1       1.214   9.178  18.138  0.00  0.00    +0.000 C 
BRANCH  20  21
ATOM     21  C   UNL     1       0.989   9.793  19.517  0.00  0.00    +0.000 C 
BRANCH  21  22
ATOM     22  N   UNL     1      -0.436   9.982  19.843  0.00  0.00    +0.000 NA
ATOM     23  C   UNL     1      -1.239  10.553  18.750  0.00  0.00    +0.000 C 
ATOM     24  C   UNL     1      -0.888  12.007  18.428  0.00  0.00    +0.000 C 
ATOM     25  C   UNL     1      -1.008  12.891  19.673  0.00  0.00    +0.000 C 
ATOM     26  C   UNL     1      -0.517  14.307  19.381  0.00  0.00    +0.000 C 
ATOM     27  C   UNL     1      -0.245  12.279  20.856  0.00  0.00    +0.000 C 
ATOM     28  C   UNL     1      -0.606  10.803  21.055  0.00  0.00    +0.000 C 
ENDBRANCH  21  22
ENDBRANCH  20  21
ENDBRANCH  19  20
ENDBRANCH  18  19
ENDBRANCH   5  18
TORSDOF 6
ENDMDL
MODEL 7
REMARK VINA RESULT:      -7.6      4.434      7.659
REMARK  Name = 
REMARK  8 active torsions:
REMARK  status: ('A' for Active; 'I' for Inactive)
REMARK    1  A    between atoms: C_1  and  C_2
REMARK    2  A    between atoms: C_5  and  C_6
REMARK    3  A    between atoms: C_10  and  O_11
REMARK    4  A    between atoms: O_11  and  C_12
REMARK    5  A    between atoms: C_12  and  C_13
REMARK    6  A    between atoms: C_13  and  C_14
REMARK    7  A    between atoms: C_14  and  N_15
REMARK    8  A    between atoms: C_18  and  C_19
REMARK                            x       y       z     vdW  Elec       q    Type
REMARK                         _______ _______ _______ _____ _____    ______ ____
ROOT
ATOM      1  C   UNL     1       4.979   4.518  17.062  0.00  0.00    +0.000 A 
ATOM      2  N   UNL     1       4.862   3.920  15.858  0.00  0.00    +0.000 NA
ATOM      3  C   UNL     1       5.732   4.277  14.893  0.00  0.00    +0.000 A 
ATOM      4  C   UNL     1       6.741   5.197  15.111  0.00  0.00    +0.000 A 
ATOM      5  C   UNL     1       6.759   5.758  16.372  0.00  0.00    +0.000 A 
ATOM      6  N   UNL     1       5.905   5.448  17.362  0.00  0.00    +0.000 NA
ATOM      7  C   UNL     1       7.716   5.602  14.045  0.00  0.00    +0.000 C 
ATOM      8  C   UNL     1       7.745   4.628  12.868  0.00  0.00    +0.000 C 
ATOM      9  C   UNL     1       6.324   4.294  12.432  0.00  0.00    +0.000 C 
ATOM     10  C   UNL     1       5.581   3.584  13.565  0.00  0.00    +0.000 C 
ENDROOT
BRANCH   1  15
ATOM     11  C   UNL     1       1.223   2.904  21.214  0.00  0.00    +0.000 C 
ATOM     12  C   UNL     1       2.184   3.316  20.140  0.00  0.00    +0.000 A 
ATOM     13  C   UNL     1       2.206   2.666  18.905  0.00  0.00    +0.000 A 
ATOM     14  C   UNL     1       3.111   3.060  17.912  0.00  0.00    +0.000 A 
ATOM     15  C   UNL     1       4.024   4.114  18.116  0.00  0.00    +0.000 A 
ATOM     16  C   UNL     1       3.983   4.757  19.366  0.00  0.00    +0.000 A 
ATOM     17  C   UNL     1       3.078   4.367  20.363  0.00  0.00    +0.000 A 
ENDBRANCH   1  15
BRANCH   5  18
ATOM     18  O   UNL     1       7.678   6.763  16.575  0.00  0.00    +0.000 OA
BRANCH  18  19
ATOM     19  C   UNL     1       7.193   7.852  17.362  0.00  0.00    +0.000 C 
BRANCH  19  20
ATOM     20  C   UNL     1       8.390   8.340  18.173  0.00  0.00    +0.000 C 
BRANCH  20  21
ATOM     21  C   UNL     1       8.430   9.864  18.272  0.00  0.00    +0.000 C 
BRANCH  21  22
ATOM     22  N   UNL     1       9.710  10.378  18.796  0.00  0.00    +0.000 NA
ATOM     23  C   UNL     1       9.613  11.009  20.121  0.00  0.00    +0.000 C 
ATOM     24  C   UNL     1       8.829  12.323  20.118  0.00  0.00    +0.000 C 
ATOM     25  C   UNL     1       9.423  13.316  19.113  0.00  0.00    +0.000 C 
ATOM     26  C   UNL     1       8.552  14.565  19.008  0.00  0.00    +0.000 C 
ATOM     27  C   UNL     1       9.609  12.660  17.738  0.00  0.00    +0.000 C 
ATOM     28  C   UNL     1      10.338  11.316  17.850  0.00  0.00    +0.000 C 
ENDBRANCH  21  22
ENDBRANCH  20  21
ENDBRANCH  19  20
ENDBRANCH  18  19
ENDBRANCH   5  18
TORSDOF 6
ENDMDL
MODEL 8
REMARK VINA RESULT:      -7.6      1.086      1.609
REMARK  Name = 
REMARK  8 active torsions:
REMARK  status: ('A' for Active; 'I' for Inactive)
REMARK    1  A    between atoms: C_1  and  C_2
REMARK    2  A    between atoms: C_5  and  C_6
REMARK    3  A    between atoms: C_10  and  O_11
REMARK    4  A    between atoms: O_11  and  C_12
REMARK    5  A    between atoms: C_12  and  C_13
REMARK    6  A    between atoms: C_13  and  C_14
REMARK    7  A    between atoms: C_14  and  N_15
REMARK    8  A    between atoms: C_18  and  C_19
REMARK                            x       y       z     vdW  Elec       q    Type
REMARK                         _______ _______ _______ _____ _____    ______ ____
ROOT
ATOM      1  C   UNL     1       4.296   4.962  17.273  0.00  0.00    +0.000 A 
ATOM      2  N   UNL     1       4.115   3.819  17.970  0.00  0.00    +0.000 NA
ATOM      3  C   UNL     1       3.284   3.857  19.030  0.00  0.00    +0.000 A 
ATOM      4  C   UNL     1       2.600   5.002  19.393  0.00  0.00    +0.000 A 
ATOM      5  C   UNL     1       2.872   6.115  18.623  0.00  0.00    +0.000 A 
ATOM      6  N   UNL     1       3.704   6.133  17.568  0.00  0.00    +0.000 NA
ATOM      7  C   UNL     1       1.672   5.056  20.571  0.00  0.00    +0.000 C 
ATOM      8  C   UNL     1       1.249   3.670  21.055  0.00  0.00    +0.000 C 
ATOM      9  C   UNL     1       2.467   2.760  21.159  0.00  0.00    +0.000 C 
ATOM     10  C   UNL     1       3.096   2.564  19.779  0.00  0.00    +0.000 C 
ENDROOT
BRANCH   1  15
ATOM     11  C   UNL     1       7.894   4.741  12.695  0.00  0.00    +0.000 C 
ATOM     12  C   UNL     1       6.972   4.805  13.875  0.00  0.00    +0.000 A 
ATOM     13  C   UNL     1       7.304   5.548  15.009  0.00  0.00    +0.000 A 
ATOM     14  C   UNL     1       6.434   5.598  16.105  0.00  0.00    +0.000 A 
ATOM     15  C   UNL     1       5.205   4.908  16.108  0.00  0.00    +0.000 A 
ATOM     16  C   UNL     1       4.888   4.168  14.954  0.00  0.00    +0.000 A 
ATOM     17  C   UNL     1       5.755   4.116  13.855  0.00  0.00    +0.000 A 
ENDBRANCH   1  15
BRANCH   5  18
ATOM     18  O   UNL     1       2.297   7.295  19.039  0.00  0.00    +0.000 OA
BRANCH  18  19
ATOM     19  C   UNL     1       2.501   8.393  18.149  0.00  0.00    +0.000 C 
BRANCH  19  20
ATOM     20  C   UNL     1       1.151   9.099  18.049  0.00  0.00    +0.000 C 
BRANCH  20  21
ATOM     21  C   UNL     1       0.824   9.891  19.313  0.00  0.00    +0.000 C 
BRANCH  21  22
ATOM     22  N   UNL     1       0.786  11.348  19.091  0.00  0.00    +0.000 NA
ATOM     23  C   UNL     1       1.186  12.151  20.258  0.00  0.00    +0.000 C 
ATOM     24  C   UNL     1       0.196  12.075  21.422  0.00  0.00    +0.000 C 
ATOM     25  C   UNL     1      -1.212  12.481  20.973  0.00  0.00    +0.000 C 
ATOM     26  C   UNL     1      -2.222  12.263  22.098  0.00  0.00    +0.000 C 
ATOM     27  C   UNL     1      -1.627  11.716  19.709  0.00  0.00    +0.000 C 
ATOM     28  C   UNL     1      -0.542  11.786  18.628  0.00  0.00    +0.000 C 
ENDBRANCH  21  22
ENDBRANCH  20  21
ENDBRANCH  19  20
ENDBRANCH  18  19
ENDBRANCH   5  18
TORSDOF 6
ENDMDL
MODEL 9
REMARK VINA RESULT:      -7.6      1.211      1.794
REMARK  Name = 
REMARK  8 active torsions:
REMARK  status: ('A' for Active; 'I' for Inactive)
REMARK    1  A    between atoms: C_1  and  C_2
REMARK    2  A    between atoms: C_5  and  C_6
REMARK    3  A    between atoms: C_10  and  O_11
REMARK    4  A    between atoms: O_11  and  C_12
REMARK    5  A    between atoms: C_12  and  C_13
REMARK    6  A    between atoms: C_13  and  C_14
REMARK    7  A    between atoms: C_14  and  N_15
REMARK    8  A    between atoms: C_18  and  C_19
REMARK                            x       y       z     vdW  Elec       q    Type
REMARK                         _______ _______ _______ _____ _____    ______ ____
ROOT
ATOM      1  C   UNL     1       4.355   4.955  17.237  0.00  0.00    +0.000 A 
ATOM      2  N   UNL     1       4.162   3.829  17.957  0.00  0.00    +0.000 NA
ATOM      3  C   UNL     1       3.356   3.904  19.034  0.00  0.00    +0.000 A 
ATOM      4  C   UNL     1       2.708   5.072  19.393  0.00  0.00    +0.000 A 
ATOM      5  C   UNL     1       2.990   6.165  18.598  0.00  0.00    +0.000 A 
ATOM      6  N   UNL     1       3.797   6.145  17.525  0.00  0.00    +0.000 NA
ATOM      7  C   UNL     1       1.809   5.167  20.590  0.00  0.00    +0.000 C 
ATOM      8  C   UNL     1       1.364   3.800  21.107  0.00  0.00    +0.000 C 
ATOM      9  C   UNL     1       2.562   2.863  21.200  0.00  0.00    +0.000 C 
ATOM     10  C   UNL     1       3.154   2.629  19.810  0.00  0.00    +0.000 C 
ENDROOT
BRANCH   1  15
ATOM     11  C   UNL     1       7.809   4.590  12.558  0.00  0.00    +0.000 C 
ATOM     12  C   UNL     1       6.916   4.677  13.760  0.00  0.00    +0.000 A 
ATOM     13  C   UNL     1       5.659   4.070  13.768  0.00  0.00    +0.000 A 
ATOM     14  C   UNL     1       4.835   4.161  14.896  0.00  0.00    +0.000 A 
ATOM     15  C   UNL     1       5.235   4.860  16.053  0.00  0.00    +0.000 A 
ATOM     16  C   UNL     1       6.507   5.461  16.025  0.00  0.00    +0.000 A 
ATOM     17  C   UNL     1       7.336   5.372  14.898  0.00  0.00    +0.000 A 
ENDBRANCH   1  15
BRANCH   5  18
ATOM     18  O   UNL     1       2.452   7.365  19.007  0.00  0.00    +0.000 OA
BRANCH  18  19
ATOM     19  C   UNL     1       1.686   8.036  18.007  0.00  0.00    +0.000 C 
BRANCH  19  20
ATOM     20  C   UNL     1       2.215   9.467  17.972  0.00  0.00    +0.000 C 
BRANCH  20  21
ATOM     21  C   UNL     1       1.303  10.433  18.724  0.00  0.00    +0.000 C 
BRANCH  21  22
ATOM     22  N   UNL     1      -0.044   9.885  18.971  0.00  0.00    +0.000 NA
ATOM     23  C   UNL     1      -1.107  10.497  18.157  0.00  0.00    +0.000 C 
ATOM     24  C   UNL     1      -1.389  11.957  18.515  0.00  0.00    +0.000 C 
ATOM     25  C   UNL     1      -1.729  12.103  20.002  0.00  0.00    +0.000 C 
ATOM     26  C   UNL     1      -1.865  13.574  20.384  0.00  0.00    +0.000 C 
ATOM     27  C   UNL     1      -0.677  11.404  20.876  0.00  0.00    +0.000 C 
ATOM     28  C   UNL     1      -0.407   9.974  20.396  0.00  0.00    +0.000 C 
ENDBRANCH  21  22
ENDBRANCH  20  21
ENDBRANCH  19  20
ENDBRANCH  18  19
ENDBRANCH   5  18
TORSDOF 6
ENDMDL
