MODEL 1
REMARK VINA RESULT:      -8.0      0.000      0.000
REMARK  Name = 
REMARK  7 active torsions:
REMARK  status: ('A' for Active; 'I' for Inactive)
REMARK    1  A    between atoms: C_1  and  C_2
REMARK    2  A    between atoms: C_2  and  O_3
REMARK    3  A    between atoms: O_3  and  C_4
REMARK    4  A    between atoms: C_4  and  C_6
REMARK    5  A    between atoms: C_11  and  C_13
REMARK    6  A    between atoms: C_16  and  N_17
REMARK    7  A    between atoms: C_18  and  C_20
REMARK                            x       y       z     vdW  Elec       q    Type
REMARK                         _______ _______ _______ _____ _____    ______ ____
ROOT
ATOM      1  C   UNL     1      -0.293  10.377  21.791  0.00  0.00    +0.000 A 
ATOM      2  C   UNL     1      -0.335  10.442  20.386  0.00  0.00    +0.000 A 
ATOM      3  C   UNL     1       0.468   9.591  19.559  0.00  0.00    +0.000 A 
ATOM      4  C   UNL     1       1.321   8.649  20.123  0.00  0.00    +0.000 A 
ATOM      5  C   UNL     1       1.371   8.606  21.528  0.00  0.00    +0.000 A 
ATOM      6  C   UNL     1       0.609   9.476  22.345  0.00  0.00    +0.000 A 
ENDROOT
BRANCH   1  12
ATOM      7  C   UNL     1      -3.130  14.297  22.141  0.00  0.00    +0.000 C 
ATOM      8  C   UNL     1      -2.452  14.887  20.886  0.00  0.00    +0.000 C 
ATOM      9  C   UNL     1      -1.373  13.975  20.289  0.00  0.00    +0.000 C 
ATOM     10  C   UNL     1      -0.412  13.494  21.372  0.00  0.00    +0.000 C 
ATOM     11  N   UNL     1      -1.181  12.746  22.359  0.00  0.00    +0.000 N 
ATOM     12  C   UNL     1      -1.134  11.358  22.610  0.00  0.00    +0.000 C 
ATOM     13  O   UNL     1      -1.794  10.878  23.537  0.00  0.00    +0.000 OA
ATOM     14  C   UNL     1      -2.141  13.599  23.088  0.00  0.00    +0.000 C 
BRANCH   7  15
ATOM     15  C   UNL     1      -4.299  13.385  21.803  0.00  0.00    +0.000 C 
ATOM     16  O   UNL     1      -4.755  12.524  22.543  0.00  0.00    +0.000 OA
BRANCH  15  17
ATOM     17  O   UNL     1      -4.663  13.578  20.501  0.00  0.00    +0.000 OA
BRANCH  17  19
ATOM     18  C   UNL     1      -4.488  11.935  18.712  0.00  0.00    +0.000 C 
ATOM     19  C   UNL     1      -5.331  12.491  19.843  0.00  0.00    +0.000 C 
ENDBRANCH  17  19
ENDBRANCH  15  17
ENDBRANCH   7  15
ENDBRANCH   1  12
BRANCH   4  20
ATOM     20  N   UNL     1       2.145   7.729  19.409  0.00  0.00    +0.000 N 
ATOM     21  C   UNL     1       2.662   7.734  18.105  0.00  0.00    +0.000 C 
ATOM     22  O   UNL     1       2.519   8.632  17.284  0.00  0.00    +0.000 OA
ATOM     23  H   UNL     1       2.423   6.894  19.926  0.00  0.00    +0.000 HD
BRANCH  21  24
ATOM     24  C   UNL     1       3.430   6.468  17.786  0.00  0.00    +0.000 A 
ATOM     25  N   UNL     1       4.721   6.635  17.438  0.00  0.00    +0.000 NA
ATOM     26  S   UNL     1       5.458   5.184  17.233  0.00  0.00    +0.000 S 
ATOM     27  C   UNL     1       4.095   4.205  17.572  0.00  0.00    +0.000 A 
ATOM     28  C   UNL     1       4.032   2.799  17.609  0.00  0.00    +0.000 A 
ATOM     29  C   UNL     1       2.809   2.183  17.861  0.00  0.00    +0.000 A 
ATOM     30  C   UNL     1       1.678   2.971  18.060  0.00  0.00    +0.000 A 
ATOM     31  C   UNL     1       1.757   4.378  18.048  0.00  0.00    +0.000 A 
ATOM     32  C   UNL     1       2.997   5.048  17.816  0.00  0.00    +0.000 A 
ENDBRANCH  21  24
ENDBRANCH   4  20
TORSDOF 6
ENDMDL
MODEL 2
REMARK VINA RESULT:      -8.0      1.074      1.346
REMARK  Name = 
REMARK  7 active torsions:
REMARK  status: ('A' for Active; 'I' for Inactive)
REMARK    1  A    between atoms: C_1  and  C_2
REMARK    2  A    between atoms: C_2  and  O_3
REMARK    3  A    between atoms: O_3  and  C_4
REMARK    4  A    between atoms: C_4  and  C_6
REMARK    5  A    between atoms: C_11  and  C_13
REMARK    6  A    between atoms: C_16  and  N_17
REMARK    7  A    between atoms: C_18  and  C_20
REMARK                            x       y       z     vdW  Elec       q    Type
REMARK                         _______ _______ _______ _____ _____    ______ ____
ROOT
ATOM      1  C   UNL     1      -0.306  10.557  21.863  0.00  0.00    +0.000 A 
ATOM      2  C   UNL     1      -0.303  10.660  20.459  0.00  0.00    +0.000 A 
ATOM      3  C   UNL     1       0.475   9.787  19.632  0.00  0.00    +0.000 A 
ATOM      4  C   UNL     1       1.257   8.784  20.193  0.00  0.00    +0.000 A 
ATOM      5  C   UNL     1       1.263   8.702  21.597  0.00  0.00    +0.000 A 
ATOM      6  C   UNL     1       0.527   9.592  22.417  0.00  0.00    +0.000 A 
ENDROOT
BRANCH   1  12
ATOM      7  C   UNL     1      -2.494  14.855  22.382  0.00  0.00    +0.000 C 
ATOM      8  C   UNL     1      -1.514  15.466  21.358  0.00  0.00    +0.000 C 
ATOM      9  C   UNL     1      -0.504  14.455  20.801  0.00  0.00    +0.000 C 
ATOM     10  C   UNL     1       0.154  13.669  21.931  0.00  0.00    +0.000 C 
ATOM     11  N   UNL     1      -0.892  12.956  22.654  0.00  0.00    +0.000 N 
ATOM     12  C   UNL     1      -1.114  11.562  22.685  0.00  0.00    +0.000 C 
ATOM     13  O   UNL     1      -2.000  11.097  23.408  0.00  0.00    +0.000 OA
ATOM     14  C   UNL     1      -1.819  13.870  23.349  0.00  0.00    +0.000 C 
BRANCH   7  15
ATOM     15  C   UNL     1      -3.713  14.226  21.724  0.00  0.00    +0.000 C 
ATOM     16  O   UNL     1      -3.697  13.583  20.684  0.00  0.00    +0.000 OA
BRANCH  15  17
ATOM     17  O   UNL     1      -4.839  14.613  22.393  0.00  0.00    +0.000 OA
BRANCH  17  19
ATOM     18  C   UNL     1      -5.521  12.899  23.983  0.00  0.00    +0.000 C 
ATOM     19  C   UNL     1      -5.815  13.597  22.670  0.00  0.00    +0.000 C 
ENDBRANCH  17  19
ENDBRANCH  15  17
ENDBRANCH   7  15
ENDBRANCH   1  12
BRANCH   4  20
ATOM     20  N   UNL     1       2.049   7.837  19.477  0.00  0.00    +0.000 N 
ATOM     21  C   UNL     1       2.551   7.819  18.168  0.00  0.00    +0.000 C 
ATOM     22  O   UNL     1       2.423   8.715  17.342  0.00  0.00    +0.000 OA
ATOM     23  H   UNL     1       2.310   6.998  19.997  0.00  0.00    +0.000 HD
BRANCH  21  24
ATOM     24  C   UNL     1       3.282   6.531  17.850  0.00  0.00    +0.000 A 
ATOM     25  N   UNL     1       4.572   6.662  17.482  0.00  0.00    +0.000 NA
ATOM     26  S   UNL     1       5.268   5.191  17.280  0.00  0.00    +0.000 S 
ATOM     27  C   UNL     1       3.886   4.250  17.648  0.00  0.00    +0.000 A 
ATOM     28  C   UNL     1       3.788   2.846  17.699  0.00  0.00    +0.000 A 
ATOM     29  C   UNL     1       2.553   2.264  17.975  0.00  0.00    +0.000 A 
ATOM     30  C   UNL     1       1.446   3.083  18.183  0.00  0.00    +0.000 A 
ATOM     31  C   UNL     1       1.560   4.487  18.156  0.00  0.00    +0.000 A 
ATOM     32  C   UNL     1       2.813   5.123  17.900  0.00  0.00    +0.000 A 
ENDBRANCH  21  24
ENDBRANCH   4  20
TORSDOF 6
ENDMDL
MODEL 3
REMARK VINA RESULT:      -7.9      1.850      2.314
REMARK  Name = 
REMARK  7 active torsions:
REMARK  status: ('A' for Active; 'I' for Inactive)
REMARK    1  A    between atoms: C_1  and  C_2
REMARK    2  A    between atoms: C_2  and  O_3
REMARK    3  A    between atoms: O_3  and  C_4
REMARK    4  A    between atoms: C_4  and  C_6
REMARK    5  A    between atoms: C_11  and  C_13
REMARK    6  A    between atoms: C_16  and  N_17
REMARK    7  A    between atoms: C_18  and  C_20
REMARK                            x       y       z     vdW  Elec       q    Type
REMARK                         _______ _______ _______ _____ _____    ______ ____
ROOT
ATOM      1  C   UNL     1      -0.333  11.208  21.644  0.00  0.00    +0.000 A 
ATOM      2  C   UNL     1       0.321  11.323  20.404  0.00  0.00    +0.000 A 
ATOM      3  C   UNL     1       1.050  10.235  19.822  0.00  0.00    +0.000 A 
ATOM      4  C   UNL     1       1.127   9.005  20.466  0.00  0.00    +0.000 A 
ATOM      5  C   UNL     1       0.488   8.907  21.715  0.00  0.00    +0.000 A 
ATOM      6  C   UNL     1      -0.197   9.995  22.309  0.00  0.00    +0.000 A 
ENDROOT
BRANCH   1  12
ATOM      7  C   UNL     1      -4.272  13.978  22.227  0.00  0.00    +0.000 C 
ATOM      8  C   UNL     1      -4.802  13.493  20.860  0.00  0.00    +0.000 C 
ATOM      9  C   UNL     1      -3.872  12.493  20.164  0.00  0.00    +0.000 C 
ATOM     10  C   UNL     1      -2.436  13.011  20.150  0.00  0.00    +0.000 C 
ATOM     11  N   UNL     1      -2.005  13.186  21.532  0.00  0.00    +0.000 N 
ATOM     12  C   UNL     1      -1.041  12.430  22.232  0.00  0.00    +0.000 C 
ATOM     13  O   UNL     1      -0.727  12.749  23.383  0.00  0.00    +0.000 OA
ATOM     14  C   UNL     1      -2.760  14.249  22.225  0.00  0.00    +0.000 C 
BRANCH   7  15
ATOM     15  C   UNL     1      -4.660  13.051  23.369  0.00  0.00    +0.000 C 
ATOM     16  O   UNL     1      -3.936  12.752  24.307  0.00  0.00    +0.000 OA
BRANCH  15  17
ATOM     17  O   UNL     1      -5.880  12.495  23.107  0.00  0.00    +0.000 OA
BRANCH  17  19
ATOM     18  C   UNL     1      -7.865  13.652  23.916  0.00  0.00    +0.000 C 
ATOM     19  C   UNL     1      -6.858  12.545  24.157  0.00  0.00    +0.000 C 
ENDBRANCH  17  19
ENDBRANCH  15  17
ENDBRANCH   7  15
ENDBRANCH   1  12
BRANCH   4  20
ATOM     20  N   UNL     1       1.795   7.843  19.978  0.00  0.00    +0.000 N 
ATOM     21  C   UNL     1       2.396   7.542  18.747  0.00  0.00    +0.000 C 
ATOM     22  O   UNL     1       2.503   8.310  17.798  0.00  0.00    +0.000 OA
ATOM     23  H   UNL     1       1.855   7.061  20.632  0.00  0.00    +0.000 HD
BRANCH  21  24
ATOM     24  C   UNL     1       2.908   6.118  18.689  0.00  0.00    +0.000 A 
ATOM     25  N   UNL     1       3.684   5.813  17.631  0.00  0.00    +0.000 NA
ATOM     26  S   UNL     1       4.258   4.282  17.755  0.00  0.00    +0.000 S 
ATOM     27  C   UNL     1       3.493   3.888  19.235  0.00  0.00    +0.000 A 
ATOM     28  C   UNL     1       3.590   2.686  19.962  0.00  0.00    +0.000 A 
ATOM     29  C   UNL     1       2.847   2.541  21.131  0.00  0.00    +0.000 A 
ATOM     30  C   UNL     1       2.020   3.582  21.545  0.00  0.00    +0.000 A 
ATOM     31  C   UNL     1       1.950   4.791  20.825  0.00  0.00    +0.000 A 
ATOM     32  C   UNL     1       2.714   4.988  19.634  0.00  0.00    +0.000 A 
ENDBRANCH  21  24
ENDBRANCH   4  20
TORSDOF 6
ENDMDL
MODEL 4
REMARK VINA RESULT:      -7.9      4.004      9.944
REMARK  Name = 
REMARK  7 active torsions:
REMARK  status: ('A' for Active; 'I' for Inactive)
REMARK    1  A    between atoms: C_1  and  C_2
REMARK    2  A    between atoms: C_2  and  O_3
REMARK    3  A    between atoms: O_3  and  C_4
REMARK    4  A    between atoms: C_4  and  C_6
REMARK    5  A    between atoms: C_11  and  C_13
REMARK    6  A    between atoms: C_16  and  N_17
REMARK    7  A    between atoms: C_18  and  C_20
REMARK                            x       y       z     vdW  Elec       q    Type
REMARK                         _______ _______ _______ _____ _____    ______ ____
ROOT
ATOM      1  C   UNL     1       1.727   6.404  20.415  0.00  0.00    +0.000 A 
ATOM      2  C   UNL     1       2.267   6.982  19.251  0.00  0.00    +0.000 A 
ATOM      3  C   UNL     1       2.062   8.360  18.919  0.00  0.00    +0.000 A 
ATOM      4  C   UNL     1       1.321   9.191  19.753  0.00  0.00    +0.000 A 
ATOM      5  C   UNL     1       0.769   8.599  20.902  0.00  0.00    +0.000 A 
ATOM      6  C   UNL     1       0.937   7.227  21.209  0.00  0.00    +0.000 A 
ENDROOT
BRANCH   1  12
ATOM      7  C   UNL     1       3.133   1.988  18.983  0.00  0.00    +0.000 C 
ATOM      8  C   UNL     1       2.817   2.372  17.522  0.00  0.00    +0.000 C 
ATOM      9  C   UNL     1       2.297   3.806  17.367  0.00  0.00    +0.000 C 
ATOM     10  C   UNL     1       1.174   4.084  18.362  0.00  0.00    +0.000 C 
ATOM     11  N   UNL     1       1.708   3.909  19.707  0.00  0.00    +0.000 N 
ATOM     12  C   UNL     1       1.938   4.911  20.674  0.00  0.00    +0.000 C 
ATOM     13  O   UNL     1       2.326   4.597  21.804  0.00  0.00    +0.000 OA
ATOM     14  C   UNL     1       2.090   2.511  19.983  0.00  0.00    +0.000 C 
BRANCH   7  15
ATOM     15  C   UNL     1       4.540   2.384  19.403  0.00  0.00    +0.000 C 
ATOM     16  O   UNL     1       5.138   1.933  20.371  0.00  0.00    +0.000 OA
BRANCH  15  17
ATOM     17  O   UNL     1       4.972   3.419  18.624  0.00  0.00    +0.000 OA
BRANCH  17  19
ATOM     18  C   UNL     1       6.080   5.573  18.377  0.00  0.00    +0.000 C 
ATOM     19  C   UNL     1       5.312   4.642  19.294  0.00  0.00    +0.000 C 
ENDBRANCH  17  19
ENDBRANCH  15  17
ENDBRANCH   7  15
ENDBRANCH   1  12
BRANCH   4  20
ATOM     20  N   UNL     1       1.072  10.581  19.547  0.00  0.00    +0.000 N 
ATOM     21  C   UNL     1       0.104  11.270  18.802  0.00  0.00    +0.000 C 
ATOM     22  O   UNL     1      -0.811  10.756  18.171  0.00  0.00    +0.000 OA
ATOM     23  H   UNL     1       1.715  11.219  20.020  0.00  0.00    +0.000 HD
BRANCH  21  24
ATOM     24  C   UNL     1       0.312  12.770  18.837  0.00  0.00    +0.000 A 
ATOM     25  N   UNL     1      -0.772  13.508  19.149  0.00  0.00    +0.000 NA
ATOM     26  S   UNL     1      -0.378  15.096  19.262  0.00  0.00    +0.000 S 
ATOM     27  C   UNL     1       1.282  14.931  18.878  0.00  0.00    +0.000 A 
ATOM     28  C   UNL     1       2.259  15.943  18.827  0.00  0.00    +0.000 A 
ATOM     29  C   UNL     1       3.557  15.612  18.447  0.00  0.00    +0.000 A 
ATOM     30  C   UNL     1       3.853  14.292  18.116  0.00  0.00    +0.000 A 
ATOM     31  C   UNL     1       2.875  13.282  18.196  0.00  0.00    +0.000 A 
ATOM     32  C   UNL     1       1.538  13.576  18.605  0.00  0.00    +0.000 A 
ENDBRANCH  21  24
ENDBRANCH   4  20
TORSDOF 6
ENDMDL
MODEL 5
REMARK VINA RESULT:      -7.9      3.276     10.418
REMARK  Name = 
REMARK  7 active torsions:
REMARK  status: ('A' for Active; 'I' for Inactive)
REMARK    1  A    between atoms: C_1  and  C_2
REMARK    2  A    between atoms: C_2  and  O_3
REMARK    3  A    between atoms: O_3  and  C_4
REMARK    4  A    between atoms: C_4  and  C_6
REMARK    5  A    between atoms: C_11  and  C_13
REMARK    6  A    between atoms: C_16  and  N_17
REMARK    7  A    between atoms: C_18  and  C_20
REMARK                            x       y       z     vdW  Elec       q    Type
REMARK                         _______ _______ _______ _____ _____    ______ ____
ROOT
ATOM      1  C   UNL     1       2.240   7.177  20.074  0.00  0.00    +0.000 A 
ATOM      2  C   UNL     1       2.024   8.132  19.063  0.00  0.00    +0.000 A 
ATOM      3  C   UNL     1       1.114   9.226  19.229  0.00  0.00    +0.000 A 
ATOM      4  C   UNL     1       0.411   9.393  20.417  0.00  0.00    +0.000 A 
ATOM      5  C   UNL     1       0.618   8.422  21.413  0.00  0.00    +0.000 A 
ATOM      6  C   UNL     1       1.485   7.317  21.233  0.00  0.00    +0.000 A 
ENDROOT
BRANCH   1  12
ATOM      7  C   UNL     1       3.038   2.545  18.877  0.00  0.00    +0.000 C 
ATOM      8  C   UNL     1       1.650   2.171  19.442  0.00  0.00    +0.000 C 
ATOM      9  C   UNL     1       0.875   3.370  19.999  0.00  0.00    +0.000 C 
ATOM     10  C   UNL     1       1.752   4.192  20.940  0.00  0.00    +0.000 C 
ATOM     11  N   UNL     1       2.901   4.672  20.182  0.00  0.00    +0.000 N 
ATOM     12  C   UNL     1       3.182   6.002  19.804  0.00  0.00    +0.000 C 
ATOM     13  O   UNL     1       4.241   6.266  19.225  0.00  0.00    +0.000 OA
ATOM     14  C   UNL     1       3.783   3.574  19.741  0.00  0.00    +0.000 C 
BRANCH   7  15
ATOM     15  C   UNL     1       2.979   2.991  17.424  0.00  0.00    +0.000 C 
ATOM     16  O   UNL     1       1.951   3.212  16.798  0.00  0.00    +0.000 OA
BRANCH  15  17
ATOM     17  O   UNL     1       4.236   2.965  16.890  0.00  0.00    +0.000 OA
BRANCH  17  19
ATOM     18  C   UNL     1       5.927   3.940  15.434  0.00  0.00    +0.000 C 
ATOM     19  C   UNL     1       4.732   4.191  16.332  0.00  0.00    +0.000 C 
ENDBRANCH  17  19
ENDBRANCH  15  17
ENDBRANCH   7  15
ENDBRANCH   1  12
BRANCH   4  20
ATOM     20  N   UNL     1      -0.498  10.453  20.712  0.00  0.00    +0.000 N 
ATOM     21  C   UNL     1      -0.775  11.163  21.889  0.00  0.00    +0.000 C 
ATOM     22  O   UNL     1      -0.204  11.017  22.962  0.00  0.00    +0.000 OA
ATOM     23  H   UNL     1      -1.073  10.770  19.930  0.00  0.00    +0.000 HD
BRANCH  21  24
ATOM     24  C   UNL     1      -1.902  12.159  21.707  0.00  0.00    +0.000 A 
ATOM     25  N   UNL     1      -1.910  12.833  20.540  0.00  0.00    +0.000 NA
ATOM     26  S   UNL     1      -3.240  13.786  20.431  0.00  0.00    +0.000 S 
ATOM     27  C   UNL     1      -3.909  13.392  21.957  0.00  0.00    +0.000 A 
ATOM     28  C   UNL     1      -5.118  13.852  22.512  0.00  0.00    +0.000 A 
ATOM     29  C   UNL     1      -5.469  13.448  23.798  0.00  0.00    +0.000 A 
ATOM     30  C   UNL     1      -4.611  12.609  24.506  0.00  0.00    +0.000 A 
ATOM     31  C   UNL     1      -3.416  12.133  23.931  0.00  0.00    +0.000 A 
ATOM     32  C   UNL     1      -3.032  12.506  22.606  0.00  0.00    +0.000 A 
ENDBRANCH  21  24
ENDBRANCH   4  20
TORSDOF 6
ENDMDL
MODEL 6
REMARK VINA RESULT:      -7.8      1.308      2.086
REMARK  Name = 
REMARK  7 active torsions:
REMARK  status: ('A' for Active; 'I' for Inactive)
REMARK    1  A    between atoms: C_1  and  C_2
REMARK    2  A    between atoms: C_2  and  O_3
REMARK    3  A    between atoms: O_3  and  C_4
REMARK    4  A    between atoms: C_4  and  C_6
REMARK    5  A    between atoms: C_11  and  C_13
REMARK    6  A    between atoms: C_16  and  N_17
REMARK    7  A    between atoms: C_18  and  C_20
REMARK                            x       y       z     vdW  Elec       q    Type
REMARK                         _______ _______ _______ _____ _____    ______ ____
ROOT
ATOM      1  C   UNL     1      -0.158  11.202  21.188  0.00  0.00    +0.000 A 
ATOM      2  C   UNL     1      -0.205   9.922  21.769  0.00  0.00    +0.000 A 
ATOM      3  C   UNL     1       0.499   8.805  21.214  0.00  0.00    +0.000 A 
ATOM      4  C   UNL     1       1.276   8.951  20.070  0.00  0.00    +0.000 A 
ATOM      5  C   UNL     1       1.301  10.230  19.485  0.00  0.00    +0.000 A 
ATOM      6  C   UNL     1       0.571  11.324  20.010  0.00  0.00    +0.000 A 
ENDROOT
BRANCH   1  12
ATOM      7  C   UNL     1      -4.325  13.624  21.732  0.00  0.00    +0.000 C 
ATOM      8  C   UNL     1      -4.761  13.171  20.322  0.00  0.00    +0.000 C 
ATOM      9  C   UNL     1      -3.726  12.283  19.620  0.00  0.00    +0.000 C 
ATOM     10  C   UNL     1      -2.337  12.910  19.693  0.00  0.00    +0.000 C 
ATOM     11  N   UNL     1      -1.977  13.048  21.099  0.00  0.00    +0.000 N 
ATOM     12  C   UNL     1      -0.984  12.333  21.803  0.00  0.00    +0.000 C 
ATOM     13  O   UNL     1      -0.741  12.616  22.980  0.00  0.00    +0.000 OA
ATOM     14  C   UNL     1      -2.841  14.011  21.809  0.00  0.00    +0.000 C 
BRANCH   7  15
ATOM     15  C   UNL     1      -4.683  12.612  22.810  0.00  0.00    +0.000 C 
ATOM     16  O   UNL     1      -3.875  11.997  23.492  0.00  0.00    +0.000 OA
BRANCH  15  17
ATOM     17  O   UNL     1      -6.030  12.393  22.797  0.00  0.00    +0.000 OA
BRANCH  17  19
ATOM     18  C   UNL     1      -7.398  13.912  24.122  0.00  0.00    +0.000 C 
ATOM     19  C   UNL     1      -6.729  12.554  24.041  0.00  0.00    +0.000 C 
ENDBRANCH  17  19
ENDBRANCH  15  17
ENDBRANCH   7  15
ENDBRANCH   1  12
BRANCH   4  20
ATOM     20  N   UNL     1       2.044   7.927  19.441  0.00  0.00    +0.000 N 
ATOM     21  C   UNL     1       2.580   7.800  18.151  0.00  0.00    +0.000 C 
ATOM     22  O   UNL     1       2.515   8.644  17.265  0.00  0.00    +0.000 OA
ATOM     23  H   UNL     1       2.254   7.113  20.022  0.00  0.00    +0.000 HD
BRANCH  21  24
ATOM     24  C   UNL     1       3.262   6.464  17.939  0.00  0.00    +0.000 A 
ATOM     25  N   UNL     1       4.575   6.513  17.641  0.00  0.00    +0.000 NA
ATOM     26  S   UNL     1       5.205   5.002  17.553  0.00  0.00    +0.000 S 
ATOM     27  C   UNL     1       3.759   4.149  17.886  0.00  0.00    +0.000 A 
ATOM     28  C   UNL     1       3.587   2.756  18.000  0.00  0.00    +0.000 A 
ATOM     29  C   UNL     1       2.311   2.249  18.232  0.00  0.00    +0.000 A 
ATOM     30  C   UNL     1       1.237   3.129  18.335  0.00  0.00    +0.000 A 
ATOM     31  C   UNL     1       1.424   4.523  18.245  0.00  0.00    +0.000 A 
ATOM     32  C   UNL     1       2.720   5.085  18.031  0.00  0.00    +0.000 A 
ENDBRANCH  21  24
ENDBRANCH   4  20
TORSDOF 6
ENDMDL
MODEL 7
REMARK VINA RESULT:      -7.7      1.987      2.748
REMARK  Name = 
REMARK  7 active torsions:
REMARK  status: ('A' for Active; 'I' for Inactive)
REMARK    1  A    between atoms: C_1  and  C_2
REMARK    2  A    between atoms: C_2  and  O_3
REMARK    3  A    between atoms: O_3  and  C_4
REMARK    4  A    between atoms: C_4  and  C_6
REMARK    5  A    between atoms: C_11  and  C_13
REMARK    6  A    between atoms: C_16  and  N_17
REMARK    7  A    between atoms: C_18  and  C_20
REMARK                            x       y       z     vdW  Elec       q    Type
REMARK                         _______ _______ _______ _____ _____    ______ ____
ROOT
ATOM      1  C   UNL     1       0.087  10.680  21.142  0.00  0.00    +0.000 A 
ATOM      2  C   UNL     1       0.685  10.796  19.874  0.00  0.00    +0.000 A 
ATOM      3  C   UNL     1       1.363   9.701  19.247  0.00  0.00    +0.000 A 
ATOM      4  C   UNL     1       1.445   8.462  19.874  0.00  0.00    +0.000 A 
ATOM      5  C   UNL     1       0.863   8.362  21.150  0.00  0.00    +0.000 A 
ATOM      6  C   UNL     1       0.230   9.457  21.787  0.00  0.00    +0.000 A 
ENDROOT
BRANCH   1  12
ATOM      7  C   UNL     1      -3.717  13.615  21.804  0.00  0.00    +0.000 C 
ATOM      8  C   UNL     1      -4.253  13.218  20.412  0.00  0.00    +0.000 C 
ATOM      9  C   UNL     1      -3.364  12.204  19.682  0.00  0.00    +0.000 C 
ATOM     10  C   UNL     1      -1.904  12.649  19.707  0.00  0.00    +0.000 C 
ATOM     11  N   UNL     1      -1.483  12.743  21.099  0.00  0.00    +0.000 N 
ATOM     12  C   UNL     1      -0.567  11.909  21.775  0.00  0.00    +0.000 C 
ATOM     13  O   UNL     1      -0.252  12.162  22.943  0.00  0.00    +0.000 OA
ATOM     14  C   UNL     1      -2.194  13.810  21.830  0.00  0.00    +0.000 C 
BRANCH   7  15
ATOM     15  C   UNL     1      -4.165  12.660  22.900  0.00  0.00    +0.000 C 
ATOM     16  O   UNL     1      -3.415  12.032  23.634  0.00  0.00    +0.000 OA
BRANCH  15  17
ATOM     17  O   UNL     1      -5.520  12.504  22.839  0.00  0.00    +0.000 OA
BRANCH  17  19
ATOM     18  C   UNL     1      -7.296  13.736  23.961  0.00  0.00    +0.000 C 
ATOM     19  C   UNL     1      -6.249  12.645  24.067  0.00  0.00    +0.000 C 
ENDBRANCH  17  19
ENDBRANCH  15  17
ENDBRANCH   7  15
ENDBRANCH   1  12
BRANCH   4  20
ATOM     20  N   UNL     1       2.065   7.292  19.342  0.00  0.00    +0.000 N 
ATOM     21  C   UNL     1       2.318   6.023  19.884  0.00  0.00    +0.000 C 
ATOM     22  O   UNL     1       1.983   5.644  20.999  0.00  0.00    +0.000 OA
ATOM     23  H   UNL     1       2.403   7.370  18.381  0.00  0.00    +0.000 HD
BRANCH  21  24
ATOM     24  C   UNL     1       3.088   5.134  18.930  0.00  0.00    +0.000 A 
ATOM     25  N   UNL     1       2.978   3.808  19.143  0.00  0.00    +0.000 NA
ATOM     26  S   UNL     1       3.765   2.967  17.976  0.00  0.00    +0.000 S 
ATOM     27  C   UNL     1       4.342   4.316  17.095  0.00  0.00    +0.000 A 
ATOM     28  C   UNL     1       5.096   4.310  15.905  0.00  0.00    +0.000 A 
ATOM     29  C   UNL     1       5.512   5.523  15.362  0.00  0.00    +0.000 A 
ATOM     30  C   UNL     1       5.183   6.709  16.014  0.00  0.00    +0.000 A 
ATOM     31  C   UNL     1       4.406   6.706  17.189  0.00  0.00    +0.000 A 
ATOM     32  C   UNL     1       3.940   5.484  17.765  0.00  0.00    +0.000 A 
ENDBRANCH  21  24
ENDBRANCH   4  20
TORSDOF 6
ENDMDL
MODEL 8
REMARK VINA RESULT:      -7.7      1.628      2.387
REMARK  Name = 
REMARK  7 active torsions:
REMARK  status: ('A' for Active; 'I' for Inactive)
REMARK    1  A    between atoms: C_1  and  C_2
REMARK    2  A    between atoms: C_2  and  O_3
REMARK    3  A    between atoms: O_3  and  C_4
REMARK    4  A    between atoms: C_4  and  C_6
REMARK    5  A    between atoms: C_11  and  C_13
REMARK    6  A    between atoms: C_16  and  N_17
REMARK    7  A    between atoms: C_18  and  C_20
REMARK                            x       y       z     vdW  Elec       q    Type
REMARK                         _______ _______ _______ _____ _____    ______ ____
ROOT
ATOM      1  C   UNL     1      -0.258  10.503  21.888  0.00  0.00    +0.000 A 
ATOM      2  C   UNL     1      -0.199  10.643  20.490  0.00  0.00    +0.000 A 
ATOM      3  C   UNL     1       0.560   9.752  19.665  0.00  0.00    +0.000 A 
ATOM      4  C   UNL     1       1.267   8.693  20.225  0.00  0.00    +0.000 A 
ATOM      5  C   UNL     1       1.219   8.573  21.625  0.00  0.00    +0.000 A 
ATOM      6  C   UNL     1       0.502   9.480  22.443  0.00  0.00    +0.000 A 
ENDROOT
BRANCH   1  12
ATOM      7  C   UNL     1      -2.484  14.788  22.351  0.00  0.00    +0.000 C 
ATOM      8  C   UNL     1      -1.563  15.373  21.258  0.00  0.00    +0.000 C 
ATOM      9  C   UNL     1      -0.567  14.355  20.691  0.00  0.00    +0.000 C 
ATOM     10  C   UNL     1       0.157  13.621  21.817  0.00  0.00    +0.000 C 
ATOM     11  N   UNL     1      -0.841  12.923  22.616  0.00  0.00    +0.000 N 
ATOM     12  C   UNL     1      -1.041  11.529  22.710  0.00  0.00    +0.000 C 
ATOM     13  O   UNL     1      -1.884  11.080  23.494  0.00  0.00    +0.000 OA
ATOM     14  C   UNL     1      -1.748  13.851  23.320  0.00  0.00    +0.000 C 
BRANCH   7  15
ATOM     15  C   UNL     1      -3.723  14.119  21.778  0.00  0.00    +0.000 C 
ATOM     16  O   UNL     1      -4.164  14.303  20.652  0.00  0.00    +0.000 OA
BRANCH  15  17
ATOM     17  O   UNL     1      -4.344  13.398  22.758  0.00  0.00    +0.000 OA
BRANCH  17  19
ATOM     18  C   UNL     1      -6.347  12.826  24.020  0.00  0.00    +0.000 C 
ATOM     19  C   UNL     1      -5.777  13.332  22.710  0.00  0.00    +0.000 C 
ENDBRANCH  17  19
ENDBRANCH  15  17
ENDBRANCH   7  15
ENDBRANCH   1  12
BRANCH   4  20
ATOM     20  N   UNL     1       2.033   7.724  19.509  0.00  0.00    +0.000 N 
ATOM     21  C   UNL     1       2.587   7.717  18.221  0.00  0.00    +0.000 C 
ATOM     22  O   UNL     1       2.545   8.644  17.421  0.00  0.00    +0.000 OA
ATOM     23  H   UNL     1       2.224   6.856  20.011  0.00  0.00    +0.000 HD
BRANCH  21  24
ATOM     24  C   UNL     1       3.256   6.399  17.890  0.00  0.00    +0.000 A 
ATOM     25  N   UNL     1       2.474   5.305  17.972  0.00  0.00    +0.000 NA
ATOM     26  S   UNL     1       3.291   3.971  17.480  0.00  0.00    +0.000 S 
ATOM     27  C   UNL     1       4.777   4.748  17.134  0.00  0.00    +0.000 A 
ATOM     28  C   UNL     1       5.952   4.169  16.619  0.00  0.00    +0.000 A 
ATOM     29  C   UNL     1       7.081   4.967  16.449  0.00  0.00    +0.000 A 
ATOM     30  C   UNL     1       7.023   6.313  16.802  0.00  0.00    +0.000 A 
ATOM     31  C   UNL     1       5.834   6.889  17.292  0.00  0.00    +0.000 A 
ATOM     32  C   UNL     1       4.647   6.109  17.459  0.00  0.00    +0.000 A 
ENDBRANCH  21  24
ENDBRANCH   4  20
TORSDOF 6
ENDMDL
MODEL 9
REMARK VINA RESULT:      -7.7      2.053      2.851
REMARK  Name = 
REMARK  7 active torsions:
REMARK  status: ('A' for Active; 'I' for Inactive)
REMARK    1  A    between atoms: C_1  and  C_2
REMARK    2  A    between atoms: C_2  and  O_3
REMARK    3  A    between atoms: O_3  and  C_4
REMARK    4  A    between atoms: C_4  and  C_6
REMARK    5  A    between atoms: C_11  and  C_13
REMARK    6  A    between atoms: C_16  and  N_17
REMARK    7  A    between atoms: C_18  and  C_20
REMARK                            x       y       z     vdW  Elec       q    Type
REMARK                         _______ _______ _______ _____ _____    ______ ____
ROOT
ATOM      1  C   UNL     1      -0.405  11.268  21.985  0.00  0.00    +0.000 A 
ATOM      2  C   UNL     1       0.325  11.104  20.793  0.00  0.00    +0.000 A 
ATOM      3  C   UNL     1       0.935   9.858  20.438  0.00  0.00    +0.000 A 
ATOM      4  C   UNL     1       0.815   8.745  21.263  0.00  0.00    +0.000 A 
ATOM      5  C   UNL     1       0.101   8.925  22.461  0.00  0.00    +0.000 A 
ATOM      6  C   UNL     1      -0.466  10.168  22.833  0.00  0.00    +0.000 A 
ENDROOT
BRANCH   1  12
ATOM      7  C   UNL     1      -4.040  14.480  22.031  0.00  0.00    +0.000 C 
ATOM      8  C   UNL     1      -4.644  13.799  20.784  0.00  0.00    +0.000 C 
ATOM      9  C   UNL     1      -3.830  12.596  20.292  0.00  0.00    +0.000 C 
ATOM     10  C   UNL     1      -2.351  12.954  20.176  0.00  0.00    +0.000 C 
ATOM     11  N   UNL     1      -1.877  13.346  21.497  0.00  0.00    +0.000 N 
ATOM     12  C   UNL     1      -0.977  12.645  22.328  0.00  0.00    +0.000 C 
ATOM     13  O   UNL     1      -0.608  13.145  23.395  0.00  0.00    +0.000 OA
ATOM     14  C   UNL     1      -2.509  14.592  21.974  0.00  0.00    +0.000 C 
BRANCH   7  15
ATOM     15  C   UNL     1      -4.492  13.832  23.331  0.00  0.00    +0.000 C 
ATOM     16  O   UNL     1      -4.928  12.694  23.434  0.00  0.00    +0.000 OA
BRANCH  15  17
ATOM     17  O   UNL     1      -4.473  14.761  24.331  0.00  0.00    +0.000 OA
BRANCH  17  19
ATOM     18  C   UNL     1      -4.710  17.117  24.903  0.00  0.00    +0.000 C 
ATOM     19  C   UNL     1      -5.282  15.933  24.148  0.00  0.00    +0.000 C 
ENDBRANCH  17  19
ENDBRANCH  15  17
ENDBRANCH   7  15
ENDBRANCH   1  12
BRANCH   4  20
ATOM     20  N   UNL     1       1.349   7.448  21.006  0.00  0.00    +0.000 N 
ATOM     21  C   UNL     1       2.115   6.930  19.951  0.00  0.00    +0.000 C 
ATOM     22  O   UNL     1       2.537   7.569  18.995  0.00  0.00    +0.000 OA
ATOM     23  H   UNL     1       1.143   6.738  21.711  0.00  0.00    +0.000 HD
BRANCH  21  24
ATOM     24  C   UNL     1       2.370   5.444  20.100  0.00  0.00    +0.000 A 
ATOM     25  N   UNL     1       2.079   4.915  21.305  0.00  0.00    +0.000 NA
ATOM     26  S   UNL     1       2.293   3.290  21.290  0.00  0.00    +0.000 S 
ATOM     27  C   UNL     1       2.817   3.159  19.666  0.00  0.00    +0.000 A 
ATOM     28  C   UNL     1       3.152   1.988  18.960  0.00  0.00    +0.000 A 
ATOM     29  C   UNL     1       3.604   2.095  17.647  0.00  0.00    +0.000 A 
ATOM     30  C   UNL     1       3.724   3.357  17.070  0.00  0.00    +0.000 A 
ATOM     31  C   UNL     1       3.362   4.521  17.776  0.00  0.00    +0.000 A 
ATOM     32  C   UNL     1       2.871   4.452  19.116  0.00  0.00    +0.000 A 
ENDBRANCH  21  24
ENDBRANCH   4  20
TORSDOF 6
ENDMDL
