MODEL 1
REMARK VINA RESULT:      -7.8      0.000      0.000
REMARK  Name = 
REMARK  2 active torsions:
REMARK  status: ('A' for Active; 'I' for Inactive)
REMARK    1  A    between atoms: C_8  and  O_9
REMARK    2  A    between atoms: O_9  and  C_10
REMARK                            x       y       z     vdW  Elec       q    Type
REMARK                         _______ _______ _______ _____ _____    ______ ____
ROOT
ATOM      1  C   UNL     1       5.604   4.810  18.797  0.00  0.00    +0.000 A 
ATOM      2  N   UNL     1       6.793   4.871  19.406  0.00  0.00    +0.000 NA
ATOM      3  N   UNL     1       7.655   4.895  18.373  0.00  0.00    +0.000 N 
ATOM      4  C   UNL     1       7.068   4.750  17.143  0.00  0.00    +0.000 A 
ATOM      5  C   UNL     1       7.612   4.695  15.856  0.00  0.00    +0.000 A 
ATOM      6  C   UNL     1       6.715   4.547  14.792  0.00  0.00    +0.000 A 
ATOM      7  C   UNL     1       5.339   4.476  15.013  0.00  0.00    +0.000 A 
ATOM      8  C   UNL     1       4.812   4.552  16.309  0.00  0.00    +0.000 A 
ATOM      9  C   UNL     1       5.700   4.680  17.392  0.00  0.00    +0.000 A 
ATOM     10  H   UNL     1       8.640   5.023  18.574  0.00  0.00    +0.000 HD
ENDROOT
BRANCH   1  11
ATOM     11  O   UNL     1       4.459   4.889  19.516  0.00  0.00    +0.000 OA
BRANCH  11  19
ATOM     12 CL   UNL     1       2.223   6.326  18.198  0.00  0.00    +0.000 Cl
ATOM     13  C   UNL     1       2.264   4.649  18.617  0.00  0.00    +0.000 A 
ATOM     14  C   UNL     1       1.129   3.878  18.334  0.00  0.00    +0.000 A 
ATOM     15  C   UNL     1       1.106   2.527  18.658  0.00  0.00    +0.000 A 
ATOM     16  C   UNL     1       2.204   1.948  19.286  0.00  0.00    +0.000 A 
ATOM     17  C   UNL     1       3.328   2.721  19.601  0.00  0.00    +0.000 A 
ATOM     18 CL   UNL     1       4.562   1.942  20.539  0.00  0.00    +0.000 Cl
ATOM     19  C   UNL     1       3.385   4.072  19.229  0.00  0.00    +0.000 A 
ENDBRANCH  11  19
ENDBRANCH   1  11
TORSDOF 2
ENDMDL
MODEL 2
REMARK VINA RESULT:      -7.7      0.205      2.164
REMARK  Name = 
REMARK  2 active torsions:
REMARK  status: ('A' for Active; 'I' for Inactive)
REMARK    1  A    between atoms: C_8  and  O_9
REMARK    2  A    between atoms: O_9  and  C_10
REMARK                            x       y       z     vdW  Elec       q    Type
REMARK                         _______ _______ _______ _____ _____    ______ ____
ROOT
ATOM      1  C   UNL     1       5.565   4.864  19.022  0.00  0.00    +0.000 A 
ATOM      2  N   UNL     1       6.748   5.008  19.628  0.00  0.00    +0.000 NA
ATOM      3  N   UNL     1       7.611   5.022  18.595  0.00  0.00    +0.000 N 
ATOM      4  C   UNL     1       7.034   4.794  17.373  0.00  0.00    +0.000 A 
ATOM      5  C   UNL     1       7.583   4.704  16.090  0.00  0.00    +0.000 A 
ATOM      6  C   UNL     1       6.696   4.465  15.035  0.00  0.00    +0.000 A 
ATOM      7  C   UNL     1       5.324   4.342  15.258  0.00  0.00    +0.000 A 
ATOM      8  C   UNL     1       4.791   4.454  16.549  0.00  0.00    +0.000 A 
ATOM      9  C   UNL     1       5.670   4.673  17.625  0.00  0.00    +0.000 A 
ATOM     10  H   UNL     1       8.589   5.205  18.790  0.00  0.00    +0.000 HD
ENDROOT
BRANCH   1  11
ATOM     11  O   UNL     1       4.416   4.924  19.737  0.00  0.00    +0.000 OA
BRANCH  11  19
ATOM     12 CL   UNL     1       4.630   2.044  20.421  0.00  0.00    +0.000 Cl
ATOM     13  C   UNL     1       3.305   2.817  19.621  0.00  0.00    +0.000 A 
ATOM     14  C   UNL     1       2.224   2.017  19.229  0.00  0.00    +0.000 A 
ATOM     15  C   UNL     1       1.137   2.587  18.576  0.00  0.00    +0.000 A 
ATOM     16  C   UNL     1       1.139   3.949  18.291  0.00  0.00    +0.000 A 
ATOM     17  C   UNL     1       2.231   4.746  18.651  0.00  0.00    +0.000 A 
ATOM     18 CL   UNL     1       2.205   6.388  18.092  0.00  0.00    +0.000 Cl
ATOM     19  C   UNL     1       3.308   4.193  19.360  0.00  0.00    +0.000 A 
ENDBRANCH  11  19
ENDBRANCH   1  11
TORSDOF 2
ENDMDL
MODEL 3
REMARK VINA RESULT:      -7.7      1.989      3.342
REMARK  Name = 
REMARK  2 active torsions:
REMARK  status: ('A' for Active; 'I' for Inactive)
REMARK    1  A    between atoms: C_8  and  O_9
REMARK    2  A    between atoms: O_9  and  C_10
REMARK                            x       y       z     vdW  Elec       q    Type
REMARK                         _______ _______ _______ _____ _____    ______ ____
ROOT
ATOM      1  C   UNL     1       4.697   4.005  17.440  0.00  0.00    +0.000 A 
ATOM      2  N   UNL     1       4.417   4.379  16.188  0.00  0.00    +0.000 NA
ATOM      3  N   UNL     1       5.348   5.319  15.944  0.00  0.00    +0.000 N 
ATOM      4  C   UNL     1       6.138   5.626  17.021  0.00  0.00    +0.000 A 
ATOM      5  C   UNL     1       7.176   6.550  17.177  0.00  0.00    +0.000 A 
ATOM      6  C   UNL     1       7.794   6.607  18.431  0.00  0.00    +0.000 A 
ATOM      7  C   UNL     1       7.398   5.763  19.469  0.00  0.00    +0.000 A 
ATOM      8  C   UNL     1       6.367   4.830  19.288  0.00  0.00    +0.000 A 
ATOM      9  C   UNL     1       5.722   4.774  18.040  0.00  0.00    +0.000 A 
ATOM     10  H   UNL     1       5.400   5.711  15.010  0.00  0.00    +0.000 HD
ENDROOT
BRANCH   1  11
ATOM     11  O   UNL     1       4.035   2.970  18.012  0.00  0.00    +0.000 OA
BRANCH  11  19
ATOM     12 CL   UNL     1       4.966   1.702  20.528  0.00  0.00    +0.000 Cl
ATOM     13  C   UNL     1       3.510   2.611  20.310  0.00  0.00    +0.000 A 
ATOM     14  C   UNL     1       2.660   2.756  21.414  0.00  0.00    +0.000 A 
ATOM     15  C   UNL     1       1.474   3.470  21.291  0.00  0.00    +0.000 A 
ATOM     16  C   UNL     1       1.122   4.018  20.061  0.00  0.00    +0.000 A 
ATOM     17  C   UNL     1       1.952   3.848  18.947  0.00  0.00    +0.000 A 
ATOM     18 CL   UNL     1       1.333   4.418  17.430  0.00  0.00    +0.000 Cl
ATOM     19  C   UNL     1       3.178   3.177  19.072  0.00  0.00    +0.000 A 
ENDBRANCH  11  19
ENDBRANCH   1  11
TORSDOF 2
ENDMDL
MODEL 4
REMARK VINA RESULT:      -7.6      1.939      2.952
REMARK  Name = 
REMARK  2 active torsions:
REMARK  status: ('A' for Active; 'I' for Inactive)
REMARK    1  A    between atoms: C_8  and  O_9
REMARK    2  A    between atoms: O_9  and  C_10
REMARK                            x       y       z     vdW  Elec       q    Type
REMARK                         _______ _______ _______ _____ _____    ______ ____
ROOT
ATOM      1  C   UNL     1       5.235   4.831  18.407  0.00  0.00    +0.000 A 
ATOM      2  N   UNL     1       5.877   4.075  19.303  0.00  0.00    +0.000 NA
ATOM      3  N   UNL     1       6.990   4.789  19.551  0.00  0.00    +0.000 N 
ATOM      4  C   UNL     1       7.126   5.912  18.776  0.00  0.00    +0.000 A 
ATOM      5  C   UNL     1       8.135   6.878  18.711  0.00  0.00    +0.000 A 
ATOM      6  C   UNL     1       7.957   7.923  17.798  0.00  0.00    +0.000 A 
ATOM      7  C   UNL     1       6.812   8.000  17.003  0.00  0.00    +0.000 A 
ATOM      8  C   UNL     1       5.804   7.031  17.095  0.00  0.00    +0.000 A 
ATOM      9  C   UNL     1       5.976   5.963  17.994  0.00  0.00    +0.000 A 
ATOM     10  H   UNL     1       7.620   4.460  20.273  0.00  0.00    +0.000 HD
ENDROOT
BRANCH   1  11
ATOM     11  O   UNL     1       3.990   4.495  17.992  0.00  0.00    +0.000 OA
BRANCH  11  19
ATOM     12 CL   UNL     1       3.464   1.575  18.042  0.00  0.00    +0.000 Cl
ATOM     13  C   UNL     1       2.673   2.781  18.998  0.00  0.00    +0.000 A 
ATOM     14  C   UNL     1       1.665   2.360  19.874  0.00  0.00    +0.000 A 
ATOM     15  C   UNL     1       0.992   3.289  20.660  0.00  0.00    +0.000 A 
ATOM     16  C   UNL     1       1.306   4.640  20.553  0.00  0.00    +0.000 A 
ATOM     17  C   UNL     1       2.290   5.069  19.655  0.00  0.00    +0.000 A 
ATOM     18 CL   UNL     1       2.476   6.784  19.477  0.00  0.00    +0.000 Cl
ATOM     19  C   UNL     1       3.014   4.136  18.899  0.00  0.00    +0.000 A 
ENDBRANCH  11  19
ENDBRANCH   1  11
TORSDOF 2
ENDMDL
MODEL 5
REMARK VINA RESULT:      -7.5      1.921      2.309
REMARK  Name = 
REMARK  2 active torsions:
REMARK  status: ('A' for Active; 'I' for Inactive)
REMARK    1  A    between atoms: C_8  and  O_9
REMARK    2  A    between atoms: O_9  and  C_10
REMARK                            x       y       z     vdW  Elec       q    Type
REMARK                         _______ _______ _______ _____ _____    ______ ____
ROOT
ATOM      1  C   UNL     1       5.129   4.832  18.360  0.00  0.00    +0.000 A 
ATOM      2  N   UNL     1       5.739   4.037  19.245  0.00  0.00    +0.000 NA
ATOM      3  N   UNL     1       6.872   4.709  19.517  0.00  0.00    +0.000 N 
ATOM      4  C   UNL     1       7.051   5.843  18.769  0.00  0.00    +0.000 A 
ATOM      5  C   UNL     1       8.091   6.778  18.733  0.00  0.00    +0.000 A 
ATOM      6  C   UNL     1       7.955   7.847  17.841  0.00  0.00    +0.000 A 
ATOM      7  C   UNL     1       6.821   7.978  17.038  0.00  0.00    +0.000 A 
ATOM      8  C   UNL     1       5.781   7.040  17.101  0.00  0.00    +0.000 A 
ATOM      9  C   UNL     1       5.910   5.948  17.978  0.00  0.00    +0.000 A 
ATOM     10  H   UNL     1       7.484   4.345  20.238  0.00  0.00    +0.000 HD
ENDROOT
BRANCH   1  11
ATOM     11  O   UNL     1       3.878   4.547  17.928  0.00  0.00    +0.000 OA
BRANCH  11  19
ATOM     12 CL   UNL     1       2.601   6.707  19.512  0.00  0.00    +0.000 Cl
ATOM     13  C   UNL     1       2.255   5.015  19.611  0.00  0.00    +0.000 A 
ATOM     14  C   UNL     1       1.295   4.600  20.542  0.00  0.00    +0.000 A 
ATOM     15  C   UNL     1       0.984   3.250  20.668  0.00  0.00    +0.000 A 
ATOM     16  C   UNL     1       1.649   2.313  19.884  0.00  0.00    +0.000 A 
ATOM     17  C   UNL     1       2.634   2.720  18.976  0.00  0.00    +0.000 A 
ATOM     18 CL   UNL     1       3.519   1.457  18.182  0.00  0.00    +0.000 Cl
ATOM     19  C   UNL     1       2.915   4.082  18.801  0.00  0.00    +0.000 A 
ENDBRANCH  11  19
ENDBRANCH   1  11
TORSDOF 2
ENDMDL
MODEL 6
REMARK VINA RESULT:      -7.3      2.089      5.298
REMARK  Name = 
REMARK  2 active torsions:
REMARK  status: ('A' for Active; 'I' for Inactive)
REMARK    1  A    between atoms: C_8  and  O_9
REMARK    2  A    between atoms: O_9  and  C_10
REMARK                            x       y       z     vdW  Elec       q    Type
REMARK                         _______ _______ _______ _____ _____    ______ ____
ROOT
ATOM      1  C   UNL     1       4.576   4.277  19.247  0.00  0.00    +0.000 A 
ATOM      2  N   UNL     1       5.416   3.289  19.574  0.00  0.00    +0.000 NA
ATOM      3  N   UNL     1       4.626   2.444  20.261  0.00  0.00    +0.000 N 
ATOM      4  C   UNL     1       3.351   2.902  20.467  0.00  0.00    +0.000 A 
ATOM      5  C   UNL     1       2.263   2.344  21.146  0.00  0.00    +0.000 A 
ATOM      6  C   UNL     1       1.076   3.084  21.161  0.00  0.00    +0.000 A 
ATOM      7  C   UNL     1       0.984   4.316  20.511  0.00  0.00    +0.000 A 
ATOM      8  C   UNL     1       2.081   4.850  19.821  0.00  0.00    +0.000 A 
ATOM      9  C   UNL     1       3.288   4.129  19.812  0.00  0.00    +0.000 A 
ATOM     10  H   UNL     1       5.017   1.556  20.556  0.00  0.00    +0.000 HD
ENDROOT
BRANCH   1  11
ATOM     11  O   UNL     1       4.982   5.282  18.434  0.00  0.00    +0.000 OA
BRANCH  11  19
ATOM     12 CL   UNL     1       7.586   6.627  17.972  0.00  0.00    +0.000 Cl
ATOM     13  C   UNL     1       6.740   5.610  16.857  0.00  0.00    +0.000 A 
ATOM     14  C   UNL     1       7.314   5.406  15.596  0.00  0.00    +0.000 A 
ATOM     15  C   UNL     1       6.672   4.603  14.660  0.00  0.00    +0.000 A 
ATOM     16  C   UNL     1       5.445   4.026  14.971  0.00  0.00    +0.000 A 
ATOM     17  C   UNL     1       4.851   4.253  16.218  0.00  0.00    +0.000 A 
ATOM     18 CL   UNL     1       3.247   3.632  16.433  0.00  0.00    +0.000 Cl
ATOM     19  C   UNL     1       5.516   5.015  17.191  0.00  0.00    +0.000 A 
ENDBRANCH  11  19
ENDBRANCH   1  11
TORSDOF 2
ENDMDL
MODEL 7
REMARK VINA RESULT:      -7.3      2.082      5.281
REMARK  Name = 
REMARK  2 active torsions:
REMARK  status: ('A' for Active; 'I' for Inactive)
REMARK    1  A    between atoms: C_8  and  O_9
REMARK    2  A    between atoms: O_9  and  C_10
REMARK                            x       y       z     vdW  Elec       q    Type
REMARK                         _______ _______ _______ _____ _____    ______ ____
ROOT
ATOM      1  C   UNL     1       4.508   4.386  19.204  0.00  0.00    +0.000 A 
ATOM      2  N   UNL     1       5.424   3.458  19.502  0.00  0.00    +0.000 NA
ATOM      3  N   UNL     1       4.718   2.562  20.215  0.00  0.00    +0.000 N 
ATOM      4  C   UNL     1       3.422   2.932  20.465  0.00  0.00    +0.000 A 
ATOM      5  C   UNL     1       2.398   2.303  21.180  0.00  0.00    +0.000 A 
ATOM      6  C   UNL     1       1.164   2.960  21.235  0.00  0.00    +0.000 A 
ATOM      7  C   UNL     1       0.967   4.181  20.588  0.00  0.00    +0.000 A 
ATOM      8  C   UNL     1       2.000   4.787  19.862  0.00  0.00    +0.000 A 
ATOM      9  C   UNL     1       3.253   4.150  19.812  0.00  0.00    +0.000 A 
ATOM     10  H   UNL     1       5.178   1.705  20.498  0.00  0.00    +0.000 HD
ENDROOT
BRANCH   1  11
ATOM     11  O   UNL     1       4.816   5.414  18.377  0.00  0.00    +0.000 OA
BRANCH  11  19
ATOM     12 CL   UNL     1       3.284   3.695  16.506  0.00  0.00    +0.000 Cl
ATOM     13  C   UNL     1       4.847   4.382  16.228  0.00  0.00    +0.000 A 
ATOM     14  C   UNL     1       5.480   4.091  15.013  0.00  0.00    +0.000 A 
ATOM     15  C   UNL     1       6.741   4.610  14.743  0.00  0.00    +0.000 A 
ATOM     16  C   UNL     1       7.382   5.398  15.694  0.00  0.00    +0.000 A 
ATOM     17  C   UNL     1       6.767   5.664  16.923  0.00  0.00    +0.000 A 
ATOM     18 CL   UNL     1       7.726   6.506  18.098  0.00  0.00    +0.000 Cl
ATOM     19  C   UNL     1       5.473   5.192  17.185  0.00  0.00    +0.000 A 
ENDBRANCH  11  19
ENDBRANCH   1  11
TORSDOF 2
ENDMDL
MODEL 8
REMARK VINA RESULT:      -7.3      2.131      3.439
REMARK  Name = 
REMARK  2 active torsions:
REMARK  status: ('A' for Active; 'I' for Inactive)
REMARK    1  A    between atoms: C_8  and  O_9
REMARK    2  A    between atoms: O_9  and  C_10
REMARK                            x       y       z     vdW  Elec       q    Type
REMARK                         _______ _______ _______ _____ _____    ______ ____
ROOT
ATOM      1  C   UNL     1       4.629   5.402  17.029  0.00  0.00    +0.000 A 
ATOM      2  N   UNL     1       4.603   6.184  15.945  0.00  0.00    +0.000 NA
ATOM      3  N   UNL     1       5.768   6.852  16.032  0.00  0.00    +0.000 N 
ATOM      4  C   UNL     1       6.481   6.599  17.175  0.00  0.00    +0.000 A 
ATOM      5  C   UNL     1       7.698   7.106  17.641  0.00  0.00    +0.000 A 
ATOM      6  C   UNL     1       8.160   6.622  18.869  0.00  0.00    +0.000 A 
ATOM      7  C   UNL     1       7.442   5.662  19.583  0.00  0.00    +0.000 A 
ATOM      8  C   UNL     1       6.233   5.153  19.091  0.00  0.00    +0.000 A 
ATOM      9  C   UNL     1       5.743   5.643  17.868  0.00  0.00    +0.000 A 
ATOM     10  H   UNL     1       6.027   7.464  15.267  0.00  0.00    +0.000 HD
ENDROOT
BRANCH   1  11
ATOM     11  O   UNL     1       3.661   4.478  17.233  0.00  0.00    +0.000 OA
BRANCH  11  19
ATOM     12 CL   UNL     1       3.567   1.698  18.269  0.00  0.00    +0.000 Cl
ATOM     13  C   UNL     1       2.909   3.105  19.032  0.00  0.00    +0.000 A 
ATOM     14  C   UNL     1       2.242   2.933  20.251  0.00  0.00    +0.000 A 
ATOM     15  C   UNL     1       1.688   4.029  20.903  0.00  0.00    +0.000 A 
ATOM     16  C   UNL     1       1.776   5.292  20.327  0.00  0.00    +0.000 A 
ATOM     17  C   UNL     1       2.413   5.464  19.092  0.00  0.00    +0.000 A 
ATOM     18 CL   UNL     1       2.311   7.044  18.385  0.00  0.00    +0.000 Cl
ATOM     19  C   UNL     1       3.024   4.375  18.453  0.00  0.00    +0.000 A 
ENDBRANCH  11  19
ENDBRANCH   1  11
TORSDOF 2
ENDMDL
MODEL 9
REMARK VINA RESULT:      -7.2      1.493      2.613
REMARK  Name = 
REMARK  2 active torsions:
REMARK  status: ('A' for Active; 'I' for Inactive)
REMARK    1  A    between atoms: C_8  and  O_9
REMARK    2  A    between atoms: O_9  and  C_10
REMARK                            x       y       z     vdW  Elec       q    Type
REMARK                         _______ _______ _______ _____ _____    ______ ____
ROOT
ATOM      1  C   UNL     1       4.951   3.913  17.998  0.00  0.00    +0.000 A 
ATOM      2  N   UNL     1       5.314   4.786  18.944  0.00  0.00    +0.000 NA
ATOM      3  N   UNL     1       6.108   5.639  18.272  0.00  0.00    +0.000 N 
ATOM      4  C   UNL     1       6.342   5.287  16.968  0.00  0.00    +0.000 A 
ATOM      5  C   UNL     1       7.120   5.883  15.971  0.00  0.00    +0.000 A 
ATOM      6  C   UNL     1       7.137   5.260  14.719  0.00  0.00    +0.000 A 
ATOM      7  C   UNL     1       6.393   4.103  14.479  0.00  0.00    +0.000 A 
ATOM      8  C   UNL     1       5.605   3.530  15.486  0.00  0.00    +0.000 A 
ATOM      9  C   UNL     1       5.593   4.133  16.757  0.00  0.00    +0.000 A 
ATOM     10  H   UNL     1       6.455   6.457  18.761  0.00  0.00    +0.000 HD
ENDROOT
BRANCH   1  11
ATOM     11  O   UNL     1       4.039   2.949  18.267  0.00  0.00    +0.000 OA
BRANCH  11  19
ATOM     12 CL   UNL     1       4.841   1.649  20.811  0.00  0.00    +0.000 Cl
ATOM     13  C   UNL     1       3.380   2.528  20.520  0.00  0.00    +0.000 A 
ATOM     14  C   UNL     1       2.460   2.629  21.571  0.00  0.00    +0.000 A 
ATOM     15  C   UNL     1       1.266   3.318  21.387  0.00  0.00    +0.000 A 
ATOM     16  C   UNL     1       0.978   3.883  20.149  0.00  0.00    +0.000 A 
ATOM     17  C   UNL     1       1.880   3.757  19.086  0.00  0.00    +0.000 A 
ATOM     18 CL   UNL     1       1.343   4.345  17.546  0.00  0.00    +0.000 Cl
ATOM     19  C   UNL     1       3.111   3.113  19.275  0.00  0.00    +0.000 A 
ENDBRANCH  11  19
ENDBRANCH   1  11
TORSDOF 2
ENDMDL
