MODEL 1
REMARK VINA RESULT:      -7.5      0.000      0.000
REMARK  Name = 
REMARK  5 active torsions:
REMARK  status: ('A' for Active; 'I' for Inactive)
REMARK    1  A    between atoms: C_1  and  C_2
REMARK    2  A    between atoms: C_4  and  O_5
REMARK    3  A    between atoms: C_6  and  C_7
REMARK    4  A    between atoms: C_7  and  C_8
REMARK    5  A    between atoms: C_19  and  C_20
REMARK                            x       y       z     vdW  Elec       q    Type
REMARK                         _______ _______ _______ _____ _____    ______ ____
ROOT
ATOM      1  C   UNL     1       2.813   4.010  18.895  0.00  0.00    +0.000 C 
ATOM      2  N   UNL     1       1.848   4.829  19.755  0.00  0.00    +0.000 NA
ATOM      3  C   UNL     1       2.193   4.866  21.172  0.00  0.00    +0.000 C 
ATOM      4  C   UNL     1       2.211   3.463  21.762  0.00  0.00    +0.000 C 
ATOM      5  N   UNL     1       3.027   2.564  20.985  0.00  0.00    +0.000 N 
ATOM      6  C   UNL     1       3.278   2.711  19.642  0.00  0.00    +0.000 C 
ATOM      7  O   UNL     1       3.966   1.829  19.115  0.00  0.00    +0.000 OA
ATOM      8  H   UNL     1       0.912   4.446  19.617  0.00  0.00    +0.000 HD
ATOM      9  H   UNL     1       3.327   1.682  21.380  0.00  0.00    +0.000 HD
ENDROOT
BRANCH   1  14
ATOM     10  C   UNL     1       7.343   7.365  17.110  0.00  0.00    +0.000 C 
ATOM     11  C   UNL     1       6.216   6.516  17.631  0.00  0.00    +0.000 A 
ATOM     12  C   UNL     1       4.903   7.004  17.593  0.00  0.00    +0.000 A 
ATOM     13  C   UNL     1       3.832   6.212  18.022  0.00  0.00    +0.000 A 
ATOM     14  C   UNL     1       4.018   4.905  18.497  0.00  0.00    +0.000 A 
ATOM     15  C   UNL     1       5.352   4.452  18.579  0.00  0.00    +0.000 A 
ATOM     16  C   UNL     1       6.446   5.240  18.168  0.00  0.00    +0.000 A 
ATOM     17  C   UNL     1       7.840   4.690  18.313  0.00  0.00    +0.000 C 
BRANCH  13  18
ATOM     18  O   UNL     1       2.564   6.721  17.954  0.00  0.00    +0.000 OA
ATOM     19  H   UNL     1       2.023   6.151  17.385  0.00  0.00    +0.000 HD
ENDBRANCH  13  18
ENDBRANCH   1  14
BRANCH   1  20
ATOM     20  C   UNL     1       2.071   3.434  17.615  0.00  0.00    +0.000 C 
ATOM     21  F   UNL     1       2.848   3.289  16.516  0.00  0.00    +0.000 F 
ATOM     22  F   UNL     1       1.467   2.235  17.814  0.00  0.00    +0.000 F 
ATOM     23  F   UNL     1       1.042   4.267  17.260  0.00  0.00    +0.000 F 
ENDBRANCH   1  20
TORSDOF 3
ENDMDL
MODEL 2
REMARK VINA RESULT:      -7.5      0.885      1.261
REMARK  Name = 
REMARK  5 active torsions:
REMARK  status: ('A' for Active; 'I' for Inactive)
REMARK    1  A    between atoms: C_1  and  C_2
REMARK    2  A    between atoms: C_4  and  O_5
REMARK    3  A    between atoms: C_6  and  C_7
REMARK    4  A    between atoms: C_7  and  C_8
REMARK    5  A    between atoms: C_19  and  C_20
REMARK                            x       y       z     vdW  Elec       q    Type
REMARK                         _______ _______ _______ _____ _____    ______ ____
ROOT
ATOM      1  C   UNL     1       3.380   3.706  18.940  0.00  0.00    +0.000 C 
ATOM      2  N   UNL     1       2.076   4.412  19.318  0.00  0.00    +0.000 NA
ATOM      3  C   UNL     1       1.987   4.793  20.724  0.00  0.00    +0.000 C 
ATOM      4  C   UNL     1       2.092   3.569  21.624  0.00  0.00    +0.000 C 
ATOM      5  N   UNL     1       3.245   2.766  21.307  0.00  0.00    +0.000 N 
ATOM      6  C   UNL     1       3.840   2.719  20.069  0.00  0.00    +0.000 C 
ATOM      7  O   UNL     1       4.799   1.946  19.953  0.00  0.00    +0.000 OA
ATOM      8  H   UNL     1       1.305   3.795  19.057  0.00  0.00    +0.000 HD
ATOM      9  H   UNL     1       3.576   2.071  21.965  0.00  0.00    +0.000 HD
ENDROOT
BRANCH   1  14
ATOM     10  C   UNL     1       7.540   7.665  17.532  0.00  0.00    +0.000 C 
ATOM     11  C   UNL     1       6.485   6.680  17.958  0.00  0.00    +0.000 A 
ATOM     12  C   UNL     1       5.172   6.823  17.490  0.00  0.00    +0.000 A 
ATOM     13  C   UNL     1       4.186   5.889  17.830  0.00  0.00    +0.000 A 
ATOM     14  C   UNL     1       4.464   4.776  18.637  0.00  0.00    +0.000 A 
ATOM     15  C   UNL     1       5.778   4.679  19.142  0.00  0.00    +0.000 A 
ATOM     16  C   UNL     1       6.781   5.618  18.827  0.00  0.00    +0.000 A 
ATOM     17  C   UNL     1       8.152   5.456  19.429  0.00  0.00    +0.000 C 
BRANCH  13  18
ATOM     18  O   UNL     1       2.920   6.057  17.341  0.00  0.00    +0.000 OA
ATOM     19  H   UNL     1       2.372   6.485  18.018  0.00  0.00    +0.000 HD
ENDBRANCH  13  18
ENDBRANCH   1  14
BRANCH   1  20
ATOM     20  C   UNL     1       3.155   2.741  17.699  0.00  0.00    +0.000 C 
ATOM     21  F   UNL     1       2.755   1.486  18.011  0.00  0.00    +0.000 F 
ATOM     22  F   UNL     1       2.265   3.207  16.787  0.00  0.00    +0.000 F 
ATOM     23  F   UNL     1       4.320   2.616  16.989  0.00  0.00    +0.000 F 
ENDBRANCH   1  20
TORSDOF 3
ENDMDL
MODEL 3
REMARK VINA RESULT:      -7.4      2.289      5.092
REMARK  Name = 
REMARK  5 active torsions:
REMARK  status: ('A' for Active; 'I' for Inactive)
REMARK    1  A    between atoms: C_1  and  C_2
REMARK    2  A    between atoms: C_4  and  O_5
REMARK    3  A    between atoms: C_6  and  C_7
REMARK    4  A    between atoms: C_7  and  C_8
REMARK    5  A    between atoms: C_19  and  C_20
REMARK                            x       y       z     vdW  Elec       q    Type
REMARK                         _______ _______ _______ _____ _____    ______ ____
ROOT
ATOM      1  C   UNL     1       5.461   4.865  17.620  0.00  0.00    +0.000 C 
ATOM      2  N   UNL     1       6.857   4.433  18.074  0.00  0.00    +0.000 NA
ATOM      3  C   UNL     1       7.539   5.407  18.919  0.00  0.00    +0.000 C 
ATOM      4  C   UNL     1       7.714   6.731  18.188  0.00  0.00    +0.000 C 
ATOM      5  N   UNL     1       6.471   7.207  17.633  0.00  0.00    +0.000 N 
ATOM      6  C   UNL     1       5.423   6.394  17.273  0.00  0.00    +0.000 C 
ATOM      7  O   UNL     1       4.442   6.958  16.773  0.00  0.00    +0.000 OA
ATOM      8  H   UNL     1       7.404   4.231  17.236  0.00  0.00    +0.000 HD
ATOM      9  H   UNL     1       6.383   8.171  17.339  0.00  0.00    +0.000 HD
ENDROOT
BRANCH   1  14
ATOM     10  C   UNL     1       1.404   3.353  21.646  0.00  0.00    +0.000 C 
ATOM     11  C   UNL     1       2.465   3.782  20.671  0.00  0.00    +0.000 A 
ATOM     12  C   UNL     1       3.426   2.858  20.239  0.00  0.00    +0.000 A 
ATOM     13  C   UNL     1       4.391   3.219  19.291  0.00  0.00    +0.000 A 
ATOM     14  C   UNL     1       4.435   4.503  18.728  0.00  0.00    +0.000 A 
ATOM     15  C   UNL     1       3.494   5.434  19.215  0.00  0.00    +0.000 A 
ATOM     16  C   UNL     1       2.525   5.097  20.182  0.00  0.00    +0.000 A 
ATOM     17  C   UNL     1       1.573   6.158  20.667  0.00  0.00    +0.000 C 
BRANCH  13  18
ATOM     18  O   UNL     1       5.302   2.283  18.886  0.00  0.00    +0.000 OA
ATOM     19  H   UNL     1       6.197   2.646  18.987  0.00  0.00    +0.000 HD
ENDBRANCH  13  18
ENDBRANCH   1  14
BRANCH   1  20
ATOM     20  C   UNL     1       5.086   4.180  16.237  0.00  0.00    +0.000 C 
ATOM     21  F   UNL     1       5.214   4.974  15.148  0.00  0.00    +0.000 F 
ATOM     22  F   UNL     1       5.786   3.050  15.968  0.00  0.00    +0.000 F 
ATOM     23  F   UNL     1       3.781   3.761  16.264  0.00  0.00    +0.000 F 
ENDBRANCH   1  20
TORSDOF 3
ENDMDL
MODEL 4
REMARK VINA RESULT:      -7.3      2.932      5.109
REMARK  Name = 
REMARK  5 active torsions:
REMARK  status: ('A' for Active; 'I' for Inactive)
REMARK    1  A    between atoms: C_1  and  C_2
REMARK    2  A    between atoms: C_4  and  O_5
REMARK    3  A    between atoms: C_6  and  C_7
REMARK    4  A    between atoms: C_7  and  C_8
REMARK    5  A    between atoms: C_19  and  C_20
REMARK                            x       y       z     vdW  Elec       q    Type
REMARK                         _______ _______ _______ _____ _____    ______ ____
ROOT
ATOM      1  C   UNL     1       5.800   4.942  16.803  0.00  0.00    +0.000 C 
ATOM      2  N   UNL     1       6.965   4.595  17.734  0.00  0.00    +0.000 NA
ATOM      3  C   UNL     1       7.332   5.662  18.658  0.00  0.00    +0.000 C 
ATOM      4  C   UNL     1       7.744   6.917  17.900  0.00  0.00    +0.000 C 
ATOM      5  N   UNL     1       6.759   7.302  16.922  0.00  0.00    +0.000 N 
ATOM      6  C   UNL     1       5.886   6.430  16.316  0.00  0.00    +0.000 C 
ATOM      7  O   UNL     1       5.129   6.916  15.467  0.00  0.00    +0.000 OA
ATOM      8  H   UNL     1       7.759   4.330  17.148  0.00  0.00    +0.000 HD
ATOM      9  H   UNL     1       6.777   8.232  16.523  0.00  0.00    +0.000 HD
ENDROOT
BRANCH   1  14
ATOM     10  C   UNL     1       0.846   3.880  19.850  0.00  0.00    +0.000 C 
ATOM     11  C   UNL     1       2.072   4.129  19.015  0.00  0.00    +0.000 A 
ATOM     12  C   UNL     1       2.541   5.438  18.843  0.00  0.00    +0.000 A 
ATOM     13  C   UNL     1       3.710   5.689  18.115  0.00  0.00    +0.000 A 
ATOM     14  C   UNL     1       4.463   4.655  17.540  0.00  0.00    +0.000 A 
ATOM     15  C   UNL     1       3.946   3.350  17.678  0.00  0.00    +0.000 A 
ATOM     16  C   UNL     1       2.761   3.077  18.392  0.00  0.00    +0.000 A 
ATOM     17  C   UNL     1       2.264   1.658  18.470  0.00  0.00    +0.000 C 
BRANCH  13  18
ATOM     18  O   UNL     1       4.142   6.980  17.983  0.00  0.00    +0.000 OA
ATOM     19  H   UNL     1       4.698   7.209  18.745  0.00  0.00    +0.000 HD
ENDBRANCH  13  18
ENDBRANCH   1  14
BRANCH   1  20
ATOM     20  C   UNL     1       5.903   4.121  15.448  0.00  0.00    +0.000 C 
ATOM     21  F   UNL     1       6.078   2.787  15.595  0.00  0.00    +0.000 F 
ATOM     22  F   UNL     1       4.838   4.275  14.622  0.00  0.00    +0.000 F 
ATOM     23  F   UNL     1       6.963   4.576  14.708  0.00  0.00    +0.000 F 
ENDBRANCH   1  20
TORSDOF 3
ENDMDL
MODEL 5
REMARK VINA RESULT:      -7.2      3.715      5.480
REMARK  Name = 
REMARK  5 active torsions:
REMARK  status: ('A' for Active; 'I' for Inactive)
REMARK    1  A    between atoms: C_1  and  C_2
REMARK    2  A    between atoms: C_4  and  O_5
REMARK    3  A    between atoms: C_6  and  C_7
REMARK    4  A    between atoms: C_7  and  C_8
REMARK    5  A    between atoms: C_19  and  C_20
REMARK                            x       y       z     vdW  Elec       q    Type
REMARK                         _______ _______ _______ _____ _____    ______ ____
ROOT
ATOM      1  C   UNL     1       6.250   5.947  16.978  0.00  0.00    +0.000 C 
ATOM      2  N   UNL     1       5.634   6.447  15.669  0.00  0.00    +0.000 NA
ATOM      3  C   UNL     1       5.420   5.405  14.671  0.00  0.00    +0.000 C 
ATOM      4  C   UNL     1       6.734   4.732  14.300  0.00  0.00    +0.000 C 
ATOM      5  N   UNL     1       7.458   4.288  15.465  0.00  0.00    +0.000 N 
ATOM      6  C   UNL     1       7.344   4.855  16.711  0.00  0.00    +0.000 C 
ATOM      7  O   UNL     1       8.066   4.381  17.596  0.00  0.00    +0.000 OA
ATOM      8  H   UNL     1       6.242   7.182  15.304  0.00  0.00    +0.000 HD
ATOM      9  H   UNL     1       8.212   3.619  15.369  0.00  0.00    +0.000 HD
ENDROOT
BRANCH   1  14
ATOM     10  C   UNL     1       2.028   4.083  20.674  0.00  0.00    +0.000 C 
ATOM     11  C   UNL     1       3.085   4.503  19.690  0.00  0.00    +0.000 A 
ATOM     12  C   UNL     1       2.952   5.717  19.003  0.00  0.00    +0.000 A 
ATOM     13  C   UNL     1       3.948   6.154  18.122  0.00  0.00    +0.000 A 
ATOM     14  C   UNL     1       5.117   5.412  17.896  0.00  0.00    +0.000 A 
ATOM     15  C   UNL     1       5.208   4.168  18.555  0.00  0.00    +0.000 A 
ATOM     16  C   UNL     1       4.208   3.701  19.432  0.00  0.00    +0.000 A 
ATOM     17  C   UNL     1       4.371   2.349  20.075  0.00  0.00    +0.000 C 
BRANCH  13  18
ATOM     18  O   UNL     1       3.786   7.352  17.482  0.00  0.00    +0.000 OA
ATOM     19  H   UNL     1       3.157   7.239  16.751  0.00  0.00    +0.000 HD
ENDBRANCH  13  18
ENDBRANCH   1  14
BRANCH   1  20
ATOM     20  C   UNL     1       7.073   7.105  17.687  0.00  0.00    +0.000 C 
ATOM     21  F   UNL     1       6.413   8.279  17.825  0.00  0.00    +0.000 F 
ATOM     22  F   UNL     1       7.536   6.783  18.921  0.00  0.00    +0.000 F 
ATOM     23  F   UNL     1       8.208   7.375  16.969  0.00  0.00    +0.000 F 
ENDBRANCH   1  20
TORSDOF 3
ENDMDL
MODEL 6
REMARK VINA RESULT:      -7.2      2.668      4.233
REMARK  Name = 
REMARK  5 active torsions:
REMARK  status: ('A' for Active; 'I' for Inactive)
REMARK    1  A    between atoms: C_1  and  C_2
REMARK    2  A    between atoms: C_4  and  O_5
REMARK    3  A    between atoms: C_6  and  C_7
REMARK    4  A    between atoms: C_7  and  C_8
REMARK    5  A    between atoms: C_19  and  C_20
REMARK                            x       y       z     vdW  Elec       q    Type
REMARK                         _______ _______ _______ _____ _____    ______ ____
ROOT
ATOM      1  C   UNL     1       4.079   4.608  17.772  0.00  0.00    +0.000 C 
ATOM      2  N   UNL     1       3.079   3.785  16.956  0.00  0.00    +0.000 NA
ATOM      3  C   UNL     1       2.407   2.736  17.714  0.00  0.00    +0.000 C 
ATOM      4  C   UNL     1       3.416   1.747  18.282  0.00  0.00    +0.000 C 
ATOM      5  N   UNL     1       4.469   2.411  19.008  0.00  0.00    +0.000 N 
ATOM      6  C   UNL     1       4.881   3.701  18.769  0.00  0.00    +0.000 C 
ATOM      7  O   UNL     1       5.826   4.108  19.455  0.00  0.00    +0.000 OA
ATOM      8  H   UNL     1       3.581   3.395  16.157  0.00  0.00    +0.000 HD
ATOM      9  H   UNL     1       5.063   1.885  19.636  0.00  0.00    +0.000 HD
ENDROOT
BRANCH   1  14
ATOM     10  C   UNL     1       0.936   8.784  20.535  0.00  0.00    +0.000 C 
ATOM     11  C   UNL     1       1.793   7.765  19.836  0.00  0.00    +0.000 A 
ATOM     12  C   UNL     1       2.086   6.551  20.470  0.00  0.00    +0.000 A 
ATOM     13  C   UNL     1       2.836   5.565  19.818  0.00  0.00    +0.000 A 
ATOM     14  C   UNL     1       3.317   5.740  18.512  0.00  0.00    +0.000 A 
ATOM     15  C   UNL     1       3.058   6.990  17.910  0.00  0.00    +0.000 A 
ATOM     16  C   UNL     1       2.320   8.002  18.556  0.00  0.00    +0.000 A 
ATOM     17  C   UNL     1       2.110   9.318  17.854  0.00  0.00    +0.000 C 
BRANCH  13  18
ATOM     18  O   UNL     1       3.088   4.388  20.467  0.00  0.00    +0.000 OA
ATOM     19  H   UNL     1       3.271   3.696  19.811  0.00  0.00    +0.000 HD
ENDBRANCH  13  18
ENDBRANCH   1  14
BRANCH   1  20
ATOM     20  C   UNL     1       5.219   5.193  16.834  0.00  0.00    +0.000 C 
ATOM     21  F   UNL     1       4.788   5.719  15.664  0.00  0.00    +0.000 F 
ATOM     22  F   UNL     1       5.986   6.147  17.419  0.00  0.00    +0.000 F 
ATOM     23  F   UNL     1       6.111   4.204  16.513  0.00  0.00    +0.000 F 
ENDBRANCH   1  20
TORSDOF 3
ENDMDL
MODEL 7
REMARK VINA RESULT:      -7.1      2.717      5.223
REMARK  Name = 
REMARK  5 active torsions:
REMARK  status: ('A' for Active; 'I' for Inactive)
REMARK    1  A    between atoms: C_1  and  C_2
REMARK    2  A    between atoms: C_4  and  O_5
REMARK    3  A    between atoms: C_6  and  C_7
REMARK    4  A    between atoms: C_7  and  C_8
REMARK    5  A    between atoms: C_19  and  C_20
REMARK                            x       y       z     vdW  Elec       q    Type
REMARK                         _______ _______ _______ _____ _____    ______ ____
ROOT
ATOM      1  C   UNL     1       5.947   5.337  17.448  0.00  0.00    +0.000 C 
ATOM      2  N   UNL     1       7.188   4.923  18.242  0.00  0.00    +0.000 NA
ATOM      3  C   UNL     1       7.755   5.987  19.063  0.00  0.00    +0.000 C 
ATOM      4  C   UNL     1       8.169   7.174  18.204  0.00  0.00    +0.000 C 
ATOM      5  N   UNL     1       7.101   7.608  17.338  0.00  0.00    +0.000 N 
ATOM      6  C   UNL     1       6.091   6.794  16.886  0.00  0.00    +0.000 C 
ATOM      7  O   UNL     1       5.274   7.314  16.116  0.00  0.00    +0.000 OA
ATOM      8  H   UNL     1       7.877   4.571  17.575  0.00  0.00    +0.000 HD
ATOM      9  H   UNL     1       7.144   8.519  16.898  0.00  0.00    +0.000 HD
ENDROOT
BRANCH   1  14
ATOM     10  C   UNL     1       1.060   4.642  20.703  0.00  0.00    +0.000 C 
ATOM     11  C   UNL     1       2.327   4.867  19.923  0.00  0.00    +0.000 A 
ATOM     12  C   UNL     1       3.266   3.834  19.811  0.00  0.00    +0.000 A 
ATOM     13  C   UNL     1       4.427   4.001  19.046  0.00  0.00    +0.000 A 
ATOM     14  C   UNL     1       4.696   5.193  18.356  0.00  0.00    +0.000 A 
ATOM     15  C   UNL     1       3.765   6.240  18.525  0.00  0.00    +0.000 A 
ATOM     16  C   UNL     1       2.599   6.098  19.305  0.00  0.00    +0.000 A 
ATOM     17  C   UNL     1       1.671   7.274  19.455  0.00  0.00    +0.000 C 
BRANCH  13  18
ATOM     18  O   UNL     1       5.311   2.963  18.950  0.00  0.00    +0.000 OA
ATOM     19  H   UNL     1       5.695   2.953  18.058  0.00  0.00    +0.000 HD
ENDBRANCH  13  18
ENDBRANCH   1  14
BRANCH   1  20
ATOM     20  C   UNL     1       5.809   4.463  16.129  0.00  0.00    +0.000 C 
ATOM     21  F   UNL     1       6.367   5.002  15.021  0.00  0.00    +0.000 F 
ATOM     22  F   UNL     1       6.316   3.209  16.237  0.00  0.00    +0.000 F 
ATOM     23  F   UNL     1       4.485   4.260  15.842  0.00  0.00    +0.000 F 
ENDBRANCH   1  20
TORSDOF 3
ENDMDL
MODEL 8
REMARK VINA RESULT:      -6.9      2.674      4.251
REMARK  Name = 
REMARK  5 active torsions:
REMARK  status: ('A' for Active; 'I' for Inactive)
REMARK    1  A    between atoms: C_1  and  C_2
REMARK    2  A    between atoms: C_4  and  O_5
REMARK    3  A    between atoms: C_6  and  C_7
REMARK    4  A    between atoms: C_7  and  C_8
REMARK    5  A    between atoms: C_19  and  C_20
REMARK                            x       y       z     vdW  Elec       q    Type
REMARK                         _______ _______ _______ _____ _____    ______ ____
ROOT
ATOM      1  C   UNL     1       4.665   4.600  18.776  0.00  0.00    +0.000 C 
ATOM      2  N   UNL     1       5.889   4.903  19.643  0.00  0.00    +0.000 NA
ATOM      3  C   UNL     1       6.987   5.541  18.927  0.00  0.00    +0.000 C 
ATOM      4  C   UNL     1       7.475   4.658  17.786  0.00  0.00    +0.000 C 
ATOM      5  N   UNL     1       6.392   4.231  16.936  0.00  0.00    +0.000 N 
ATOM      6  C   UNL     1       5.088   4.103  17.349  0.00  0.00    +0.000 C 
ATOM      7  O   UNL     1       4.286   3.685  16.505  0.00  0.00    +0.000 OA
ATOM      8  H   UNL     1       6.191   4.024  20.067  0.00  0.00    +0.000 HD
ATOM      9  H   UNL     1       6.587   3.853  16.018  0.00  0.00    +0.000 HD
ENDROOT
BRANCH   1  14
ATOM     10  C   UNL     1       1.496   9.586  18.554  0.00  0.00    +0.000 C 
ATOM     11  C   UNL     1       2.240   8.280  18.607  0.00  0.00    +0.000 A 
ATOM     12  C   UNL     1       3.068   7.909  17.539  0.00  0.00    +0.000 A 
ATOM     13  C   UNL     1       3.812   6.724  17.589  0.00  0.00    +0.000 A 
ATOM     14  C   UNL     1       3.773   5.869  18.700  0.00  0.00    +0.000 A 
ATOM     15  C   UNL     1       2.894   6.233  19.742  0.00  0.00    +0.000 A 
ATOM     16  C   UNL     1       2.122   7.412  19.703  0.00  0.00    +0.000 A 
ATOM     17  C   UNL     1       1.188   7.713  20.845  0.00  0.00    +0.000 C 
BRANCH  13  18
ATOM     18  O   UNL     1       4.619   6.405  16.531  0.00  0.00    +0.000 OA
ATOM     19  H   UNL     1       5.545   6.426  16.821  0.00  0.00    +0.000 HD
ENDBRANCH  13  18
ENDBRANCH   1  14
BRANCH   1  20
ATOM     20  C   UNL     1       3.860   3.360  19.356  0.00  0.00    +0.000 C 
ATOM     21  F   UNL     1       3.679   3.369  20.697  0.00  0.00    +0.000 F 
ATOM     22  F   UNL     1       2.631   3.188  18.808  0.00  0.00    +0.000 F 
ATOM     23  F   UNL     1       4.520   2.197  19.058  0.00  0.00    +0.000 F 
ENDBRANCH   1  20
TORSDOF 3
ENDMDL
MODEL 9
REMARK VINA RESULT:      -6.8      2.719      4.657
REMARK  Name = 
REMARK  5 active torsions:
REMARK  status: ('A' for Active; 'I' for Inactive)
REMARK    1  A    between atoms: C_1  and  C_2
REMARK    2  A    between atoms: C_4  and  O_5
REMARK    3  A    between atoms: C_6  and  C_7
REMARK    4  A    between atoms: C_7  and  C_8
REMARK    5  A    between atoms: C_19  and  C_20
REMARK                            x       y       z     vdW  Elec       q    Type
REMARK                         _______ _______ _______ _____ _____    ______ ____
ROOT
ATOM      1  C   UNL     1       4.534   5.264  17.957  0.00  0.00    +0.000 C 
ATOM      2  N   UNL     1       5.445   4.707  19.054  0.00  0.00    +0.000 NA
ATOM      3  C   UNL     1       6.613   5.533  19.339  0.00  0.00    +0.000 C 
ATOM      4  C   UNL     1       7.480   5.691  18.098  0.00  0.00    +0.000 C 
ATOM      5  N   UNL     1       6.715   6.133  16.960  0.00  0.00    +0.000 N 
ATOM      6  C   UNL     1       5.371   5.899  16.792  0.00  0.00    +0.000 C 
ATOM      7  O   UNL     1       4.872   6.312  15.738  0.00  0.00    +0.000 OA
ATOM      8  H   UNL     1       5.723   3.765  18.774  0.00  0.00    +0.000 HD
ATOM      9  H   UNL     1       7.185   6.511  16.147  0.00  0.00    +0.000 HD
ENDROOT
BRANCH   1  14
ATOM     10  C   UNL     1       0.594   9.015  20.272  0.00  0.00    +0.000 C 
ATOM     11  C   UNL     1       1.647   8.110  19.693  0.00  0.00    +0.000 A 
ATOM     12  C   UNL     1       1.994   6.930  20.365  0.00  0.00    +0.000 A 
ATOM     13  C   UNL     1       2.933   6.046  19.820  0.00  0.00    +0.000 A 
ATOM     14  C   UNL     1       3.555   6.292  18.587  0.00  0.00    +0.000 A 
ATOM     15  C   UNL     1       3.233   7.510  17.953  0.00  0.00    +0.000 A 
ATOM     16  C   UNL     1       2.304   8.422  18.493  0.00  0.00    +0.000 A 
ATOM     17  C   UNL     1       2.037   9.713  17.765  0.00  0.00    +0.000 C 
BRANCH  13  18
ATOM     18  O   UNL     1       3.232   4.898  20.500  0.00  0.00    +0.000 OA
ATOM     19  H   UNL     1       3.346   5.108  21.442  0.00  0.00    +0.000 HD
ENDBRANCH  13  18
ENDBRANCH   1  14
BRANCH   1  20
ATOM     20  C   UNL     1       3.752   4.089  17.229  0.00  0.00    +0.000 C 
ATOM     21  F   UNL     1       2.429   4.306  17.045  0.00  0.00    +0.000 F 
ATOM     22  F   UNL     1       4.255   3.755  16.014  0.00  0.00    +0.000 F 
ATOM     23  F   UNL     1       3.862   2.935  17.960  0.00  0.00    +0.000 F 
ENDBRANCH   1  20
TORSDOF 3
ENDMDL
