MODEL 1
REMARK VINA RESULT:      -7.0      0.000      0.000
REMARK  Name = 
REMARK  6 active torsions:
REMARK  status: ('A' for Active; 'I' for Inactive)
REMARK    1  A    between atoms: C_1  and  N_2
REMARK    2  A    between atoms: N_2  and  C_3
REMARK    3  A    between atoms: N_2  and  C_4
REMARK    4  A    between atoms: C_4  and  C_5
REMARK    5  A    between atoms: C_5  and  N_6
REMARK    6  A    between atoms: N_6  and  C_7
REMARK                            x       y       z     vdW  Elec       q    Type
REMARK                         _______ _______ _______ _____ _____    ______ ____
ROOT
ATOM      1  C   UNL     1       5.644   4.312  18.095  0.00  0.00    +0.000 A 
ATOM      2  N   UNL     1       6.674   3.966  17.247  0.00  0.00    +0.000 N 
ATOM      3  C   UNL     1       6.937   4.675  16.110  0.00  0.00    +0.000 A 
ATOM      4  N   UNL     1       6.336   5.750  15.724  0.00  0.00    +0.000 NA
ATOM      5  C   UNL     1       5.341   6.187  16.557  0.00  0.00    +0.000 A 
ATOM      6  N   UNL     1       4.618   7.254  16.359  0.00  0.00    +0.000 NA
ATOM      7  C   UNL     1       3.727   7.284  17.464  0.00  0.00    +0.000 A 
ATOM      8  C   UNL     1       2.779   8.261  17.705  0.00  0.00    +0.000 A 
ATOM      9  C   UNL     1       1.994   8.158  18.859  0.00  0.00    +0.000 A 
ATOM     10  C   UNL     1       2.169   7.085  19.753  0.00  0.00    +0.000 A 
ATOM     11  C   UNL     1       3.127   6.096  19.510  0.00  0.00    +0.000 A 
ATOM     12  C   UNL     1       3.889   6.210  18.364  0.00  0.00    +0.000 A 
ATOM     13  C   UNL     1       4.971   5.434  17.793  0.00  0.00    +0.000 A 
ATOM     14  H   UNL     1       7.082   3.050  17.397  0.00  0.00    +0.000 HD
ENDROOT
BRANCH   1  15
ATOM     15  N   UNL     1       5.363   3.501  19.185  0.00  0.00    +0.000 N 
ATOM     16  H   UNL     1       6.207   2.972  19.413  0.00  0.00    +0.000 HD
BRANCH  15  17
ATOM     17  C   UNL     1       4.265   2.522  19.089  0.00  0.00    +0.000 C 
BRANCH  17  18
ATOM     18  C   UNL     1       3.381   2.520  20.364  0.00  0.00    +0.000 C 
BRANCH  18  20
ATOM     19  C   UNL     1       1.151   3.390  20.798  0.00  0.00    +0.000 C 
ATOM     20  N   UNL     1       1.925   2.346  20.112  0.00  0.00    +0.000 NA
ATOM     21  C   UNL     1       1.667   2.438  18.668  0.00  0.00    +0.000 C 
ENDBRANCH  18  20
ENDBRANCH  17  18
ENDBRANCH  15  17
ENDBRANCH   1  15
TORSDOF 4
ENDMDL
MODEL 2
REMARK VINA RESULT:      -6.9      1.582      4.399
REMARK  Name = 
REMARK  6 active torsions:
REMARK  status: ('A' for Active; 'I' for Inactive)
REMARK    1  A    between atoms: C_1  and  N_2
REMARK    2  A    between atoms: N_2  and  C_3
REMARK    3  A    between atoms: N_2  and  C_4
REMARK    4  A    between atoms: C_4  and  C_5
REMARK    5  A    between atoms: C_5  and  N_6
REMARK    6  A    between atoms: N_6  and  C_7
REMARK                            x       y       z     vdW  Elec       q    Type
REMARK                         _______ _______ _______ _____ _____    ______ ____
ROOT
ATOM      1  C   UNL     1       3.999   3.786  17.608  0.00  0.00    +0.000 A 
ATOM      2  N   UNL     1       4.170   2.485  18.029  0.00  0.00    +0.000 N 
ATOM      3  C   UNL     1       3.845   2.091  19.296  0.00  0.00    +0.000 A 
ATOM      4  N   UNL     1       3.298   2.825  20.206  0.00  0.00    +0.000 NA
ATOM      5  C   UNL     1       3.040   4.116  19.830  0.00  0.00    +0.000 A 
ATOM      6  N   UNL     1       2.484   5.018  20.593  0.00  0.00    +0.000 NA
ATOM      7  C   UNL     1       2.440   6.182  19.783  0.00  0.00    +0.000 A 
ATOM      8  C   UNL     1       1.902   7.400  20.156  0.00  0.00    +0.000 A 
ATOM      9  C   UNL     1       1.913   8.446  19.227  0.00  0.00    +0.000 A 
ATOM     10  C   UNL     1       2.456   8.261  17.942  0.00  0.00    +0.000 A 
ATOM     11  C   UNL     1       3.001   7.030  17.563  0.00  0.00    +0.000 A 
ATOM     12  C   UNL     1       2.988   6.009  18.494  0.00  0.00    +0.000 A 
ATOM     13  C   UNL     1       3.412   4.624  18.476  0.00  0.00    +0.000 A 
ATOM     14  H   UNL     1       4.738   1.896  17.430  0.00  0.00    +0.000 HD
ENDROOT
BRANCH   1  15
ATOM     15  N   UNL     1       4.434   4.149  16.341  0.00  0.00    +0.000 N 
ATOM     16  H   UNL     1       3.851   3.667  15.654  0.00  0.00    +0.000 HD
BRANCH  15  17
ATOM     17  C   UNL     1       5.834   3.891  15.961  0.00  0.00    +0.000 C 
BRANCH  17  18
ATOM     18  C   UNL     1       6.598   5.206  15.647  0.00  0.00    +0.000 C 
BRANCH  18  20
ATOM     19  C   UNL     1       6.826   6.875  17.402  0.00  0.00    +0.000 C 
ATOM     20  N   UNL     1       7.450   5.711  16.758  0.00  0.00    +0.000 NA
ATOM     21  C   UNL     1       7.620   4.651  17.761  0.00  0.00    +0.000 C 
ENDBRANCH  18  20
ENDBRANCH  17  18
ENDBRANCH  15  17
ENDBRANCH   1  15
TORSDOF 4
ENDMDL
MODEL 3
REMARK VINA RESULT:      -6.8      2.370      4.288
REMARK  Name = 
REMARK  6 active torsions:
REMARK  status: ('A' for Active; 'I' for Inactive)
REMARK    1  A    between atoms: C_1  and  N_2
REMARK    2  A    between atoms: N_2  and  C_3
REMARK    3  A    between atoms: N_2  and  C_4
REMARK    4  A    between atoms: C_4  and  C_5
REMARK    5  A    between atoms: C_5  and  N_6
REMARK    6  A    between atoms: N_6  and  C_7
REMARK                            x       y       z     vdW  Elec       q    Type
REMARK                         _______ _______ _______ _____ _____    ______ ____
ROOT
ATOM      1  C   UNL     1       4.724   4.163  17.387  0.00  0.00    +0.000 A 
ATOM      2  N   UNL     1       4.893   4.712  18.640  0.00  0.00    +0.000 N 
ATOM      3  C   UNL     1       5.973   5.492  18.942  0.00  0.00    +0.000 A 
ATOM      4  N   UNL     1       6.901   5.861  18.124  0.00  0.00    +0.000 NA
ATOM      5  C   UNL     1       6.758   5.402  16.842  0.00  0.00    +0.000 A 
ATOM      6  N   UNL     1       7.576   5.664  15.861  0.00  0.00    +0.000 NA
ATOM      7  C   UNL     1       7.028   4.969  14.752  0.00  0.00    +0.000 A 
ATOM      8  C   UNL     1       7.541   4.973  13.467  0.00  0.00    +0.000 A 
ATOM      9  C   UNL     1       6.863   4.254  12.477  0.00  0.00    +0.000 A 
ATOM     10  C   UNL     1       5.686   3.544  12.782  0.00  0.00    +0.000 A 
ATOM     11  C   UNL     1       5.167   3.539  14.080  0.00  0.00    +0.000 A 
ATOM     12  C   UNL     1       5.851   4.249  15.047  0.00  0.00    +0.000 A 
ATOM     13  C   UNL     1       5.626   4.508  16.454  0.00  0.00    +0.000 A 
ATOM     14  H   UNL     1       4.298   4.339  19.371  0.00  0.00    +0.000 HD
ENDROOT
BRANCH   1  15
ATOM     15  N   UNL     1       3.658   3.303  17.164  0.00  0.00    +0.000 N 
ATOM     16  H   UNL     1       2.792   3.816  17.340  0.00  0.00    +0.000 HD
BRANCH  15  17
ATOM     17  C   UNL     1       3.570   2.051  17.938  0.00  0.00    +0.000 C 
BRANCH  17  18
ATOM     18  C   UNL     1       2.376   2.070  18.929  0.00  0.00    +0.000 C 
BRANCH  18  20
ATOM     19  C   UNL     1       1.070   3.897  19.866  0.00  0.00    +0.000 C 
ATOM     20  N   UNL     1       2.372   3.216  19.879  0.00  0.00    +0.000 NA
ATOM     21  C   UNL     1       2.634   2.722  21.238  0.00  0.00    +0.000 C 
ENDBRANCH  18  20
ENDBRANCH  17  18
ENDBRANCH  15  17
ENDBRANCH   1  15
TORSDOF 4
ENDMDL
MODEL 4
REMARK VINA RESULT:      -6.8      2.330      4.530
REMARK  Name = 
REMARK  6 active torsions:
REMARK  status: ('A' for Active; 'I' for Inactive)
REMARK    1  A    between atoms: C_1  and  N_2
REMARK    2  A    between atoms: N_2  and  C_3
REMARK    3  A    between atoms: N_2  and  C_4
REMARK    4  A    between atoms: C_4  and  C_5
REMARK    5  A    between atoms: C_5  and  N_6
REMARK    6  A    between atoms: N_6  and  C_7
REMARK                            x       y       z     vdW  Elec       q    Type
REMARK                         _______ _______ _______ _____ _____    ______ ____
ROOT
ATOM      1  C   UNL     1       4.695   4.398  16.876  0.00  0.00    +0.000 A 
ATOM      2  N   UNL     1       4.838   5.027  18.094  0.00  0.00    +0.000 N 
ATOM      3  C   UNL     1       5.921   5.811  18.374  0.00  0.00    +0.000 A 
ATOM      4  N   UNL     1       6.878   6.110  17.561  0.00  0.00    +0.000 NA
ATOM      5  C   UNL     1       6.763   5.568  16.308  0.00  0.00    +0.000 A 
ATOM      6  N   UNL     1       7.613   5.753  15.336  0.00  0.00    +0.000 NA
ATOM      7  C   UNL     1       7.085   4.992  14.260  0.00  0.00    +0.000 A 
ATOM      8  C   UNL     1       7.633   4.903  12.994  0.00  0.00    +0.000 A 
ATOM      9  C   UNL     1       6.972   4.128  12.035  0.00  0.00    +0.000 A 
ATOM     10  C   UNL     1       5.776   3.457  12.352  0.00  0.00    +0.000 A 
ATOM     11  C   UNL     1       5.221   3.546  13.632  0.00  0.00    +0.000 A 
ATOM     12  C   UNL     1       5.889   4.310  14.569  0.00  0.00    +0.000 A 
ATOM     13  C   UNL     1       5.628   4.666  15.949  0.00  0.00    +0.000 A 
ATOM     14  H   UNL     1       4.217   4.713  18.830  0.00  0.00    +0.000 HD
ENDROOT
BRANCH   1  15
ATOM     15  N   UNL     1       3.623   3.540  16.680  0.00  0.00    +0.000 N 
ATOM     16  H   UNL     1       3.302   3.645  15.715  0.00  0.00    +0.000 HD
BRANCH  15  17
ATOM     17  C   UNL     1       2.430   3.673  17.536  0.00  0.00    +0.000 C 
BRANCH  17  18
ATOM     18  C   UNL     1       2.026   2.318  18.177  0.00  0.00    +0.000 C 
BRANCH  18  20
ATOM     19  C   UNL     1       3.296   2.667  20.223  0.00  0.00    +0.000 C 
ATOM     20  N   UNL     1       1.981   2.322  19.664  0.00  0.00    +0.000 NA
ATOM     21  C   UNL     1       0.999   3.315  20.119  0.00  0.00    +0.000 C 
ENDBRANCH  18  20
ENDBRANCH  17  18
ENDBRANCH  15  17
ENDBRANCH   1  15
TORSDOF 4
ENDMDL
MODEL 5
REMARK VINA RESULT:      -6.8      2.497      4.973
REMARK  Name = 
REMARK  6 active torsions:
REMARK  status: ('A' for Active; 'I' for Inactive)
REMARK    1  A    between atoms: C_1  and  N_2
REMARK    2  A    between atoms: N_2  and  C_3
REMARK    3  A    between atoms: N_2  and  C_4
REMARK    4  A    between atoms: C_4  and  C_5
REMARK    5  A    between atoms: C_5  and  N_6
REMARK    6  A    between atoms: N_6  and  C_7
REMARK                            x       y       z     vdW  Elec       q    Type
REMARK                         _______ _______ _______ _____ _____    ______ ____
ROOT
ATOM      1  C   UNL     1       6.529   4.172  17.134  0.00  0.00    +0.000 A 
ATOM      2  N   UNL     1       7.770   4.556  17.597  0.00  0.00    +0.000 N 
ATOM      3  C   UNL     1       7.919   5.229  18.775  0.00  0.00    +0.000 A 
ATOM      4  N   UNL     1       6.980   5.527  19.609  0.00  0.00    +0.000 NA
ATOM      5  C   UNL     1       5.727   5.117  19.239  0.00  0.00    +0.000 A 
ATOM      6  N   UNL     1       4.643   5.307  19.940  0.00  0.00    +0.000 NA
ATOM      7  C   UNL     1       3.612   4.728  19.155  0.00  0.00    +0.000 A 
ATOM      8  C   UNL     1       2.276   4.661  19.507  0.00  0.00    +0.000 A 
ATOM      9  C   UNL     1       1.388   4.031  18.629  0.00  0.00    +0.000 A 
ATOM     10  C   UNL     1       1.844   3.478  17.418  0.00  0.00    +0.000 A 
ATOM     11  C   UNL     1       3.194   3.546  17.061  0.00  0.00    +0.000 A 
ATOM     12  C   UNL     1       4.058   4.176  17.936  0.00  0.00    +0.000 A 
ATOM     13  C   UNL     1       5.486   4.415  17.943  0.00  0.00    +0.000 A 
ATOM     14  H   UNL     1       8.529   4.500  16.928  0.00  0.00    +0.000 HD
ENDROOT
BRANCH   1  15
ATOM     15  N   UNL     1       6.429   3.574  15.886  0.00  0.00    +0.000 N 
ATOM     16  H   UNL     1       7.159   2.862  15.815  0.00  0.00    +0.000 HD
BRANCH  15  17
ATOM     17  C   UNL     1       6.536   4.410  14.677  0.00  0.00    +0.000 C 
BRANCH  17  18
ATOM     18  C   UNL     1       5.380   4.133  13.680  0.00  0.00    +0.000 C 
BRANCH  18  20
ATOM     19  C   UNL     1       4.644   3.184  11.563  0.00  0.00    +0.000 C 
ATOM     20  N   UNL     1       5.738   3.242  12.542  0.00  0.00    +0.000 NA
ATOM     21  C   UNL     1       6.940   3.763  11.876  0.00  0.00    +0.000 C 
ENDBRANCH  18  20
ENDBRANCH  17  18
ENDBRANCH  15  17
ENDBRANCH   1  15
TORSDOF 4
ENDMDL
MODEL 6
REMARK VINA RESULT:      -6.7      2.509      5.302
REMARK  Name = 
REMARK  6 active torsions:
REMARK  status: ('A' for Active; 'I' for Inactive)
REMARK    1  A    between atoms: C_1  and  N_2
REMARK    2  A    between atoms: N_2  and  C_3
REMARK    3  A    between atoms: N_2  and  C_4
REMARK    4  A    between atoms: C_4  and  C_5
REMARK    5  A    between atoms: C_5  and  N_6
REMARK    6  A    between atoms: N_6  and  C_7
REMARK                            x       y       z     vdW  Elec       q    Type
REMARK                         _______ _______ _______ _____ _____    ______ ____
ROOT
ATOM      1  C   UNL     1       6.404   5.689  16.933  0.00  0.00    +0.000 A 
ATOM      2  N   UNL     1       7.565   6.270  17.397  0.00  0.00    +0.000 N 
ATOM      3  C   UNL     1       7.911   6.228  18.718  0.00  0.00    +0.000 A 
ATOM      4  N   UNL     1       7.271   5.614  19.656  0.00  0.00    +0.000 NA
ATOM      5  C   UNL     1       6.139   4.959  19.250  0.00  0.00    +0.000 A 
ATOM      6  N   UNL     1       5.354   4.271  20.033  0.00  0.00    +0.000 NA
ATOM      7  C   UNL     1       4.327   3.801  19.175  0.00  0.00    +0.000 A 
ATOM      8  C   UNL     1       3.270   2.994  19.554  0.00  0.00    +0.000 A 
ATOM      9  C   UNL     1       2.352   2.595  18.577  0.00  0.00    +0.000 A 
ATOM     10  C   UNL     1       2.503   3.004  17.238  0.00  0.00    +0.000 A 
ATOM     11  C   UNL     1       3.571   3.821  16.854  0.00  0.00    +0.000 A 
ATOM     12  C   UNL     1       4.465   4.211  17.832  0.00  0.00    +0.000 A 
ATOM     13  C   UNL     1       5.678   5.002  17.830  0.00  0.00    +0.000 A 
ATOM     14  H   UNL     1       8.031   6.902  16.756  0.00  0.00    +0.000 HD
ENDROOT
BRANCH   1  15
ATOM     15  N   UNL     1       6.057   5.843  15.599  0.00  0.00    +0.000 N 
ATOM     16  H   UNL     1       5.049   5.694  15.513  0.00  0.00    +0.000 HD
BRANCH  15  17
ATOM     17  C   UNL     1       6.697   4.986  14.585  0.00  0.00    +0.000 C 
BRANCH  17  18
ATOM     18  C   UNL     1       5.695   3.974  13.970  0.00  0.00    +0.000 C 
BRANCH  18  20
ATOM     19  C   UNL     1       5.012   3.162  11.780  0.00  0.00    +0.000 C 
ATOM     20  N   UNL     1       6.145   3.348  12.697  0.00  0.00    +0.000 NA
ATOM     21  C   UNL     1       7.138   4.218  12.051  0.00  0.00    +0.000 C 
ENDBRANCH  18  20
ENDBRANCH  17  18
ENDBRANCH  15  17
ENDBRANCH   1  15
TORSDOF 4
ENDMDL
MODEL 7
REMARK VINA RESULT:      -6.6      2.826      5.625
REMARK  Name = 
REMARK  6 active torsions:
REMARK  status: ('A' for Active; 'I' for Inactive)
REMARK    1  A    between atoms: C_1  and  N_2
REMARK    2  A    between atoms: N_2  and  C_3
REMARK    3  A    between atoms: N_2  and  C_4
REMARK    4  A    between atoms: C_4  and  C_5
REMARK    5  A    between atoms: C_5  and  N_6
REMARK    6  A    between atoms: N_6  and  C_7
REMARK                            x       y       z     vdW  Elec       q    Type
REMARK                         _______ _______ _______ _____ _____    ______ ____
ROOT
ATOM      1  C   UNL     1       2.507   5.981  20.096  0.00  0.00    +0.000 A 
ATOM      2  N   UNL     1       2.019   5.238  21.149  0.00  0.00    +0.000 N 
ATOM      3  C   UNL     1       2.150   3.879  21.191  0.00  0.00    +0.000 A 
ATOM      4  N   UNL     1       2.775   3.145  20.332  0.00  0.00    +0.000 NA
ATOM      5  C   UNL     1       3.341   3.830  19.290  0.00  0.00    +0.000 A 
ATOM      6  N   UNL     1       4.023   3.283  18.322  0.00  0.00    +0.000 NA
ATOM      7  C   UNL     1       4.387   4.374  17.490  0.00  0.00    +0.000 A 
ATOM      8  C   UNL     1       5.151   4.288  16.340  0.00  0.00    +0.000 A 
ATOM      9  C   UNL     1       5.444   5.467  15.646  0.00  0.00    +0.000 A 
ATOM     10  C   UNL     1       4.974   6.710  16.108  0.00  0.00    +0.000 A 
ATOM     11  C   UNL     1       4.201   6.798  17.270  0.00  0.00    +0.000 A 
ATOM     12  C   UNL     1       3.915   5.625  17.941  0.00  0.00    +0.000 A 
ATOM     13  C   UNL     1       3.197   5.311  19.159  0.00  0.00    +0.000 A 
ATOM     14  H   UNL     1       1.383   5.720  21.774  0.00  0.00    +0.000 HD
ENDROOT
BRANCH   1  15
ATOM     15  N   UNL     1       2.263   7.346  20.060  0.00  0.00    +0.000 N 
ATOM     16  H   UNL     1       3.150   7.832  20.202  0.00  0.00    +0.000 HD
BRANCH  15  17
ATOM     17  C   UNL     1       1.306   7.930  21.018  0.00  0.00    +0.000 C 
BRANCH  17  18
ATOM     18  C   UNL     1       1.007   9.419  20.699  0.00  0.00    +0.000 C 
BRANCH  18  20
ATOM     19  C   UNL     1      -0.140  11.378  21.575  0.00  0.00    +0.000 C 
ATOM     20  N   UNL     1       0.782  10.279  21.893  0.00  0.00    +0.000 NA
ATOM     21  C   UNL     1       0.199   9.470  22.972  0.00  0.00    +0.000 C 
ENDBRANCH  18  20
ENDBRANCH  17  18
ENDBRANCH  15  17
ENDBRANCH   1  15
TORSDOF 4
ENDMDL
MODEL 8
REMARK VINA RESULT:      -6.5      2.370      4.648
REMARK  Name = 
REMARK  6 active torsions:
REMARK  status: ('A' for Active; 'I' for Inactive)
REMARK    1  A    between atoms: C_1  and  N_2
REMARK    2  A    between atoms: N_2  and  C_3
REMARK    3  A    between atoms: N_2  and  C_4
REMARK    4  A    between atoms: C_4  and  C_5
REMARK    5  A    between atoms: C_5  and  N_6
REMARK    6  A    between atoms: N_6  and  C_7
REMARK                            x       y       z     vdW  Elec       q    Type
REMARK                         _______ _______ _______ _____ _____    ______ ____
ROOT
ATOM      1  C   UNL     1       5.013   4.427  16.796  0.00  0.00    +0.000 A 
ATOM      2  N   UNL     1       5.329   5.074  17.971  0.00  0.00    +0.000 N 
ATOM      3  C   UNL     1       6.480   5.797  18.106  0.00  0.00    +0.000 A 
ATOM      4  N   UNL     1       7.355   6.019  17.182  0.00  0.00    +0.000 NA
ATOM      5  C   UNL     1       7.068   5.455  15.967  0.00  0.00    +0.000 A 
ATOM      6  N   UNL     1       7.812   5.565  14.901  0.00  0.00    +0.000 NA
ATOM      7  C   UNL     1       7.123   4.813  13.914  0.00  0.00    +0.000 A 
ATOM      8  C   UNL     1       7.519   4.661  12.598  0.00  0.00    +0.000 A 
ATOM      9  C   UNL     1       6.710   3.905  11.742  0.00  0.00    +0.000 A 
ATOM     10  C   UNL     1       5.520   3.316  12.211  0.00  0.00    +0.000 A 
ATOM     11  C   UNL     1       5.119   3.469  13.541  0.00  0.00    +0.000 A 
ATOM     12  C   UNL     1       5.932   4.213  14.375  0.00  0.00    +0.000 A 
ATOM     13  C   UNL     1       5.850   4.616  15.764  0.00  0.00    +0.000 A 
ATOM     14  H   UNL     1       4.778   4.816  18.781  0.00  0.00    +0.000 HD
ENDROOT
BRANCH   1  15
ATOM     15  N   UNL     1       3.878   3.631  16.747  0.00  0.00    +0.000 N 
ATOM     16  H   UNL     1       3.078   4.231  16.532  0.00  0.00    +0.000 HD
BRANCH  15  17
ATOM     17  C   UNL     1       3.503   2.838  17.932  0.00  0.00    +0.000 C 
BRANCH  17  18
ATOM     18  C   UNL     1       2.345   3.500  18.726  0.00  0.00    +0.000 C 
BRANCH  18  20
ATOM     19  C   UNL     1       2.334   5.726  19.709  0.00  0.00    +0.000 C 
ATOM     20  N   UNL     1       2.779   4.336  19.879  0.00  0.00    +0.000 NA
ATOM     21  C   UNL     1       2.193   3.800  21.116  0.00  0.00    +0.000 C 
ENDBRANCH  18  20
ENDBRANCH  17  18
ENDBRANCH  15  17
ENDBRANCH   1  15
TORSDOF 4
ENDMDL
MODEL 9
REMARK VINA RESULT:      -6.5      2.372      5.532
REMARK  Name = 
REMARK  6 active torsions:
REMARK  status: ('A' for Active; 'I' for Inactive)
REMARK    1  A    between atoms: C_1  and  N_2
REMARK    2  A    between atoms: N_2  and  C_3
REMARK    3  A    between atoms: N_2  and  C_4
REMARK    4  A    between atoms: C_4  and  C_5
REMARK    5  A    between atoms: C_5  and  N_6
REMARK    6  A    between atoms: N_6  and  C_7
REMARK                            x       y       z     vdW  Elec       q    Type
REMARK                         _______ _______ _______ _____ _____    ______ ____
ROOT
ATOM      1  C   UNL     1       2.234   5.901  19.914  0.00  0.00    +0.000 A 
ATOM      2  N   UNL     1       1.525   5.137  20.816  0.00  0.00    +0.000 N 
ATOM      3  C   UNL     1       1.402   3.784  20.671  0.00  0.00    +0.000 A 
ATOM      4  N   UNL     1       1.958   3.061  19.758  0.00  0.00    +0.000 NA
ATOM      5  C   UNL     1       2.731   3.752  18.864  0.00  0.00    +0.000 A 
ATOM      6  N   UNL     1       3.387   3.213  17.873  0.00  0.00    +0.000 NA
ATOM      7  C   UNL     1       4.017   4.311  17.231  0.00  0.00    +0.000 A 
ATOM      8  C   UNL     1       4.854   4.227  16.133  0.00  0.00    +0.000 A 
ATOM      9  C   UNL     1       5.419   5.406  15.635  0.00  0.00    +0.000 A 
ATOM     10  C   UNL     1       5.143   6.647  16.240  0.00  0.00    +0.000 A 
ATOM     11  C   UNL     1       4.297   6.733  17.350  0.00  0.00    +0.000 A 
ATOM     12  C   UNL     1       3.743   5.560  17.826  0.00  0.00    +0.000 A 
ATOM     13  C   UNL     1       2.873   5.237  18.937  0.00  0.00    +0.000 A 
ATOM     14  H   UNL     1       0.934   5.648  21.461  0.00  0.00    +0.000 HD
ENDROOT
BRANCH   1  15
ATOM     15  N   UNL     1       2.247   7.281  20.059  0.00  0.00    +0.000 N 
ATOM     16  H   UNL     1       3.179   7.559  20.374  0.00  0.00    +0.000 HD
BRANCH  15  17
ATOM     17  C   UNL     1       1.285   7.916  20.978  0.00  0.00    +0.000 C 
BRANCH  17  18
ATOM     18  C   UNL     1       1.047   9.408  20.622  0.00  0.00    +0.000 C 
BRANCH  18  20
ATOM     19  C   UNL     1      -0.782  10.295  19.284  0.00  0.00    +0.000 C 
ATOM     20  N   UNL     1       0.536   9.645  19.245  0.00  0.00    +0.000 NA
ATOM     21  C   UNL     1       1.471  10.517  18.522  0.00  0.00    +0.000 C 
ENDBRANCH  18  20
ENDBRANCH  17  18
ENDBRANCH  15  17
ENDBRANCH   1  15
TORSDOF 4
ENDMDL
