MODEL 1
REMARK VINA RESULT:      -8.5      0.000      0.000
REMARK  Name = 
REMARK  10 active torsions:
REMARK  status: ('A' for Active; 'I' for Inactive)
REMARK    1  A    between atoms: C_1  and  C_2
REMARK    2  A    between atoms: C_2  and  C_3
REMARK    3  A    between atoms: C_3  and  N_4
REMARK    4  A    between atoms: C_3  and  C_27
REMARK    5  A    between atoms: C_5  and  C_7
REMARK    6  A    between atoms: C_9  and  C_10
REMARK    7  A    between atoms: N_12  and  C_13
REMARK    8  A    between atoms: C_13  and  C_14
REMARK    9  A    between atoms: C_13  and  C_15
REMARK   10  A    between atoms: N_18  and  C_19
REMARK                            x       y       z     vdW  Elec       q    Type
REMARK                         _______ _______ _______ _____ _____    ______ ____
ROOT
ATOM      1  C   UNL     1       1.630   8.362  19.306  0.00  0.00    +0.000 A 
ATOM      2  C   UNL     1       1.018   9.168  18.301  0.00  0.00    +0.000 A 
ATOM      3  C   UNL     1       0.177  10.108  18.884  0.00  0.00    +0.000 A 
ATOM      4  N   UNL     1       0.295   9.899  20.250  0.00  0.00    +0.000 N 
ATOM      5  C   UNL     1       1.223   8.911  20.514  0.00  0.00    +0.000 A 
ATOM      6  C   UNL     1       1.592   8.529  21.917  0.00  0.00    +0.000 C 
ATOM      7  O   UNL     1       1.179   9.560  22.824  0.00  0.00    +0.000 OA
ATOM      8  C   UNL     1      -0.204   9.876  22.658  0.00  0.00    +0.000 C 
ATOM      9  C   UNL     1      -0.410  10.590  21.323  0.00  0.00    +0.000 C 
ENDROOT
BRANCH   1  11
ATOM     10  N   UNL     1       2.940   6.968  17.865  0.00  0.00    +0.000 N 
ATOM     11  C   UNL     1       2.503   7.190  19.154  0.00  0.00    +0.000 C 
ATOM     12  O   UNL     1       2.788   6.458  20.095  0.00  0.00    +0.000 OA
ATOM     13  H   UNL     1       2.648   7.586  17.127  0.00  0.00    +0.000 HD
BRANCH  10  14
ATOM     14  C   UNL     1       3.766   5.830  17.495  0.00  0.00    +0.000 C 
BRANCH  14  15
ATOM     15  C   UNL     1       5.220   6.101  17.892  0.00  0.00    +0.000 A 
ATOM     16  C   UNL     1       5.998   7.030  17.179  0.00  0.00    +0.000 A 
ATOM     17  C   UNL     1       7.342   7.242  17.510  0.00  0.00    +0.000 A 
ATOM     18  C   UNL     1       7.926   6.539  18.561  0.00  0.00    +0.000 A 
ATOM     19  C   UNL     1       7.166   5.630  19.291  0.00  0.00    +0.000 A 
ATOM     20  C   UNL     1       5.825   5.416  18.963  0.00  0.00    +0.000 A 
ENDBRANCH  14  15
BRANCH  14  22
ATOM     21  C   UNL     1       1.967   3.969  17.593  0.00  0.00    +0.000 C 
ATOM     22  C   UNL     1       3.276   4.516  18.145  0.00  0.00    +0.000 C 
ENDBRANCH  14  22
ENDBRANCH  10  14
ENDBRANCH   1  11
BRANCH   3  23
ATOM     23  C   UNL     1      -0.664  11.106  18.236  0.00  0.00    +0.000 C 
ATOM     24  O   UNL     1      -0.428  12.311  18.263  0.00  0.00    +0.000 OA
ATOM     25  N   UNL     1      -1.778  10.609  17.589  0.00  0.00    +0.000 N 
ATOM     26  H   UNL     1      -1.993   9.626  17.603  0.00  0.00    +0.000 HD
BRANCH  25  27
ATOM     27  C   UNL     1      -2.755  11.457  16.908  0.00  0.00    +0.000 C 
ATOM     28  C   UNL     1      -3.033  10.953  15.492  0.00  0.00    +0.000 C 
BRANCH  27  29
ATOM     29  C   UNL     1      -4.023  11.507  17.716  0.00  0.00    +0.000 A 
ATOM     30  N   UNL     1      -5.227  11.097  17.204  0.00  0.00    +0.000 NA
ATOM     31  N   UNL     1      -6.126  11.284  18.159  0.00  0.00    +0.000 NA
ATOM     32  N   UNL     1      -5.434  11.785  19.193  0.00  0.00    +0.000 N 
ATOM     33  C   UNL     1      -6.078  12.169  20.419  0.00  0.00    +0.000 C 
ATOM     34  N   UNL     1      -4.107  11.942  18.990  0.00  0.00    +0.000 NA
ENDBRANCH  27  29
ENDBRANCH  25  27
ENDBRANCH   3  23
TORSDOF 7
ENDMDL
MODEL 2
REMARK VINA RESULT:      -8.4      1.742      3.130
REMARK  Name = 
REMARK  10 active torsions:
REMARK  status: ('A' for Active; 'I' for Inactive)
REMARK    1  A    between atoms: C_1  and  C_2
REMARK    2  A    between atoms: C_2  and  C_3
REMARK    3  A    between atoms: C_3  and  N_4
REMARK    4  A    between atoms: C_3  and  C_27
REMARK    5  A    between atoms: C_5  and  C_7
REMARK    6  A    between atoms: C_9  and  C_10
REMARK    7  A    between atoms: N_12  and  C_13
REMARK    8  A    between atoms: C_13  and  C_14
REMARK    9  A    between atoms: C_13  and  C_15
REMARK   10  A    between atoms: N_18  and  C_19
REMARK                            x       y       z     vdW  Elec       q    Type
REMARK                         _______ _______ _______ _____ _____    ______ ____
ROOT
ATOM      1  C   UNL     1       0.696   9.144  20.246  0.00  0.00    +0.000 A 
ATOM      2  C   UNL     1       0.185   9.612  19.000  0.00  0.00    +0.000 A 
ATOM      3  C   UNL     1      -0.761  10.608  19.212  0.00  0.00    +0.000 A 
ATOM      4  N   UNL     1      -0.809  10.773  20.588  0.00  0.00    +0.000 N 
ATOM      5  C   UNL     1       0.117   9.959  21.209  0.00  0.00    +0.000 A 
ATOM      6  C   UNL     1       0.320   9.985  22.696  0.00  0.00    +0.000 C 
ATOM      7  O   UNL     1      -0.246  11.185  23.240  0.00  0.00    +0.000 OA
ATOM      8  C   UNL     1      -1.608  11.345  22.843  0.00  0.00    +0.000 C 
ATOM      9  C   UNL     1      -1.672  11.668  21.350  0.00  0.00    +0.000 C 
ENDROOT
BRANCH   1  11
ATOM     10  N   UNL     1       2.175   7.470  19.383  0.00  0.00    +0.000 N 
ATOM     11  C   UNL     1       1.627   8.040  20.513  0.00  0.00    +0.000 C 
ATOM     12  O   UNL     1       1.867   7.644  21.648  0.00  0.00    +0.000 OA
ATOM     13  H   UNL     1       1.917   7.818  18.475  0.00  0.00    +0.000 HD
BRANCH  10  14
ATOM     14  C   UNL     1       3.076   6.330  19.429  0.00  0.00    +0.000 C 
BRANCH  14  15
ATOM     15  C   UNL     1       2.263   5.032  19.414  0.00  0.00    +0.000 A 
ATOM     16  C   UNL     1       2.000   4.364  18.206  0.00  0.00    +0.000 A 
ATOM     17  C   UNL     1       1.214   3.205  18.184  0.00  0.00    +0.000 A 
ATOM     18  C   UNL     1       0.689   2.691  19.367  0.00  0.00    +0.000 A 
ATOM     19  C   UNL     1       0.956   3.327  20.576  0.00  0.00    +0.000 A 
ATOM     20  C   UNL     1       1.739   4.484  20.599  0.00  0.00    +0.000 A 
ENDBRANCH  14  15
BRANCH  14  22
ATOM     21  C   UNL     1       3.882   7.439  17.231  0.00  0.00    +0.000 C 
ATOM     22  C   UNL     1       4.086   6.335  18.258  0.00  0.00    +0.000 C 
ENDBRANCH  14  22
ENDBRANCH  10  14
ENDBRANCH   1  11
BRANCH   3  23
ATOM     23  C   UNL     1      -1.552  11.338  18.229  0.00  0.00    +0.000 C 
ATOM     24  O   UNL     1      -1.516  12.559  18.103  0.00  0.00    +0.000 OA
ATOM     25  N   UNL     1      -2.379  10.561  17.443  0.00  0.00    +0.000 N 
ATOM     26  H   UNL     1      -2.439   9.566  17.576  0.00  0.00    +0.000 HD
BRANCH  25  27
ATOM     27  C   UNL     1      -3.269  11.115  16.424  0.00  0.00    +0.000 C 
ATOM     28  C   UNL     1      -3.419  10.158  15.241  0.00  0.00    +0.000 C 
BRANCH  27  29
ATOM     29  C   UNL     1      -4.608  11.417  17.040  0.00  0.00    +0.000 A 
ATOM     30  N   UNL     1      -5.174  10.600  17.985  0.00  0.00    +0.000 NA
ATOM     31  N   UNL     1      -6.340  11.141  18.302  0.00  0.00    +0.000 NA
ATOM     32  N   UNL     1      -6.424  12.248  17.549  0.00  0.00    +0.000 N 
ATOM     33  C   UNL     1      -7.586  13.094  17.575  0.00  0.00    +0.000 C 
ATOM     34  N   UNL     1      -5.369  12.491  16.741  0.00  0.00    +0.000 NA
ENDBRANCH  27  29
ENDBRANCH  25  27
ENDBRANCH   3  23
TORSDOF 7
ENDMDL
MODEL 3
REMARK VINA RESULT:      -8.4      1.691      2.829
REMARK  Name = 
REMARK  10 active torsions:
REMARK  status: ('A' for Active; 'I' for Inactive)
REMARK    1  A    between atoms: C_1  and  C_2
REMARK    2  A    between atoms: C_2  and  C_3
REMARK    3  A    between atoms: C_3  and  N_4
REMARK    4  A    between atoms: C_3  and  C_27
REMARK    5  A    between atoms: C_5  and  C_7
REMARK    6  A    between atoms: C_9  and  C_10
REMARK    7  A    between atoms: N_12  and  C_13
REMARK    8  A    between atoms: C_13  and  C_14
REMARK    9  A    between atoms: C_13  and  C_15
REMARK   10  A    between atoms: N_18  and  C_19
REMARK                            x       y       z     vdW  Elec       q    Type
REMARK                         _______ _______ _______ _____ _____    ______ ____
ROOT
ATOM      1  C   UNL     1       1.451   8.902  18.855  0.00  0.00    +0.000 A 
ATOM      2  C   UNL     1       0.648   9.709  17.996  0.00  0.00    +0.000 A 
ATOM      3  C   UNL     1      -0.266  10.444  18.742  0.00  0.00    +0.000 A 
ATOM      4  N   UNL     1      -0.002  10.112  20.063  0.00  0.00    +0.000 N 
ATOM      5  C   UNL     1       1.076   9.252  20.144  0.00  0.00    +0.000 A 
ATOM      6  C   UNL     1       1.614   8.783  21.464  0.00  0.00    +0.000 C 
ATOM      7  O   UNL     1       1.138   9.639  22.512  0.00  0.00    +0.000 OA
ATOM      8  C   UNL     1      -0.285   9.758  22.481  0.00  0.00    +0.000 C 
ATOM      9  C   UNL     1      -0.704  10.571  21.256  0.00  0.00    +0.000 C 
ENDROOT
BRANCH   1  11
ATOM     10  N   UNL     1       2.241   6.650  19.048  0.00  0.00    +0.000 N 
ATOM     11  C   UNL     1       2.465   7.898  18.506  0.00  0.00    +0.000 C 
ATOM     12  O   UNL     1       3.443   8.165  17.817  0.00  0.00    +0.000 OA
ATOM     13  H   UNL     1       1.437   6.498  19.633  0.00  0.00    +0.000 HD
BRANCH  10  14
ATOM     14  C   UNL     1       3.156   5.534  18.869  0.00  0.00    +0.000 C 
BRANCH  14  15
ATOM     15  C   UNL     1       2.755   4.387  19.800  0.00  0.00    +0.000 A 
ATOM     16  C   UNL     1       1.457   4.318  20.337  0.00  0.00    +0.000 A 
ATOM     17  C   UNL     1       1.103   3.298  21.228  0.00  0.00    +0.000 A 
ATOM     18  C   UNL     1       2.033   2.326  21.588  0.00  0.00    +0.000 A 
ATOM     19  C   UNL     1       3.317   2.365  21.051  0.00  0.00    +0.000 A 
ATOM     20  C   UNL     1       3.672   3.383  20.162  0.00  0.00    +0.000 A 
ENDBRANCH  14  15
BRANCH  14  22
ATOM     21  C   UNL     1       4.574   4.660  16.884  0.00  0.00    +0.000 C 
ATOM     22  C   UNL     1       3.195   5.039  17.405  0.00  0.00    +0.000 C 
ENDBRANCH  14  22
ENDBRANCH  10  14
ENDBRANCH   1  11
BRANCH   3  23
ATOM     23  C   UNL     1      -1.292  11.368  18.276  0.00  0.00    +0.000 C 
ATOM     24  O   UNL     1      -1.146  12.587  18.252  0.00  0.00    +0.000 OA
ATOM     25  N   UNL     1      -2.474  10.780  17.870  0.00  0.00    +0.000 N 
ATOM     26  H   UNL     1      -2.607   9.785  17.929  0.00  0.00    +0.000 HD
BRANCH  25  27
ATOM     27  C   UNL     1      -3.628  11.544  17.399  0.00  0.00    +0.000 C 
ATOM     28  C   UNL     1      -4.182  10.962  16.098  0.00  0.00    +0.000 C 
BRANCH  27  29
ATOM     29  C   UNL     1      -4.685  11.562  18.469  0.00  0.00    +0.000 A 
ATOM     30  N   UNL     1      -5.824  10.805  18.378  0.00  0.00    +0.000 NA
ATOM     31  N   UNL     1      -6.537  11.064  19.464  0.00  0.00    +0.000 NA
ATOM     32  N   UNL     1      -5.804  11.949  20.156  0.00  0.00    +0.000 N 
ATOM     33  C   UNL     1      -6.272  12.517  21.391  0.00  0.00    +0.000 C 
ATOM     34  N   UNL     1      -4.625  12.300  19.597  0.00  0.00    +0.000 NA
ENDBRANCH  27  29
ENDBRANCH  25  27
ENDBRANCH   3  23
TORSDOF 7
ENDMDL
MODEL 4
REMARK VINA RESULT:      -8.3      2.479      3.689
REMARK  Name = 
REMARK  10 active torsions:
REMARK  status: ('A' for Active; 'I' for Inactive)
REMARK    1  A    between atoms: C_1  and  C_2
REMARK    2  A    between atoms: C_2  and  C_3
REMARK    3  A    between atoms: C_3  and  N_4
REMARK    4  A    between atoms: C_3  and  C_27
REMARK    5  A    between atoms: C_5  and  C_7
REMARK    6  A    between atoms: C_9  and  C_10
REMARK    7  A    between atoms: N_12  and  C_13
REMARK    8  A    between atoms: C_13  and  C_14
REMARK    9  A    between atoms: C_13  and  C_15
REMARK   10  A    between atoms: N_18  and  C_19
REMARK                            x       y       z     vdW  Elec       q    Type
REMARK                         _______ _______ _______ _____ _____    ______ ____
ROOT
ATOM      1  C   UNL     1       1.338   9.510  19.197  0.00  0.00    +0.000 A 
ATOM      2  C   UNL     1       0.506   9.408  20.351  0.00  0.00    +0.000 A 
ATOM      3  C   UNL     1       0.410  10.640  20.985  0.00  0.00    +0.000 A 
ATOM      4  N   UNL     1       1.158  11.508  20.203  0.00  0.00    +0.000 N 
ATOM      5  C   UNL     1       1.650  10.858  19.088  0.00  0.00    +0.000 A 
ATOM      6  C   UNL     1       2.443  11.581  18.039  0.00  0.00    +0.000 C 
ATOM      7  O   UNL     1       2.243  12.996  18.171  0.00  0.00    +0.000 OA
ATOM      8  C   UNL     1       2.512  13.438  19.502  0.00  0.00    +0.000 C 
ATOM      9  C   UNL     1       1.424  12.922  20.443  0.00  0.00    +0.000 C 
ENDROOT
BRANCH   1  11
ATOM     10  N   UNL     1       2.208   7.297  18.919  0.00  0.00    +0.000 N 
ATOM     11  C   UNL     1       1.802   8.454  18.288  0.00  0.00    +0.000 C 
ATOM     12  O   UNL     1       1.851   8.608  17.073  0.00  0.00    +0.000 OA
ATOM     13  H   UNL     1       2.175   7.239  19.923  0.00  0.00    +0.000 HD
BRANCH  10  14
ATOM     14  C   UNL     1       2.753   6.154  18.203  0.00  0.00    +0.000 C 
BRANCH  14  15
ATOM     15  C   UNL     1       4.283   6.214  18.231  0.00  0.00    +0.000 A 
ATOM     16  C   UNL     1       4.989   6.975  17.283  0.00  0.00    +0.000 A 
ATOM     17  C   UNL     1       6.389   6.991  17.276  0.00  0.00    +0.000 A 
ATOM     18  C   UNL     1       7.104   6.257  18.219  0.00  0.00    +0.000 A 
ATOM     19  C   UNL     1       6.423   5.514  19.178  0.00  0.00    +0.000 A 
ATOM     20  C   UNL     1       5.026   5.496  19.187  0.00  0.00    +0.000 A 
ENDBRANCH  14  15
BRANCH  14  22
ATOM     21  C   UNL     1       1.496   3.920  17.824  0.00  0.00    +0.000 C 
ATOM     22  C   UNL     1       2.265   4.810  18.791  0.00  0.00    +0.000 C 
ENDBRANCH  14  22
ENDBRANCH  10  14
ENDBRANCH   1  11
BRANCH   3  23
ATOM     23  C   UNL     1      -0.307  10.983  22.207  0.00  0.00    +0.000 C 
ATOM     24  O   UNL     1      -0.055  10.486  23.302  0.00  0.00    +0.000 OA
ATOM     25  N   UNL     1      -1.321  11.908  22.057  0.00  0.00    +0.000 N 
ATOM     26  H   UNL     1      -1.553  12.283  21.153  0.00  0.00    +0.000 HD
BRANCH  25  27
ATOM     27  C   UNL     1      -2.169  12.354  23.161  0.00  0.00    +0.000 C 
ATOM     28  C   UNL     1      -1.668  13.676  23.743  0.00  0.00    +0.000 C 
BRANCH  27  29
ATOM     29  C   UNL     1      -3.588  12.485  22.680  0.00  0.00    +0.000 A 
ATOM     30  N   UNL     1      -4.659  12.258  23.506  0.00  0.00    +0.000 NA
ATOM     31  N   UNL     1      -5.746  12.444  22.773  0.00  0.00    +0.000 NA
ATOM     32  N   UNL     1      -5.291  12.777  21.556  0.00  0.00    +0.000 N 
ATOM     33  C   UNL     1      -6.182  13.015  20.453  0.00  0.00    +0.000 C 
ATOM     34  N   UNL     1      -3.947  12.832  21.426  0.00  0.00    +0.000 NA
ENDBRANCH  27  29
ENDBRANCH  25  27
ENDBRANCH   3  23
TORSDOF 7
ENDMDL
MODEL 5
REMARK VINA RESULT:      -8.3      1.001      2.645
REMARK  Name = 
REMARK  10 active torsions:
REMARK  status: ('A' for Active; 'I' for Inactive)
REMARK    1  A    between atoms: C_1  and  C_2
REMARK    2  A    between atoms: C_2  and  C_3
REMARK    3  A    between atoms: C_3  and  N_4
REMARK    4  A    between atoms: C_3  and  C_27
REMARK    5  A    between atoms: C_5  and  C_7
REMARK    6  A    between atoms: C_9  and  C_10
REMARK    7  A    between atoms: N_12  and  C_13
REMARK    8  A    between atoms: C_13  and  C_14
REMARK    9  A    between atoms: C_13  and  C_15
REMARK   10  A    between atoms: N_18  and  C_19
REMARK                            x       y       z     vdW  Elec       q    Type
REMARK                         _______ _______ _______ _____ _____    ______ ____
ROOT
ATOM      1  C   UNL     1       1.371   8.621  19.710  0.00  0.00    +0.000 A 
ATOM      2  C   UNL     1       0.812   9.335  18.608  0.00  0.00    +0.000 A 
ATOM      3  C   UNL     1      -0.075  10.303  19.063  0.00  0.00    +0.000 A 
ATOM      4  N   UNL     1      -0.038  10.205  20.446  0.00  0.00    +0.000 N 
ATOM      5  C   UNL     1       0.884   9.257  20.843  0.00  0.00    +0.000 A 
ATOM      6  C   UNL     1       1.171   8.994  22.292  0.00  0.00    +0.000 C 
ATOM      7  O   UNL     1       0.690  10.087  23.087  0.00  0.00    +0.000 OA
ATOM      8  C   UNL     1      -0.684  10.364  22.814  0.00  0.00    +0.000 C 
ATOM      9  C   UNL     1      -0.816  10.967  21.416  0.00  0.00    +0.000 C 
ENDROOT
BRANCH   1  11
ATOM     10  N   UNL     1       2.964   7.278  18.529  0.00  0.00    +0.000 N 
ATOM     11  C   UNL     1       2.266   7.457  19.705  0.00  0.00    +0.000 C 
ATOM     12  O   UNL     1       2.354   6.693  20.660  0.00  0.00    +0.000 OA
ATOM     13  H   UNL     1       2.827   7.920  17.767  0.00  0.00    +0.000 HD
BRANCH  10  14
ATOM     14  C   UNL     1       3.858   6.154  18.302  0.00  0.00    +0.000 C 
BRANCH  14  15
ATOM     15  C   UNL     1       3.091   4.842  18.488  0.00  0.00    +0.000 A 
ATOM     16  C   UNL     1       3.604   3.820  19.305  0.00  0.00    +0.000 A 
ATOM     17  C   UNL     1       2.928   2.601  19.438  0.00  0.00    +0.000 A 
ATOM     18  C   UNL     1       1.727   2.388  18.766  0.00  0.00    +0.000 A 
ATOM     19  C   UNL     1       1.193   3.396  17.969  0.00  0.00    +0.000 A 
ATOM     20  C   UNL     1       1.865   4.613  17.835  0.00  0.00    +0.000 A 
ENDBRANCH  14  15
BRANCH  14  22
ATOM     21  C   UNL     1       5.992   6.510  16.876  0.00  0.00    +0.000 C 
ATOM     22  C   UNL     1       4.503   6.195  16.898  0.00  0.00    +0.000 C 
ENDBRANCH  14  22
ENDBRANCH  10  14
ENDBRANCH   1  11
BRANCH   3  23
ATOM     23  C   UNL     1      -0.886  11.233  18.287  0.00  0.00    +0.000 C 
ATOM     24  O   UNL     1      -0.709  12.448  18.286  0.00  0.00    +0.000 OA
ATOM     25  N   UNL     1      -1.901  10.656  17.550  0.00  0.00    +0.000 N 
ATOM     26  H   UNL     1      -2.071   9.665  17.584  0.00  0.00    +0.000 HD
BRANCH  25  27
ATOM     27  C   UNL     1      -2.838  11.428  16.734  0.00  0.00    +0.000 C 
ATOM     28  C   UNL     1      -3.057  10.769  15.372  0.00  0.00    +0.000 C 
BRANCH  27  29
ATOM     29  C   UNL     1      -4.140  11.576  17.472  0.00  0.00    +0.000 A 
ATOM     30  N   UNL     1      -5.336  11.713  16.815  0.00  0.00    +0.000 NA
ATOM     31  N   UNL     1      -6.267  11.832  17.750  0.00  0.00    +0.000 NA
ATOM     32  N   UNL     1      -5.603  11.756  18.913  0.00  0.00    +0.000 N 
ATOM     33  C   UNL     1      -6.273  11.893  20.177  0.00  0.00    +0.000 C 
ATOM     34  N   UNL     1      -4.266  11.584  18.816  0.00  0.00    +0.000 NA
ENDBRANCH  27  29
ENDBRANCH  25  27
ENDBRANCH   3  23
TORSDOF 7
ENDMDL
MODEL 6
REMARK VINA RESULT:      -8.2      2.249      3.796
REMARK  Name = 
REMARK  10 active torsions:
REMARK  status: ('A' for Active; 'I' for Inactive)
REMARK    1  A    between atoms: C_1  and  C_2
REMARK    2  A    between atoms: C_2  and  C_3
REMARK    3  A    between atoms: C_3  and  N_4
REMARK    4  A    between atoms: C_3  and  C_27
REMARK    5  A    between atoms: C_5  and  C_7
REMARK    6  A    between atoms: C_9  and  C_10
REMARK    7  A    between atoms: N_12  and  C_13
REMARK    8  A    between atoms: C_13  and  C_14
REMARK    9  A    between atoms: C_13  and  C_15
REMARK   10  A    between atoms: N_18  and  C_19
REMARK                            x       y       z     vdW  Elec       q    Type
REMARK                         _______ _______ _______ _____ _____    ______ ____
ROOT
ATOM      1  C   UNL     1       0.819   9.790  19.499  0.00  0.00    +0.000 A 
ATOM      2  C   UNL     1      -0.035  10.811  18.987  0.00  0.00    +0.000 A 
ATOM      3  C   UNL     1      -0.777  11.379  20.016  0.00  0.00    +0.000 A 
ATOM      4  N   UNL     1      -0.356  10.727  21.166  0.00  0.00    +0.000 N 
ATOM      5  C   UNL     1       0.656   9.833  20.877  0.00  0.00    +0.000 A 
ATOM      6  C   UNL     1       1.338   9.038  21.952  0.00  0.00    +0.000 C 
ATOM      7  O   UNL     1       1.079   9.633  23.231  0.00  0.00    +0.000 OA
ATOM      8  C   UNL     1      -0.321   9.811  23.448  0.00  0.00    +0.000 C 
ATOM      9  C   UNL     1      -0.846  10.912  22.527  0.00  0.00    +0.000 C 
ENDROOT
BRANCH   1  11
ATOM     10  N   UNL     1       2.017   7.717  19.473  0.00  0.00    +0.000 N 
ATOM     11  C   UNL     1       1.697   8.862  18.774  0.00  0.00    +0.000 C 
ATOM     12  O   UNL     1       2.130   9.108  17.655  0.00  0.00    +0.000 OA
ATOM     13  H   UNL     1       1.657   7.584  20.403  0.00  0.00    +0.000 HD
BRANCH  10  14
ATOM     14  C   UNL     1       2.917   6.699  18.954  0.00  0.00    +0.000 C 
BRANCH  14  15
ATOM     15  C   UNL     1       2.262   5.321  19.083  0.00  0.00    +0.000 A 
ATOM     16  C   UNL     1       2.136   4.479  17.965  0.00  0.00    +0.000 A 
ATOM     17  C   UNL     1       1.493   3.239  18.071  0.00  0.00    +0.000 A 
ATOM     18  C   UNL     1       0.976   2.818  19.294  0.00  0.00    +0.000 A 
ATOM     19  C   UNL     1       1.110   3.630  20.417  0.00  0.00    +0.000 A 
ATOM     20  C   UNL     1       1.751   4.867  20.314  0.00  0.00    +0.000 A 
ENDBRANCH  14  15
BRANCH  14  22
ATOM     21  C   UNL     1       4.788   6.781  17.163  0.00  0.00    +0.000 C 
ATOM     22  C   UNL     1       3.311   6.962  17.482  0.00  0.00    +0.000 C 
ENDBRANCH  14  22
ENDBRANCH  10  14
ENDBRANCH   1  11
BRANCH   3  23
ATOM     23  C   UNL     1      -1.787  12.427  19.941  0.00  0.00    +0.000 C 
ATOM     24  O   UNL     1      -1.532  13.595  19.659  0.00  0.00    +0.000 OA
ATOM     25  N   UNL     1      -3.076  12.025  20.231  0.00  0.00    +0.000 N 
ATOM     26  H   UNL     1      -3.277  11.077  20.502  0.00  0.00    +0.000 HD
BRANCH  25  27
ATOM     27  C   UNL     1      -4.218  12.938  20.237  0.00  0.00    +0.000 C 
ATOM     28  C   UNL     1      -5.232  12.562  19.157  0.00  0.00    +0.000 C 
BRANCH  27  29
ATOM     29  C   UNL     1      -4.858  12.928  21.598  0.00  0.00    +0.000 A 
ATOM     30  N   UNL     1      -4.239  12.373  22.689  0.00  0.00    +0.000 NA
ATOM     31  N   UNL     1      -5.071  12.519  23.709  0.00  0.00    +0.000 NA
ATOM     32  N   UNL     1      -6.138  13.152  23.199  0.00  0.00    +0.000 N 
ATOM     33  C   UNL     1      -7.294  13.453  23.999  0.00  0.00    +0.000 C 
ATOM     34  N   UNL     1      -6.070  13.450  21.883  0.00  0.00    +0.000 NA
ENDBRANCH  27  29
ENDBRANCH  25  27
ENDBRANCH   3  23
TORSDOF 7
ENDMDL
MODEL 7
REMARK VINA RESULT:      -8.2      2.544      4.576
REMARK  Name = 
REMARK  10 active torsions:
REMARK  status: ('A' for Active; 'I' for Inactive)
REMARK    1  A    between atoms: C_1  and  C_2
REMARK    2  A    between atoms: C_2  and  C_3
REMARK    3  A    between atoms: C_3  and  N_4
REMARK    4  A    between atoms: C_3  and  C_27
REMARK    5  A    between atoms: C_5  and  C_7
REMARK    6  A    between atoms: C_9  and  C_10
REMARK    7  A    between atoms: N_12  and  C_13
REMARK    8  A    between atoms: C_13  and  C_14
REMARK    9  A    between atoms: C_13  and  C_15
REMARK   10  A    between atoms: N_18  and  C_19
REMARK                            x       y       z     vdW  Elec       q    Type
REMARK                         _______ _______ _______ _____ _____    ______ ____
ROOT
ATOM      1  C   UNL     1       1.146   9.575  19.665  0.00  0.00    +0.000 A 
ATOM      2  C   UNL     1       0.272   9.538  20.792  0.00  0.00    +0.000 A 
ATOM      3  C   UNL     1       0.020  10.827  21.247  0.00  0.00    +0.000 A 
ATOM      4  N   UNL     1       0.715  11.658  20.381  0.00  0.00    +0.000 N 
ATOM      5  C   UNL     1       1.325  10.922  19.384  0.00  0.00    +0.000 A 
ATOM      6  C   UNL     1       2.092  11.580  18.275  0.00  0.00    +0.000 C 
ATOM      7  O   UNL     1       1.744  12.970  18.204  0.00  0.00    +0.000 OA
ATOM      8  C   UNL     1       1.900  13.611  19.470  0.00  0.00    +0.000 C 
ATOM      9  C   UNL     1       0.824  13.111  20.434  0.00  0.00    +0.000 C 
ENDROOT
BRANCH   1  11
ATOM     10  N   UNL     1       2.471   7.581  19.714  0.00  0.00    +0.000 N 
ATOM     11  C   UNL     1       1.759   8.463  18.928  0.00  0.00    +0.000 C 
ATOM     12  O   UNL     1       1.668   8.354  17.711  0.00  0.00    +0.000 OA
ATOM     13  H   UNL     1       2.537   7.740  20.705  0.00  0.00    +0.000 HD
BRANCH  10  14
ATOM     14  C   UNL     1       3.199   6.446  19.170  0.00  0.00    +0.000 C 
BRANCH  14  15
ATOM     15  C   UNL     1       2.328   5.189  19.255  0.00  0.00    +0.000 A 
ATOM     16  C   UNL     1       1.790   4.770  20.484  0.00  0.00    +0.000 A 
ATOM     17  C   UNL     1       1.035   3.595  20.573  0.00  0.00    +0.000 A 
ATOM     18  C   UNL     1       0.797   2.826  19.436  0.00  0.00    +0.000 A 
ATOM     19  C   UNL     1       1.304   3.236  18.206  0.00  0.00    +0.000 A 
ATOM     20  C   UNL     1       2.058   4.408  18.116  0.00  0.00    +0.000 A 
ENDBRANCH  14  15
BRANCH  14  22
ATOM     21  C   UNL     1       5.123   6.450  17.434  0.00  0.00    +0.000 C 
ATOM     22  C   UNL     1       3.644   6.683  17.708  0.00  0.00    +0.000 C 
ENDBRANCH  14  22
ENDBRANCH  10  14
ENDBRANCH   1  11
BRANCH   3  23
ATOM     23  C   UNL     1      -0.788  11.251  22.384  0.00  0.00    +0.000 C 
ATOM     24  O   UNL     1      -0.631  10.821  23.524  0.00  0.00    +0.000 OA
ATOM     25  N   UNL     1      -1.775  12.172  22.096  0.00  0.00    +0.000 N 
ATOM     26  H   UNL     1      -1.930  12.491  21.155  0.00  0.00    +0.000 HD
BRANCH  25  27
ATOM     27  C   UNL     1      -2.704  12.692  23.099  0.00  0.00    +0.000 C 
ATOM     28  C   UNL     1      -2.349  14.127  23.488  0.00  0.00    +0.000 C 
BRANCH  27  29
ATOM     29  C   UNL     1      -4.109  12.614  22.567  0.00  0.00    +0.000 A 
ATOM     30  N   UNL     1      -5.189  12.443  23.394  0.00  0.00    +0.000 NA
ATOM     31  N   UNL     1      -6.258  12.404  22.613  0.00  0.00    +0.000 NA
ATOM     32  N   UNL     1      -5.784  12.556  21.367  0.00  0.00    +0.000 N 
ATOM     33  C   UNL     1      -6.647  12.520  20.218  0.00  0.00    +0.000 C 
ATOM     34  N   UNL     1      -4.445  12.705  21.263  0.00  0.00    +0.000 NA
ENDBRANCH  27  29
ENDBRANCH  25  27
ENDBRANCH   3  23
TORSDOF 7
ENDMDL
MODEL 8
REMARK VINA RESULT:      -8.2      2.486      3.759
REMARK  Name = 
REMARK  10 active torsions:
REMARK  status: ('A' for Active; 'I' for Inactive)
REMARK    1  A    between atoms: C_1  and  C_2
REMARK    2  A    between atoms: C_2  and  C_3
REMARK    3  A    between atoms: C_3  and  N_4
REMARK    4  A    between atoms: C_3  and  C_27
REMARK    5  A    between atoms: C_5  and  C_7
REMARK    6  A    between atoms: C_9  and  C_10
REMARK    7  A    between atoms: N_12  and  C_13
REMARK    8  A    between atoms: C_13  and  C_14
REMARK    9  A    between atoms: C_13  and  C_15
REMARK   10  A    between atoms: N_18  and  C_19
REMARK                            x       y       z     vdW  Elec       q    Type
REMARK                         _______ _______ _______ _____ _____    ______ ____
ROOT
ATOM      1  C   UNL     1       1.485   7.396  20.327  0.00  0.00    +0.000 A 
ATOM      2  C   UNL     1       0.859   7.906  21.503  0.00  0.00    +0.000 A 
ATOM      3  C   UNL     1       0.667   9.278  21.390  0.00  0.00    +0.000 A 
ATOM      4  N   UNL     1       1.148   9.606  20.131  0.00  0.00    +0.000 N 
ATOM      5  C   UNL     1       1.564   8.475  19.457  0.00  0.00    +0.000 A 
ATOM      6  C   UNL     1       2.071   8.538  18.046  0.00  0.00    +0.000 C 
ATOM      7  O   UNL     1       1.676   9.779  17.445  0.00  0.00    +0.000 OA
ATOM      8  C   UNL     1       2.067  10.893  18.247  0.00  0.00    +0.000 C 
ATOM      9  C   UNL     1       1.223  10.929  19.522  0.00  0.00    +0.000 C 
ENDROOT
BRANCH   1  11
ATOM     10  N   UNL     1       2.988   5.976  19.120  0.00  0.00    +0.000 N 
ATOM     11  C   UNL     1       1.967   6.038  20.045  0.00  0.00    +0.000 C 
ATOM     12  O   UNL     1       1.476   5.045  20.569  0.00  0.00    +0.000 OA
ATOM     13  H   UNL     1       3.331   6.823  18.699  0.00  0.00    +0.000 HD
BRANCH  10  14
ATOM     14  C   UNL     1       3.566   4.723  18.662  0.00  0.00    +0.000 C 
BRANCH  14  15
ATOM     15  C   UNL     1       4.352   4.962  17.370  0.00  0.00    +0.000 A 
ATOM     16  C   UNL     1       4.591   6.267  16.906  0.00  0.00    +0.000 A 
ATOM     17  C   UNL     1       5.266   6.487  15.699  0.00  0.00    +0.000 A 
ATOM     18  C   UNL     1       5.723   5.409  14.944  0.00  0.00    +0.000 A 
ATOM     19  C   UNL     1       5.514   4.110  15.398  0.00  0.00    +0.000 A 
ATOM     20  C   UNL     1       4.840   3.889  16.601  0.00  0.00    +0.000 A 
ENDBRANCH  14  15
BRANCH  14  22
ATOM     21  C   UNL     1       4.261   2.590  19.960  0.00  0.00    +0.000 C 
ATOM     22  C   UNL     1       4.483   4.078  19.728  0.00  0.00    +0.000 C 
ENDBRANCH  14  22
ENDBRANCH  10  14
ENDBRANCH   1  11
BRANCH   3  23
ATOM     23  C   UNL     1       0.095  10.202  22.361  0.00  0.00    +0.000 C 
ATOM     24  O   UNL     1       0.215  10.067  23.576  0.00  0.00    +0.000 OA
ATOM     25  N   UNL     1      -0.621  11.253  21.824  0.00  0.00    +0.000 N 
ATOM     26  H   UNL     1      -0.753  11.339  20.831  0.00  0.00    +0.000 HD
BRANCH  25  27
ATOM     27  C   UNL     1      -1.292  12.264  22.639  0.00  0.00    +0.000 C 
ATOM     28  C   UNL     1      -0.567  13.608  22.561  0.00  0.00    +0.000 C 
BRANCH  27  29
ATOM     29  C   UNL     1      -2.721  12.401  22.189  0.00  0.00    +0.000 A 
ATOM     30  N   UNL     1      -3.773  12.254  23.056  0.00  0.00    +0.000 NA
ATOM     31  N   UNL     1      -4.876  12.421  22.342  0.00  0.00    +0.000 NA
ATOM     32  N   UNL     1      -4.448  12.665  21.094  0.00  0.00    +0.000 N 
ATOM     33  C   UNL     1      -5.364  12.856  20.003  0.00  0.00    +0.000 C 
ATOM     34  N   UNL     1      -3.107  12.678  20.926  0.00  0.00    +0.000 NA
ENDBRANCH  27  29
ENDBRANCH  25  27
ENDBRANCH   3  23
TORSDOF 7
ENDMDL
MODEL 9
REMARK VINA RESULT:      -8.1      1.500      3.190
REMARK  Name = 
REMARK  10 active torsions:
REMARK  status: ('A' for Active; 'I' for Inactive)
REMARK    1  A    between atoms: C_1  and  C_2
REMARK    2  A    between atoms: C_2  and  C_3
REMARK    3  A    between atoms: C_3  and  N_4
REMARK    4  A    between atoms: C_3  and  C_27
REMARK    5  A    between atoms: C_5  and  C_7
REMARK    6  A    between atoms: C_9  and  C_10
REMARK    7  A    between atoms: N_12  and  C_13
REMARK    8  A    between atoms: C_13  and  C_14
REMARK    9  A    between atoms: C_13  and  C_15
REMARK   10  A    between atoms: N_18  and  C_19
REMARK                            x       y       z     vdW  Elec       q    Type
REMARK                         _______ _______ _______ _____ _____    ______ ____
ROOT
ATOM      1  C   UNL     1       1.243   9.001  19.299  0.00  0.00    +0.000 A 
ATOM      2  C   UNL     1       0.463   9.783  18.396  0.00  0.00    +0.000 A 
ATOM      3  C   UNL     1      -0.417  10.595  19.101  0.00  0.00    +0.000 A 
ATOM      4  N   UNL     1      -0.156  10.334  20.438  0.00  0.00    +0.000 N 
ATOM      5  C   UNL     1       0.890   9.443  20.566  0.00  0.00    +0.000 A 
ATOM      6  C   UNL     1       1.421   9.036  21.910  0.00  0.00    +0.000 C 
ATOM      7  O   UNL     1       0.984   9.971  22.906  0.00  0.00    +0.000 OA
ATOM      8  C   UNL     1      -0.434  10.140  22.874  0.00  0.00    +0.000 C 
ATOM      9  C   UNL     1      -0.832  10.892  21.604  0.00  0.00    +0.000 C 
ENDROOT
BRANCH   1  11
ATOM     10  N   UNL     1       2.276   6.943  19.958  0.00  0.00    +0.000 N 
ATOM     11  C   UNL     1       2.218   7.941  19.008  0.00  0.00    +0.000 C 
ATOM     12  O   UNL     1       2.938   7.967  18.017  0.00  0.00    +0.000 OA
ATOM     13  H   UNL     1       1.681   6.992  20.768  0.00  0.00    +0.000 HD
BRANCH  10  14
ATOM     14  C   UNL     1       3.213   5.834  19.884  0.00  0.00    +0.000 C 
BRANCH  14  15
ATOM     15  C   UNL     1       2.445   4.527  19.667  0.00  0.00    +0.000 A 
ATOM     16  C   UNL     1       2.015   3.757  20.762  0.00  0.00    +0.000 A 
ATOM     17  C   UNL     1       1.357   2.537  20.565  0.00  0.00    +0.000 A 
ATOM     18  C   UNL     1       1.109   2.073  19.276  0.00  0.00    +0.000 A 
ATOM     19  C   UNL     1       1.509   2.831  18.180  0.00  0.00    +0.000 A 
ATOM     20  C   UNL     1       2.167   4.048  18.373  0.00  0.00    +0.000 A 
ENDBRANCH  14  15
BRANCH  14  22
ATOM     21  C   UNL     1       5.588   5.320  18.985  0.00  0.00    +0.000 C 
ATOM     22  C   UNL     1       4.259   6.026  18.761  0.00  0.00    +0.000 C 
ENDBRANCH  14  22
ENDBRANCH  10  14
ENDBRANCH   1  11
BRANCH   3  23
ATOM     23  C   UNL     1      -1.413  11.525  18.584  0.00  0.00    +0.000 C 
ATOM     24  O   UNL     1      -1.187  12.715  18.380  0.00  0.00    +0.000 OA
ATOM     25  N   UNL     1      -2.661  10.982  18.348  0.00  0.00    +0.000 N 
ATOM     26  H   UNL     1      -2.856  10.018  18.555  0.00  0.00    +0.000 HD
BRANCH  25  27
ATOM     27  C   UNL     1      -3.795  11.764  17.858  0.00  0.00    +0.000 C 
ATOM     28  C   UNL     1      -4.361  11.168  16.568  0.00  0.00    +0.000 C 
BRANCH  27  29
ATOM     29  C   UNL     1      -4.853  11.832  18.924  0.00  0.00    +0.000 A 
ATOM     30  N   UNL     1      -4.751  12.680  19.997  0.00  0.00    +0.000 NA
ATOM     31  N   UNL     1      -5.829  12.480  20.739  0.00  0.00    +0.000 NA
ATOM     32  N   UNL     1      -6.529  11.538  20.089  0.00  0.00    +0.000 N 
ATOM     33  C   UNL     1      -7.759  11.012  20.614  0.00  0.00    +0.000 C 
ATOM     34  N   UNL     1      -5.983  11.092  18.936  0.00  0.00    +0.000 NA
ENDBRANCH  27  29
ENDBRANCH  25  27
ENDBRANCH   3  23
TORSDOF 7
ENDMDL
