MODEL 1
REMARK VINA RESULT:      -7.7      0.000      0.000
REMARK  Name = 
REMARK  7 active torsions:
REMARK  status: ('A' for Active; 'I' for Inactive)
REMARK    1  A    between atoms: C_1  and  C_2
REMARK    2  A    between atoms: C_2  and  C_3
REMARK    3  A    between atoms: C_2  and  C_4
REMARK    4  A    between atoms: N_9  and  C_10
REMARK    5  A    between atoms: C_10  and  C_11
REMARK    6  A    between atoms: C_18  and  C_19
REMARK    7  A    between atoms: C_22  and  C_23
REMARK                            x       y       z     vdW  Elec       q    Type
REMARK                         _______ _______ _______ _____ _____    ______ ____
ROOT
ATOM      1  C   UNL     1       3.824   3.624  18.010  0.00  0.00    +0.000 C 
ATOM      2  C   UNL     1       5.045   3.603  17.073  0.00  0.00    +0.000 C 
ATOM      3  C   UNL     1       6.230   4.096  17.924  0.00  0.00    +0.000 C 
ATOM      4  C   UNL     1       5.559   4.754  19.118  0.00  0.00    +0.000 C 
ATOM      5  O   UNL     1       6.118   5.230  20.097  0.00  0.00    +0.000 OA
ATOM      6  N   UNL     1       4.191   4.646  18.967  0.00  0.00    +0.000 N 
ATOM      7  C   UNL     1       7.072   4.995  16.999  0.00  0.00    +0.000 C 
ATOM      8  N   UNL     1       6.308   5.133  15.743  0.00  0.00    +0.000 NA
ATOM      9  C   UNL     1       6.891   4.467  14.583  0.00  0.00    +0.000 C 
ATOM     10  C   UNL     1       5.699   4.364  13.650  0.00  0.00    +0.000 C 
ATOM     11  C   UNL     1       4.544   4.027  14.585  0.00  0.00    +0.000 C 
ATOM     12  C   UNL     1       4.950   4.621  15.937  0.00  0.00    +0.000 C 
ENDROOT
BRANCH   7  13
ATOM     13  C   UNL     1       7.510   6.338  17.568  0.00  0.00    +0.000 A 
ATOM     14  C   UNL     1       7.121   7.529  16.927  0.00  0.00    +0.000 A 
ATOM     15  C   UNL     1       7.566   8.773  17.385  0.00  0.00    +0.000 A 
ATOM     16  C   UNL     1       8.368   8.849  18.525  0.00  0.00    +0.000 A 
ATOM     17  C   UNL     1       8.729   7.682  19.198  0.00  0.00    +0.000 A 
ATOM     18  C   UNL     1       8.302   6.439  18.720  0.00  0.00    +0.000 A 
BRANCH  16  19
ATOM     19  C   UNL     1       8.850  10.171  19.005  0.00  0.00    +0.000 C 
ATOM     20  N   UNL     1       9.301  10.365  20.202  0.00  0.00    +0.000 NA
ATOM     21  N   UNL     1       8.849  11.251  18.171  0.00  0.00    +0.000 N 
ATOM     22  H   UNL     1       9.223   9.512  20.766  0.00  0.00    +0.000 HD
ATOM     23  H   UNL     1       9.059  11.060  17.199  0.00  0.00    +0.000 HD
ATOM     24  H   UNL     1       9.411  12.004  18.558  0.00  0.00    +0.000 HD
ENDBRANCH  16  19
ENDBRANCH   7  13
BRANCH   1  26
ATOM     25  C   UNL     1       2.061   1.964  18.900  0.00  0.00    +0.000 C 
ATOM     26  C   UNL     1       3.554   2.229  18.662  0.00  0.00    +0.000 C 
ATOM     27  C   UNL     1       4.300   1.948  19.972  0.00  0.00    +0.000 C 
ENDBRANCH   1  26
BRANCH   6  28
ATOM     28  C   UNL     1       3.247   5.387  19.788  0.00  0.00    +0.000 C 
BRANCH  28  29
ATOM     29  C   UNL     1       2.864   6.710  19.160  0.00  0.00    +0.000 A 
ATOM     30  C   UNL     1       1.979   7.580  19.817  0.00  0.00    +0.000 A 
ATOM     31  C   UNL     1       1.624   8.798  19.234  0.00  0.00    +0.000 A 
ATOM     32  C   UNL     1       2.148   9.145  17.994  0.00  0.00    +0.000 A 
ATOM     33  F   UNL     1       1.800  10.312  17.436  0.00  0.00    +0.000 F 
ATOM     34  C   UNL     1       3.024   8.299  17.327  0.00  0.00    +0.000 A 
ATOM     35  C   UNL     1       3.380   7.080  17.907  0.00  0.00    +0.000 A 
ENDBRANCH  28  29
ENDBRANCH   6  28
TORSDOF 5
ENDMDL
MODEL 2
REMARK VINA RESULT:      -7.5      3.031      5.501
REMARK  Name = 
REMARK  7 active torsions:
REMARK  status: ('A' for Active; 'I' for Inactive)
REMARK    1  A    between atoms: C_1  and  C_2
REMARK    2  A    between atoms: C_2  and  C_3
REMARK    3  A    between atoms: C_2  and  C_4
REMARK    4  A    between atoms: N_9  and  C_10
REMARK    5  A    between atoms: C_10  and  C_11
REMARK    6  A    between atoms: C_18  and  C_19
REMARK    7  A    between atoms: C_22  and  C_23
REMARK                            x       y       z     vdW  Elec       q    Type
REMARK                         _______ _______ _______ _____ _____    ______ ____
ROOT
ATOM      1  C   UNL     1       1.365   7.159  19.758  0.00  0.00    +0.000 C 
ATOM      2  C   UNL     1       2.162   5.954  20.288  0.00  0.00    +0.000 C 
ATOM      3  C   UNL     1       3.600   6.148  19.772  0.00  0.00    +0.000 C 
ATOM      4  C   UNL     1       3.444   7.176  18.665  0.00  0.00    +0.000 C 
ATOM      5  O   UNL     1       4.344   7.688  18.014  0.00  0.00    +0.000 OA
ATOM      6  N   UNL     1       2.110   7.520  18.570  0.00  0.00    +0.000 N 
ATOM      7  C   UNL     1       4.101   4.747  19.374  0.00  0.00    +0.000 C 
ATOM      8  N   UNL     1       2.943   3.838  19.502  0.00  0.00    +0.000 NA
ATOM      9  C   UNL     1       3.029   2.871  20.590  0.00  0.00    +0.000 C 
ATOM     10  C   UNL     1       1.577   2.468  20.766  0.00  0.00    +0.000 C 
ATOM     11  C   UNL     1       0.821   3.778  20.582  0.00  0.00    +0.000 C 
ATOM     12  C   UNL     1       1.721   4.625  19.677  0.00  0.00    +0.000 C 
ENDROOT
BRANCH   7  13
ATOM     13  C   UNL     1       4.789   4.629  18.020  0.00  0.00    +0.000 A 
ATOM     14  C   UNL     1       6.179   4.823  17.924  0.00  0.00    +0.000 A 
ATOM     15  C   UNL     1       6.829   4.791  16.685  0.00  0.00    +0.000 A 
ATOM     16  C   UNL     1       6.103   4.514  15.526  0.00  0.00    +0.000 A 
ATOM     17  C   UNL     1       4.730   4.277  15.607  0.00  0.00    +0.000 A 
ATOM     18  C   UNL     1       4.083   4.336  16.845  0.00  0.00    +0.000 A 
BRANCH  16  19
ATOM     19  C   UNL     1       6.791   4.491  14.209  0.00  0.00    +0.000 C 
ATOM     20  N   UNL     1       6.522   3.623  13.287  0.00  0.00    +0.000 NA
ATOM     21  N   UNL     1       7.744   5.421  13.911  0.00  0.00    +0.000 N 
ATOM     22  H   UNL     1       5.829   2.943  13.616  0.00  0.00    +0.000 HD
ATOM     23  H   UNL     1       7.587   6.350  14.283  0.00  0.00    +0.000 HD
ATOM     24  H   UNL     1       7.948   5.421  12.916  0.00  0.00    +0.000 HD
ENDBRANCH  16  19
ENDBRANCH   7  13
BRANCH   1  26
ATOM     25  C   UNL     1       2.142   8.065  22.045  0.00  0.00    +0.000 C 
ATOM     26  C   UNL     1       1.271   8.315  20.808  0.00  0.00    +0.000 C 
ATOM     27  C   UNL     1      -0.143   8.669  21.286  0.00  0.00    +0.000 C 
ENDBRANCH   1  26
BRANCH   6  28
ATOM     28  C   UNL     1       1.569   8.279  17.454  0.00  0.00    +0.000 C 
BRANCH  28  29
ATOM     29  C   UNL     1       1.006   9.612  17.894  0.00  0.00    +0.000 A 
ATOM     30  C   UNL     1      -0.380   9.836  17.891  0.00  0.00    +0.000 A 
ATOM     31  C   UNL     1      -0.897  11.069  18.292  0.00  0.00    +0.000 A 
ATOM     32  C   UNL     1      -0.031  12.081  18.692  0.00  0.00    +0.000 A 
ATOM     33  F   UNL     1      -0.532  13.263  19.071  0.00  0.00    +0.000 F 
ATOM     34  C   UNL     1       1.343  11.881  18.702  0.00  0.00    +0.000 A 
ATOM     35  C   UNL     1       1.863  10.649  18.300  0.00  0.00    +0.000 A 
ENDBRANCH  28  29
ENDBRANCH   6  28
TORSDOF 5
ENDMDL
MODEL 3
REMARK VINA RESULT:      -7.4      7.913     12.061
REMARK  Name = 
REMARK  7 active torsions:
REMARK  status: ('A' for Active; 'I' for Inactive)
REMARK    1  A    between atoms: C_1  and  C_2
REMARK    2  A    between atoms: C_2  and  C_3
REMARK    3  A    between atoms: C_2  and  C_4
REMARK    4  A    between atoms: N_9  and  C_10
REMARK    5  A    between atoms: C_10  and  C_11
REMARK    6  A    between atoms: C_18  and  C_19
REMARK    7  A    between atoms: C_22  and  C_23
REMARK                            x       y       z     vdW  Elec       q    Type
REMARK                         _______ _______ _______ _____ _____    ______ ____
ROOT
ATOM      1  C   UNL     1       0.153  12.480  18.966  0.00  0.00    +0.000 C 
ATOM      2  C   UNL     1       0.164  13.724  19.873  0.00  0.00    +0.000 C 
ATOM      3  C   UNL     1      -0.327  13.237  21.249  0.00  0.00    +0.000 C 
ATOM      4  C   UNL     1      -0.974  11.898  20.942  0.00  0.00    +0.000 C 
ATOM      5  O   UNL     1      -1.444  11.112  21.754  0.00  0.00    +0.000 OA
ATOM      6  N   UNL     1      -0.862  11.657  19.587  0.00  0.00    +0.000 N 
ATOM      7  C   UNL     1      -1.235  14.355  21.795  0.00  0.00    +0.000 C 
ATOM      8  N   UNL     1      -1.382  15.344  20.707  0.00  0.00    +0.000 NA
ATOM      9  C   UNL     1      -0.726  16.626  20.939  0.00  0.00    +0.000 C 
ATOM     10  C   UNL     1      -0.627  17.185  19.533  0.00  0.00    +0.000 C 
ATOM     11  C   UNL     1      -0.279  15.966  18.689  0.00  0.00    +0.000 C 
ATOM     12  C   UNL     1      -0.863  14.778  19.460  0.00  0.00    +0.000 C 
ENDROOT
BRANCH   7  13
ATOM     13  C   UNL     1      -2.576  13.922  22.375  0.00  0.00    +0.000 A 
ATOM     14  C   UNL     1      -3.754  14.117  21.631  0.00  0.00    +0.000 A 
ATOM     15  C   UNL     1      -5.006  13.795  22.166  0.00  0.00    +0.000 A 
ATOM     16  C   UNL     1      -5.095  13.222  23.436  0.00  0.00    +0.000 A 
ATOM     17  C   UNL     1      -3.933  12.982  24.171  0.00  0.00    +0.000 A 
ATOM     18  C   UNL     1      -2.687  13.331  23.641  0.00  0.00    +0.000 A 
BRANCH  16  19
ATOM     19  C   UNL     1      -6.425  12.890  24.007  0.00  0.00    +0.000 C 
ATOM     20  N   UNL     1      -6.889  11.682  24.059  0.00  0.00    +0.000 NA
ATOM     21  N   UNL     1      -7.219  13.870  24.527  0.00  0.00    +0.000 N 
ATOM     22  H   UNL     1      -6.246  11.023  23.609  0.00  0.00    +0.000 HD
ATOM     23  H   UNL     1      -6.737  14.623  25.004  0.00  0.00    +0.000 HD
ATOM     24  H   UNL     1      -7.973  13.469  25.078  0.00  0.00    +0.000 HD
ENDBRANCH  16  19
ENDBRANCH   7  13
BRANCH   1  26
ATOM     25  C   UNL     1       2.605  12.654  18.181  0.00  0.00    +0.000 C 
ATOM     26  C   UNL     1       1.555  11.790  18.892  0.00  0.00    +0.000 C 
ATOM     27  C   UNL     1       1.580  10.394  18.256  0.00  0.00    +0.000 C 
ENDBRANCH   1  26
BRANCH   6  28
ATOM     28  C   UNL     1      -1.593  10.597  18.912  0.00  0.00    +0.000 C 
BRANCH  28  29
ATOM     29  C   UNL     1      -2.889  11.095  18.310  0.00  0.00    +0.000 A 
ATOM     30  C   UNL     1      -3.158  10.906  16.944  0.00  0.00    +0.000 A 
ATOM     31  C   UNL     1      -4.352  11.371  16.390  0.00  0.00    +0.000 A 
ATOM     32  C   UNL     1      -5.275  12.028  17.195  0.00  0.00    +0.000 A 
ATOM     33  F   UNL     1      -6.416  12.476  16.657  0.00  0.00    +0.000 F 
ATOM     34  C   UNL     1      -5.028  12.225  18.548  0.00  0.00    +0.000 A 
ATOM     35  C   UNL     1      -3.835  11.763  19.105  0.00  0.00    +0.000 A 
ENDBRANCH  28  29
ENDBRANCH   6  28
TORSDOF 5
ENDMDL
MODEL 4
REMARK VINA RESULT:      -7.4      7.763     11.904
REMARK  Name = 
REMARK  7 active torsions:
REMARK  status: ('A' for Active; 'I' for Inactive)
REMARK    1  A    between atoms: C_1  and  C_2
REMARK    2  A    between atoms: C_2  and  C_3
REMARK    3  A    between atoms: C_2  and  C_4
REMARK    4  A    between atoms: N_9  and  C_10
REMARK    5  A    between atoms: C_10  and  C_11
REMARK    6  A    between atoms: C_18  and  C_19
REMARK    7  A    between atoms: C_22  and  C_23
REMARK                            x       y       z     vdW  Elec       q    Type
REMARK                         _______ _______ _______ _____ _____    ______ ____
ROOT
ATOM      1  C   UNL     1       0.968  13.411  19.005  0.00  0.00    +0.000 C 
ATOM      2  C   UNL     1       0.628  14.765  19.654  0.00  0.00    +0.000 C 
ATOM      3  C   UNL     1       0.347  14.456  21.136  0.00  0.00    +0.000 C 
ATOM      4  C   UNL     1       0.127  12.953  21.149  0.00  0.00    +0.000 C 
ATOM      5  O   UNL     1      -0.061  12.253  22.135  0.00  0.00    +0.000 OA
ATOM      6  N   UNL     1       0.267  12.477  19.860  0.00  0.00    +0.000 N 
ATOM      7  C   UNL     1      -0.841  15.351  21.538  0.00  0.00    +0.000 C 
ATOM      8  N   UNL     1      -1.310  16.004  20.299  0.00  0.00    +0.000 NA
ATOM      9  C   UNL     1      -1.066  17.440  20.223  0.00  0.00    +0.000 C 
ATOM     10  C   UNL     1      -1.180  17.698  18.733  0.00  0.00    +0.000 C 
ATOM     11  C   UNL     1      -0.505  16.483  18.109  0.00  0.00    +0.000 C 
ATOM     12  C   UNL     1      -0.680  15.365  19.141  0.00  0.00    +0.000 C 
ENDROOT
BRANCH   7  13
ATOM     13  C   UNL     1      -1.970  14.678  22.308  0.00  0.00    +0.000 A 
ATOM     14  C   UNL     1      -3.053  14.114  21.608  0.00  0.00    +0.000 A 
ATOM     15  C   UNL     1      -4.138  13.553  22.290  0.00  0.00    +0.000 A 
ATOM     16  C   UNL     1      -4.133  13.501  23.684  0.00  0.00    +0.000 A 
ATOM     17  C   UNL     1      -3.048  14.018  24.394  0.00  0.00    +0.000 A 
ATOM     18  C   UNL     1      -1.979  14.601  23.707  0.00  0.00    +0.000 A 
BRANCH  16  19
ATOM     19  C   UNL     1      -5.291  12.915  24.408  0.00  0.00    +0.000 C 
ATOM     20  N   UNL     1      -5.209  11.831  25.110  0.00  0.00    +0.000 NA
ATOM     21  N   UNL     1      -6.510  13.526  24.371  0.00  0.00    +0.000 N 
ATOM     22  H   UNL     1      -4.271  11.422  25.044  0.00  0.00    +0.000 HD
ATOM     23  H   UNL     1      -6.498  14.539  24.357  0.00  0.00    +0.000 HD
ATOM     24  H   UNL     1      -7.125  13.146  25.085  0.00  0.00    +0.000 HD
ENDBRANCH  16  19
ENDBRANCH   7  13
BRANCH   1  26
ATOM     25  C   UNL     1       3.321  14.456  18.837  0.00  0.00    +0.000 C 
ATOM     26  C   UNL     1       2.510  13.157  18.938  0.00  0.00    +0.000 C 
ATOM     27  C   UNL     1       2.984  12.213  17.826  0.00  0.00    +0.000 C 
ENDBRANCH   1  26
BRANCH   6  28
ATOM     28  C   UNL     1      -0.129  11.134  19.469  0.00  0.00    +0.000 C 
BRANCH  28  29
ATOM     29  C   UNL     1      -1.414  11.131  18.671  0.00  0.00    +0.000 A 
ATOM     30  C   UNL     1      -2.524  11.874  19.106  0.00  0.00    +0.000 A 
ATOM     31  C   UNL     1      -3.711  11.865  18.372  0.00  0.00    +0.000 A 
ATOM     32  C   UNL     1      -3.793  11.112  17.206  0.00  0.00    +0.000 A 
ATOM     33  F   UNL     1      -4.935  11.103  16.508  0.00  0.00    +0.000 F 
ATOM     34  C   UNL     1      -2.708  10.370  16.758  0.00  0.00    +0.000 A 
ATOM     35  C   UNL     1      -1.520  10.375  17.491  0.00  0.00    +0.000 A 
ENDBRANCH  28  29
ENDBRANCH   6  28
TORSDOF 5
ENDMDL
MODEL 5
REMARK VINA RESULT:      -7.4      3.014      5.495
REMARK  Name = 
REMARK  7 active torsions:
REMARK  status: ('A' for Active; 'I' for Inactive)
REMARK    1  A    between atoms: C_1  and  C_2
REMARK    2  A    between atoms: C_2  and  C_3
REMARK    3  A    between atoms: C_2  and  C_4
REMARK    4  A    between atoms: N_9  and  C_10
REMARK    5  A    between atoms: C_10  and  C_11
REMARK    6  A    between atoms: C_18  and  C_19
REMARK    7  A    between atoms: C_22  and  C_23
REMARK                            x       y       z     vdW  Elec       q    Type
REMARK                         _______ _______ _______ _____ _____    ______ ____
ROOT
ATOM      1  C   UNL     1       1.312   7.203  19.722  0.00  0.00    +0.000 C 
ATOM      2  C   UNL     1       2.140   6.010  20.232  0.00  0.00    +0.000 C 
ATOM      3  C   UNL     1       3.576   6.259  19.733  0.00  0.00    +0.000 C 
ATOM      4  C   UNL     1       3.398   7.308  18.649  0.00  0.00    +0.000 C 
ATOM      5  O   UNL     1       4.288   7.862  18.018  0.00  0.00    +0.000 OA
ATOM      6  N   UNL     1       2.055   7.613  18.550  0.00  0.00    +0.000 N 
ATOM      7  C   UNL     1       4.122   4.883  19.307  0.00  0.00    +0.000 C 
ATOM      8  N   UNL     1       2.992   3.937  19.404  0.00  0.00    +0.000 NA
ATOM      9  C   UNL     1       3.097   2.948  20.470  0.00  0.00    +0.000 C 
ATOM     10  C   UNL     1       1.657   2.498  20.623  0.00  0.00    +0.000 C 
ATOM     11  C   UNL     1       0.863   3.788  20.463  0.00  0.00    +0.000 C 
ATOM     12  C   UNL     1       1.745   4.683  19.586  0.00  0.00    +0.000 C 
ENDROOT
BRANCH   7  13
ATOM     13  C   UNL     1       4.825   4.818  17.958  0.00  0.00    +0.000 A 
ATOM     14  C   UNL     1       4.099   4.455  16.808  0.00  0.00    +0.000 A 
ATOM     15  C   UNL     1       4.732   4.318  15.569  0.00  0.00    +0.000 A 
ATOM     16  C   UNL     1       6.096   4.591  15.449  0.00  0.00    +0.000 A 
ATOM     17  C   UNL     1       6.824   4.993  16.570  0.00  0.00    +0.000 A 
ATOM     18  C   UNL     1       6.190   5.103  17.812  0.00  0.00    +0.000 A 
BRANCH  16  19
ATOM     19  C   UNL     1       6.770   4.434  14.134  0.00  0.00    +0.000 C 
ATOM     20  N   UNL     1       6.467   3.499  13.293  0.00  0.00    +0.000 NA
ATOM     21  N   UNL     1       7.748   5.305  13.751  0.00  0.00    +0.000 N 
ATOM     22  H   UNL     1       5.755   2.872  13.683  0.00  0.00    +0.000 HD
ATOM     23  H   UNL     1       7.624   6.267  14.042  0.00  0.00    +0.000 HD
ATOM     24  H   UNL     1       7.943   5.213  12.758  0.00  0.00    +0.000 HD
ENDBRANCH  16  19
ENDBRANCH   7  13
BRANCH   1  26
ATOM     25  C   UNL     1       2.081   8.105  22.013  0.00  0.00    +0.000 C 
ATOM     26  C   UNL     1       1.174   8.330  20.797  0.00  0.00    +0.000 C 
ATOM     27  C   UNL     1      -0.248   8.595  21.309  0.00  0.00    +0.000 C 
ENDBRANCH   1  26
BRANCH   6  28
ATOM     28  C   UNL     1       1.501   8.381  17.447  0.00  0.00    +0.000 C 
BRANCH  28  29
ATOM     29  C   UNL     1       0.896   9.688  17.912  0.00  0.00    +0.000 A 
ATOM     30  C   UNL     1       1.718  10.730  18.370  0.00  0.00    +0.000 A 
ATOM     31  C   UNL     1       1.157  11.933  18.804  0.00  0.00    +0.000 A 
ATOM     32  C   UNL     1      -0.224  12.094  18.784  0.00  0.00    +0.000 A 
ATOM     33  F   UNL     1      -0.758  13.248  19.205  0.00  0.00    +0.000 F 
ATOM     34  C   UNL     1      -1.055  11.076  18.334  0.00  0.00    +0.000 A 
ATOM     35  C   UNL     1      -0.497   9.871  17.902  0.00  0.00    +0.000 A 
ENDBRANCH  28  29
ENDBRANCH   6  28
TORSDOF 5
ENDMDL
MODEL 6
REMARK VINA RESULT:      -7.2      7.429     10.992
REMARK  Name = 
REMARK  7 active torsions:
REMARK  status: ('A' for Active; 'I' for Inactive)
REMARK    1  A    between atoms: C_1  and  C_2
REMARK    2  A    between atoms: C_2  and  C_3
REMARK    3  A    between atoms: C_2  and  C_4
REMARK    4  A    between atoms: N_9  and  C_10
REMARK    5  A    between atoms: C_10  and  C_11
REMARK    6  A    between atoms: C_18  and  C_19
REMARK    7  A    between atoms: C_22  and  C_23
REMARK                            x       y       z     vdW  Elec       q    Type
REMARK                         _______ _______ _______ _____ _____    ______ ____
ROOT
ATOM      1  C   UNL     1       9.003  15.880  19.185  0.00  0.00    +0.000 C 
ATOM      2  C   UNL     1       7.572  16.244  19.617  0.00  0.00    +0.000 C 
ATOM      3  C   UNL     1       7.610  16.329  21.154  0.00  0.00    +0.000 C 
ATOM      4  C   UNL     1       8.900  15.613  21.516  0.00  0.00    +0.000 C 
ATOM      5  O   UNL     1       9.379  15.496  22.636  0.00  0.00    +0.000 OA
ATOM      6  N   UNL     1       9.508  15.187  20.352  0.00  0.00    +0.000 N 
ATOM      7  C   UNL     1       6.290  15.706  21.647  0.00  0.00    +0.000 C 
ATOM      8  N   UNL     1       5.621  15.148  20.454  0.00  0.00    +0.000 NA
ATOM      9  C   UNL     1       4.408  15.843  20.039  0.00  0.00    +0.000 C 
ATOM     10  C   UNL     1       4.262  15.386  18.600  0.00  0.00    +0.000 C 
ATOM     11  C   UNL     1       5.695  15.377  18.083  0.00  0.00    +0.000 C 
ATOM     12  C   UNL     1       6.557  15.139  19.328  0.00  0.00    +0.000 C 
ENDROOT
BRANCH   7  13
ATOM     13  C   UNL     1       6.395  14.697  22.783  0.00  0.00    +0.000 A 
ATOM     14  C   UNL     1       6.273  15.132  24.116  0.00  0.00    +0.000 A 
ATOM     15  C   UNL     1       6.436  14.241  25.183  0.00  0.00    +0.000 A 
ATOM     16  C   UNL     1       6.674  12.889  24.931  0.00  0.00    +0.000 A 
ATOM     17  C   UNL     1       6.756  12.433  23.615  0.00  0.00    +0.000 A 
ATOM     18  C   UNL     1       6.618  13.333  22.553  0.00  0.00    +0.000 A 
BRANCH  16  19
ATOM     19  C   UNL     1       6.857  11.946  26.064  0.00  0.00    +0.000 C 
ATOM     20  N   UNL     1       7.698  12.154  27.026  0.00  0.00    +0.000 NA
ATOM     21  N   UNL     1       6.114  10.805  26.140  0.00  0.00    +0.000 N 
ATOM     22  H   UNL     1       8.239  13.009  26.861  0.00  0.00    +0.000 HD
ATOM     23  H   UNL     1       5.160  10.875  25.809  0.00  0.00    +0.000 HD
ATOM     24  H   UNL     1       6.183  10.392  27.067  0.00  0.00    +0.000 HD
ENDBRANCH  16  19
ENDBRANCH   7  13
BRANCH   1  26
ATOM     25  C   UNL     1       8.977  18.299  18.288  0.00  0.00    +0.000 C 
ATOM     26  C   UNL     1       9.844  17.142  18.800  0.00  0.00    +0.000 C 
ATOM     27  C   UNL     1      10.971  16.909  17.786  0.00  0.00    +0.000 C 
ENDBRANCH   1  26
BRANCH   6  28
ATOM     28  C   UNL     1      10.619  14.250  20.340  0.00  0.00    +0.000 C 
BRANCH  28  29
ATOM     29  C   UNL     1      10.177  12.849  19.976  0.00  0.00    +0.000 A 
ATOM     30  C   UNL     1       9.731  11.962  20.969  0.00  0.00    +0.000 A 
ATOM     31  C   UNL     1       9.329  10.669  20.631  0.00  0.00    +0.000 A 
ATOM     32  C   UNL     1       9.376  10.259  19.303  0.00  0.00    +0.000 A 
ATOM     33  F   UNL     1       8.994   9.015  18.985  0.00  0.00    +0.000 F 
ATOM     34  C   UNL     1       9.814  11.120  18.305  0.00  0.00    +0.000 A 
ATOM     35  C   UNL     1      10.219  12.413  18.640  0.00  0.00    +0.000 A 
ENDBRANCH  28  29
ENDBRANCH   6  28
TORSDOF 5
ENDMDL
MODEL 7
REMARK VINA RESULT:      -7.2      7.727     12.164
REMARK  Name = 
REMARK  7 active torsions:
REMARK  status: ('A' for Active; 'I' for Inactive)
REMARK    1  A    between atoms: C_1  and  C_2
REMARK    2  A    between atoms: C_2  and  C_3
REMARK    3  A    between atoms: C_2  and  C_4
REMARK    4  A    between atoms: N_9  and  C_10
REMARK    5  A    between atoms: C_10  and  C_11
REMARK    6  A    between atoms: C_18  and  C_19
REMARK    7  A    between atoms: C_22  and  C_23
REMARK                            x       y       z     vdW  Elec       q    Type
REMARK                         _______ _______ _______ _____ _____    ______ ____
ROOT
ATOM      1  C   UNL     1       0.277  13.241  19.663  0.00  0.00    +0.000 C 
ATOM      2  C   UNL     1      -0.026  14.498  20.497  0.00  0.00    +0.000 C 
ATOM      3  C   UNL     1      -0.593  13.984  21.833  0.00  0.00    +0.000 C 
ATOM      4  C   UNL     1      -0.970  12.544  21.527  0.00  0.00    +0.000 C 
ATOM      5  O   UNL     1      -1.399  11.719  22.322  0.00  0.00    +0.000 OA
ATOM      6  N   UNL     1      -0.657  12.279  20.209  0.00  0.00    +0.000 N 
ATOM      7  C   UNL     1      -1.731  14.950  22.211  0.00  0.00    +0.000 C 
ATOM      8  N   UNL     1      -1.905  15.861  21.062  0.00  0.00    +0.000 NA
ATOM      9  C   UNL     1      -1.501  17.243  21.297  0.00  0.00    +0.000 C 
ATOM     10  C   UNL     1      -1.326  17.763  19.883  0.00  0.00    +0.000 C 
ATOM     11  C   UNL     1      -0.684  16.591  19.151  0.00  0.00    +0.000 C 
ATOM     12  C   UNL     1      -1.154  15.349  19.914  0.00  0.00    +0.000 C 
ENDROOT
BRANCH   7  13
ATOM     13  C   UNL     1      -3.043  14.316  22.658  0.00  0.00    +0.000 A 
ATOM     14  C   UNL     1      -4.087  14.144  21.731  0.00  0.00    +0.000 A 
ATOM     15  C   UNL     1      -5.326  13.630  22.127  0.00  0.00    +0.000 A 
ATOM     16  C   UNL     1      -5.524  13.233  23.450  0.00  0.00    +0.000 A 
ATOM     17  C   UNL     1      -4.486  13.357  24.375  0.00  0.00    +0.000 A 
ATOM     18  C   UNL     1      -3.258  13.896  23.978  0.00  0.00    +0.000 A 
BRANCH  16  19
ATOM     19  C   UNL     1      -6.844  12.698  23.873  0.00  0.00    +0.000 C 
ATOM     20  N   UNL     1      -7.634  13.327  24.684  0.00  0.00    +0.000 NA
ATOM     21  N   UNL     1      -7.290  11.500  23.396  0.00  0.00    +0.000 N 
ATOM     22  H   UNL     1      -7.198  14.192  25.022  0.00  0.00    +0.000 HD
ATOM     23  H   UNL     1      -7.042  11.286  22.437  0.00  0.00    +0.000 HD
ATOM     24  H   UNL     1      -8.282  11.384  23.585  0.00  0.00    +0.000 HD
ENDBRANCH  16  19
ENDBRANCH   7  13
BRANCH   1  26
ATOM     25  C   UNL     1       2.580  13.689  20.735  0.00  0.00    +0.000 C 
ATOM     26  C   UNL     1       1.771  12.795  19.786  0.00  0.00    +0.000 C 
ATOM     27  C   UNL     1       2.545  12.681  18.466  0.00  0.00    +0.000 C 
ENDBRANCH   1  26
BRANCH   6  28
ATOM     28  C   UNL     1      -1.118  11.088  19.514  0.00  0.00    +0.000 C 
BRANCH  28  29
ATOM     29  C   UNL     1      -0.018  10.062  19.355  0.00  0.00    +0.000 A 
ATOM     30  C   UNL     1       0.515   9.779  18.087  0.00  0.00    +0.000 A 
ATOM     31  C   UNL     1       1.526   8.828  17.942  0.00  0.00    +0.000 A 
ATOM     32  C   UNL     1       2.003   8.155  19.062  0.00  0.00    +0.000 A 
ATOM     33  F   UNL     1       2.970   7.240  18.917  0.00  0.00    +0.000 F 
ATOM     34  C   UNL     1       1.490   8.419  20.326  0.00  0.00    +0.000 A 
ATOM     35  C   UNL     1       0.477   9.368  20.473  0.00  0.00    +0.000 A 
ENDBRANCH  28  29
ENDBRANCH   6  28
TORSDOF 5
ENDMDL
MODEL 8
REMARK VINA RESULT:      -7.2      7.836     12.043
REMARK  Name = 
REMARK  7 active torsions:
REMARK  status: ('A' for Active; 'I' for Inactive)
REMARK    1  A    between atoms: C_1  and  C_2
REMARK    2  A    between atoms: C_2  and  C_3
REMARK    3  A    between atoms: C_2  and  C_4
REMARK    4  A    between atoms: N_9  and  C_10
REMARK    5  A    between atoms: C_10  and  C_11
REMARK    6  A    between atoms: C_18  and  C_19
REMARK    7  A    between atoms: C_22  and  C_23
REMARK                            x       y       z     vdW  Elec       q    Type
REMARK                         _______ _______ _______ _____ _____    ______ ____
ROOT
ATOM      1  C   UNL     1       0.958  13.556  18.959  0.00  0.00    +0.000 C 
ATOM      2  C   UNL     1       0.620  14.914  19.600  0.00  0.00    +0.000 C 
ATOM      3  C   UNL     1       0.319  14.610  21.080  0.00  0.00    +0.000 C 
ATOM      4  C   UNL     1       0.088  13.109  21.094  0.00  0.00    +0.000 C 
ATOM      5  O   UNL     1      -0.117  12.413  22.079  0.00  0.00    +0.000 OA
ATOM      6  N   UNL     1       0.240  12.629  19.808  0.00  0.00    +0.000 N 
ATOM      7  C   UNL     1      -0.867  15.515  21.466  0.00  0.00    +0.000 C 
ATOM      8  N   UNL     1      -1.316  16.169  20.220  0.00  0.00    +0.000 NA
ATOM      9  C   UNL     1      -1.061  17.603  20.143  0.00  0.00    +0.000 C 
ATOM     10  C   UNL     1      -1.156  17.858  18.651  0.00  0.00    +0.000 C 
ATOM     11  C   UNL     1      -0.482  16.637  18.038  0.00  0.00    +0.000 C 
ATOM     12  C   UNL     1      -0.678  15.523  19.071  0.00  0.00    +0.000 C 
ENDROOT
BRANCH   7  13
ATOM     13  C   UNL     1      -2.010  14.853  22.224  0.00  0.00    +0.000 A 
ATOM     14  C   UNL     1      -3.145  14.404  21.523  0.00  0.00    +0.000 A 
ATOM     15  C   UNL     1      -4.241  13.857  22.200  0.00  0.00    +0.000 A 
ATOM     16  C   UNL     1      -4.196  13.703  23.586  0.00  0.00    +0.000 A 
ATOM     17  C   UNL     1      -3.062  14.103  24.293  0.00  0.00    +0.000 A 
ATOM     18  C   UNL     1      -1.981  14.673  23.614  0.00  0.00    +0.000 A 
BRANCH  16  19
ATOM     19  C   UNL     1      -5.365  13.131  24.305  0.00  0.00    +0.000 C 
ATOM     20  N   UNL     1      -6.532  13.690  24.310  0.00  0.00    +0.000 NA
ATOM     21  N   UNL     1      -5.248  11.958  24.990  0.00  0.00    +0.000 N 
ATOM     22  H   UNL     1      -6.513  14.584  23.808  0.00  0.00    +0.000 HD
ATOM     23  H   UNL     1      -4.633  11.265  24.581  0.00  0.00    +0.000 HD
ATOM     24  H   UNL     1      -6.164  11.585  25.225  0.00  0.00    +0.000 HD
ENDBRANCH  16  19
ENDBRANCH   7  13
BRANCH   1  26
ATOM     25  C   UNL     1       3.312  14.565  18.650  0.00  0.00    +0.000 C 
ATOM     26  C   UNL     1       2.498  13.291  18.911  0.00  0.00    +0.000 C 
ATOM     27  C   UNL     1       2.961  12.219  17.916  0.00  0.00    +0.000 C 
ENDBRANCH   1  26
BRANCH   6  28
ATOM     28  C   UNL     1      -0.161  11.289  19.415  0.00  0.00    +0.000 C 
BRANCH  28  29
ATOM     29  C   UNL     1      -1.493  11.282  18.697  0.00  0.00    +0.000 A 
ATOM     30  C   UNL     1      -1.622  10.664  17.442  0.00  0.00    +0.000 A 
ATOM     31  C   UNL     1      -2.850  10.663  16.779  0.00  0.00    +0.000 A 
ATOM     32  C   UNL     1      -3.949  11.282  17.364  0.00  0.00    +0.000 A 
ATOM     33  F   UNL     1      -5.123  11.283  16.722  0.00  0.00    +0.000 F 
ATOM     34  C   UNL     1      -3.843  11.899  18.605  0.00  0.00    +0.000 A 
ATOM     35  C   UNL     1      -2.615  11.903  19.269  0.00  0.00    +0.000 A 
ENDBRANCH  28  29
ENDBRANCH   6  28
TORSDOF 5
ENDMDL
MODEL 9
REMARK VINA RESULT:      -7.2      7.942     12.090
REMARK  Name = 
REMARK  7 active torsions:
REMARK  status: ('A' for Active; 'I' for Inactive)
REMARK    1  A    between atoms: C_1  and  C_2
REMARK    2  A    between atoms: C_2  and  C_3
REMARK    3  A    between atoms: C_2  and  C_4
REMARK    4  A    between atoms: N_9  and  C_10
REMARK    5  A    between atoms: C_10  and  C_11
REMARK    6  A    between atoms: C_18  and  C_19
REMARK    7  A    between atoms: C_22  and  C_23
REMARK                            x       y       z     vdW  Elec       q    Type
REMARK                         _______ _______ _______ _____ _____    ______ ____
ROOT
ATOM      1  C   UNL     1       0.869  13.434  19.222  0.00  0.00    +0.000 C 
ATOM      2  C   UNL     1       0.527  14.815  19.809  0.00  0.00    +0.000 C 
ATOM      3  C   UNL     1       0.136  14.557  21.277  0.00  0.00    +0.000 C 
ATOM      4  C   UNL     1      -0.130  13.062  21.315  0.00  0.00    +0.000 C 
ATOM      5  O   UNL     1      -0.405  12.396  22.304  0.00  0.00    +0.000 OA
ATOM      6  N   UNL     1       0.084  12.545  20.052  0.00  0.00    +0.000 N 
ATOM      7  C   UNL     1      -1.049  15.497  21.572  0.00  0.00    +0.000 C 
ATOM      8  N   UNL     1      -1.412  16.127  20.286  0.00  0.00    +0.000 NA
ATOM      9  C   UNL     1      -1.121  17.553  20.188  0.00  0.00    +0.000 C 
ATOM     10  C   UNL     1      -1.126  17.770  18.687  0.00  0.00    +0.000 C 
ATOM     11  C   UNL     1      -0.446  16.519  18.144  0.00  0.00    +0.000 C 
ATOM     12  C   UNL     1      -0.725  15.437  19.192  0.00  0.00    +0.000 C 
ENDROOT
BRANCH   7  13
ATOM     13  C   UNL     1      -2.248  14.879  22.279  0.00  0.00    +0.000 A 
ATOM     14  C   UNL     1      -2.273  14.816  23.685  0.00  0.00    +0.000 A 
ATOM     15  C   UNL     1      -3.327  14.191  24.360  0.00  0.00    +0.000 A 
ATOM     16  C   UNL     1      -4.400  13.663  23.640  0.00  0.00    +0.000 A 
ATOM     17  C   UNL     1      -4.412  13.753  22.247  0.00  0.00    +0.000 A 
ATOM     18  C   UNL     1      -3.343  14.356  21.577  0.00  0.00    +0.000 A 
BRANCH  16  19
ATOM     19  C   UNL     1      -5.514  12.989  24.356  0.00  0.00    +0.000 C 
ATOM     20  N   UNL     1      -6.661  13.552  24.564  0.00  0.00    +0.000 NA
ATOM     21  N   UNL     1      -5.367  11.715  24.818  0.00  0.00    +0.000 N 
ATOM     22  H   UNL     1      -6.663  14.518  24.221  0.00  0.00    +0.000 HD
ATOM     23  H   UNL     1      -4.810  11.096  24.242  0.00  0.00    +0.000 HD
ATOM     24  H   UNL     1      -6.268  11.317  25.070  0.00  0.00    +0.000 HD
ENDBRANCH  16  19
ENDBRANCH   7  13
BRANCH   1  26
ATOM     25  C   UNL     1       3.244  14.389  19.544  0.00  0.00    +0.000 C 
ATOM     26  C   UNL     1       2.404  13.135  19.269  0.00  0.00    +0.000 C 
ATOM     27  C   UNL     1       2.986  12.434  18.035  0.00  0.00    +0.000 C 
ENDBRANCH   1  26
BRANCH   6  28
ATOM     28  C   UNL     1      -0.325  11.204  19.671  0.00  0.00    +0.000 C 
BRANCH  28  29
ATOM     29  C   UNL     1      -1.530  11.215  18.757  0.00  0.00    +0.000 A 
ATOM     30  C   UNL     1      -2.691  11.920  19.116  0.00  0.00    +0.000 A 
ATOM     31  C   UNL     1      -3.803  11.925  18.274  0.00  0.00    +0.000 A 
ATOM     32  C   UNL     1      -3.761  11.224  17.075  0.00  0.00    +0.000 A 
ATOM     33  F   UNL     1      -4.833  11.227  16.272  0.00  0.00    +0.000 F 
ATOM     34  C   UNL     1      -2.624  10.519  16.699  0.00  0.00    +0.000 A 
ATOM     35  C   UNL     1      -1.510  10.511  17.541  0.00  0.00    +0.000 A 
ENDBRANCH  28  29
ENDBRANCH   6  28
TORSDOF 5
ENDMDL
