MODEL 1
REMARK VINA RESULT:      -7.2      0.000      0.000
REMARK  Name = 
REMARK  6 active torsions:
REMARK  status: ('A' for Active; 'I' for Inactive)
REMARK    1  A    between atoms: C_1  and  C_2
REMARK    2  A    between atoms: N_6  and  C_7
REMARK    3  A    between atoms: N_13  and  C_14
REMARK    4  A    between atoms: C_14  and  C_15
REMARK    5  A    between atoms: C_15  and  C_16
REMARK    6  A    between atoms: C_16  and  C_17
REMARK                            x       y       z     vdW  Elec       q    Type
REMARK                         _______ _______ _______ _____ _____    ______ ____
ROOT
ATOM      1  C   UNL     1       2.150   1.366  19.980  0.00  0.00    +0.000 C 
ATOM      2  C   UNL     1       1.923   2.803  19.556  0.00  0.00    +0.000 C 
ATOM      3  C   UNL     1       0.798   3.413  20.409  0.00  0.00    +0.000 C 
ATOM      4  N   UNL     1       1.061   4.867  20.425  0.00  0.00    +0.000 NA
ATOM      5  C   UNL     1       2.332   4.972  20.098  0.00  0.00    +0.000 C 
ATOM      6  N   UNL     1       2.983   6.170  19.989  0.00  0.00    +0.000 N 
ATOM      7  N   UNL     1       2.977   3.789  19.829  0.00  0.00    +0.000 N 
ATOM      8  H   UNL     1       3.884   6.134  19.533  0.00  0.00    +0.000 HD
ENDROOT
BRANCH   6   9
ATOM      9  C   UNL     1       2.319   7.347  19.573  0.00  0.00    +0.000 A 
ATOM     10  C   UNL     1       1.633   8.140  20.505  0.00  0.00    +0.000 A 
ATOM     11  C   UNL     1       0.998   9.320  20.100  0.00  0.00    +0.000 A 
ATOM     12  C   UNL     1       1.068   9.739  18.769  0.00  0.00    +0.000 A 
ATOM     13  C   UNL     1       1.789   8.983  17.850  0.00  0.00    +0.000 A 
ATOM     14  C   UNL     1       2.419   7.807  18.248  0.00  0.00    +0.000 A 
ENDBRANCH   6   9
BRANCH   7  15
ATOM     15  C   UNL     1       4.353   3.617  19.385  0.00  0.00    +0.000 C 
BRANCH  15  16
ATOM     16  C   UNL     1       4.435   3.439  17.854  0.00  0.00    +0.000 C 
BRANCH  16  17
ATOM     17  C   UNL     1       4.158   4.690  17.015  0.00  0.00    +0.000 C 
BRANCH  17  18
ATOM     18  C   UNL     1       5.324   5.022  16.040  0.00  0.00    +0.000 C 
ATOM     19  C   UNL     1       5.571   6.524  15.789  0.00  0.00    +0.000 C 
ATOM     20  C   UNL     1       6.086   7.247  17.031  0.00  0.00    +0.000 C 
ATOM     21  C   UNL     1       7.367   6.601  17.553  0.00  0.00    +0.000 C 
ATOM     22  C   UNL     1       7.221   5.093  17.751  0.00  0.00    +0.000 C 
ATOM     23  C   UNL     1       6.645   4.394  16.518  0.00  0.00    +0.000 C 
ENDBRANCH  17  18
ENDBRANCH  16  17
ENDBRANCH  15  16
ENDBRANCH   7  15
TORSDOF 5
ENDMDL
MODEL 2
REMARK VINA RESULT:      -7.1      2.938      7.039
REMARK  Name = 
REMARK  6 active torsions:
REMARK  status: ('A' for Active; 'I' for Inactive)
REMARK    1  A    between atoms: C_1  and  C_2
REMARK    2  A    between atoms: N_6  and  C_7
REMARK    3  A    between atoms: N_13  and  C_14
REMARK    4  A    between atoms: C_14  and  C_15
REMARK    5  A    between atoms: C_15  and  C_16
REMARK    6  A    between atoms: C_16  and  C_17
REMARK                            x       y       z     vdW  Elec       q    Type
REMARK                         _______ _______ _______ _____ _____    ______ ____
ROOT
ATOM      1  C   UNL     1       7.368   5.945  19.689  0.00  0.00    +0.000 C 
ATOM      2  C   UNL     1       7.393   5.780  18.183  0.00  0.00    +0.000 C 
ATOM      3  C   UNL     1       8.076   4.447  17.829  0.00  0.00    +0.000 C 
ATOM      4  N   UNL     1       7.515   4.054  16.520  0.00  0.00    +0.000 NA
ATOM      5  C   UNL     1       6.394   4.739  16.426  0.00  0.00    +0.000 C 
ATOM      6  N   UNL     1       5.560   4.670  15.344  0.00  0.00    +0.000 N 
ATOM      7  N   UNL     1       6.120   5.577  17.480  0.00  0.00    +0.000 N 
ATOM      8  H   UNL     1       4.852   5.390  15.295  0.00  0.00    +0.000 HD
ENDROOT
BRANCH   6   9
ATOM      9  C   UNL     1       6.046   4.434  14.038  0.00  0.00    +0.000 A 
ATOM     10  C   UNL     1       7.190   5.102  13.576  0.00  0.00    +0.000 A 
ATOM     11  C   UNL     1       7.689   4.850  12.293  0.00  0.00    +0.000 A 
ATOM     12  C   UNL     1       7.073   3.905  11.469  0.00  0.00    +0.000 A 
ATOM     13  C   UNL     1       5.968   3.202  11.939  0.00  0.00    +0.000 A 
ATOM     14  C   UNL     1       5.467   3.453  13.214  0.00  0.00    +0.000 A 
ENDBRANCH   6   9
BRANCH   7  15
ATOM     15  C   UNL     1       4.992   6.491  17.607  0.00  0.00    +0.000 C 
BRANCH  15  16
ATOM     16  C   UNL     1       4.000   6.016  18.689  0.00  0.00    +0.000 C 
BRANCH  16  17
ATOM     17  C   UNL     1       3.370   4.637  18.467  0.00  0.00    +0.000 C 
BRANCH  17  18
ATOM     18  C   UNL     1       1.865   4.601  18.859  0.00  0.00    +0.000 C 
ATOM     19  C   UNL     1       1.161   3.242  18.656  0.00  0.00    +0.000 C 
ATOM     20  C   UNL     1       1.682   2.167  19.605  0.00  0.00    +0.000 C 
ATOM     21  C   UNL     1       1.539   2.600  21.061  0.00  0.00    +0.000 C 
ATOM     22  C   UNL     1       2.147   3.978  21.321  0.00  0.00    +0.000 C 
ATOM     23  C   UNL     1       1.661   5.030  20.322  0.00  0.00    +0.000 C 
ENDBRANCH  17  18
ENDBRANCH  16  17
ENDBRANCH  15  16
ENDBRANCH   7  15
TORSDOF 5
ENDMDL
MODEL 3
REMARK VINA RESULT:      -7.0      1.693      4.762
REMARK  Name = 
REMARK  6 active torsions:
REMARK  status: ('A' for Active; 'I' for Inactive)
REMARK    1  A    between atoms: C_1  and  C_2
REMARK    2  A    between atoms: N_6  and  C_7
REMARK    3  A    between atoms: N_13  and  C_14
REMARK    4  A    between atoms: C_14  and  C_15
REMARK    5  A    between atoms: C_15  and  C_16
REMARK    6  A    between atoms: C_16  and  C_17
REMARK                            x       y       z     vdW  Elec       q    Type
REMARK                         _______ _______ _______ _____ _____    ______ ____
ROOT
ATOM      1  C   UNL     1       7.717   4.681  16.748  0.00  0.00    +0.000 C 
ATOM      2  C   UNL     1       6.564   5.321  17.495  0.00  0.00    +0.000 C 
ATOM      3  C   UNL     1       6.866   6.815  17.710  0.00  0.00    +0.000 C 
ATOM      4  N   UNL     1       5.546   7.470  17.819  0.00  0.00    +0.000 NA
ATOM      5  C   UNL     1       4.711   6.617  17.262  0.00  0.00    +0.000 C 
ATOM      6  N   UNL     1       3.366   6.840  17.163  0.00  0.00    +0.000 N 
ATOM      7  N   UNL     1       5.271   5.447  16.810  0.00  0.00    +0.000 N 
ATOM      8  H   UNL     1       2.809   6.034  16.912  0.00  0.00    +0.000 HD
ENDROOT
BRANCH   6   9
ATOM      9  C   UNL     1       2.657   7.586  18.132  0.00  0.00    +0.000 A 
ATOM     10  C   UNL     1       2.006   8.777  17.773  0.00  0.00    +0.000 A 
ATOM     11  C   UNL     1       1.281   9.503  18.724  0.00  0.00    +0.000 A 
ATOM     12  C   UNL     1       1.169   9.035  20.035  0.00  0.00    +0.000 A 
ATOM     13  C   UNL     1       1.770   7.830  20.386  0.00  0.00    +0.000 A 
ATOM     14  C   UNL     1       2.495   7.106  19.443  0.00  0.00    +0.000 A 
ENDBRANCH   6   9
BRANCH   7  15
ATOM     15  C   UNL     1       4.577   4.311  16.217  0.00  0.00    +0.000 C 
BRANCH  15  16
ATOM     16  C   UNL     1       4.086   3.323  17.297  0.00  0.00    +0.000 C 
BRANCH  16  17
ATOM     17  C   UNL     1       2.571   3.264  17.515  0.00  0.00    +0.000 C 
BRANCH  17  18
ATOM     18  C   UNL     1       2.174   2.309  18.678  0.00  0.00    +0.000 C 
ATOM     19  C   UNL     1       3.164   2.259  19.861  0.00  0.00    +0.000 C 
ATOM     20  C   UNL     1       3.214   3.573  20.636  0.00  0.00    +0.000 C 
ATOM     21  C   UNL     1       1.830   3.962  21.148  0.00  0.00    +0.000 C 
ATOM     22  C   UNL     1       0.776   3.957  20.041  0.00  0.00    +0.000 C 
ATOM     23  C   UNL     1       0.783   2.657  19.234  0.00  0.00    +0.000 C 
ENDBRANCH  17  18
ENDBRANCH  16  17
ENDBRANCH  15  16
ENDBRANCH   7  15
TORSDOF 5
ENDMDL
MODEL 4
REMARK VINA RESULT:      -6.9      0.835      1.357
REMARK  Name = 
REMARK  6 active torsions:
REMARK  status: ('A' for Active; 'I' for Inactive)
REMARK    1  A    between atoms: C_1  and  C_2
REMARK    2  A    between atoms: N_6  and  C_7
REMARK    3  A    between atoms: N_13  and  C_14
REMARK    4  A    between atoms: C_14  and  C_15
REMARK    5  A    between atoms: C_15  and  C_16
REMARK    6  A    between atoms: C_16  and  C_17
REMARK                            x       y       z     vdW  Elec       q    Type
REMARK                         _______ _______ _______ _____ _____    ______ ____
ROOT
ATOM      1  C   UNL     1       2.214   1.839  19.098  0.00  0.00    +0.000 C 
ATOM      2  C   UNL     1       1.829   3.304  19.057  0.00  0.00    +0.000 C 
ATOM      3  C   UNL     1       0.772   3.582  20.140  0.00  0.00    +0.000 C 
ATOM      4  N   UNL     1       0.924   5.012  20.480  0.00  0.00    +0.000 NA
ATOM      5  C   UNL     1       2.136   5.319  20.065  0.00  0.00    +0.000 C 
ATOM      6  N   UNL     1       2.676   6.570  20.184  0.00  0.00    +0.000 N 
ATOM      7  N   UNL     1       2.831   4.302  19.456  0.00  0.00    +0.000 N 
ATOM      8  H   UNL     1       3.516   6.733  19.647  0.00  0.00    +0.000 HD
ENDROOT
BRANCH   6   9
ATOM      9  C   UNL     1       1.880   7.737  20.132  0.00  0.00    +0.000 A 
ATOM     10  C   UNL     1       1.266   8.228  21.294  0.00  0.00    +0.000 A 
ATOM     11  C   UNL     1       0.500   9.398  21.250  0.00  0.00    +0.000 A 
ATOM     12  C   UNL     1       0.365  10.110  20.056  0.00  0.00    +0.000 A 
ATOM     13  C   UNL     1       1.012   9.656  18.911  0.00  0.00    +0.000 A 
ATOM     14  C   UNL     1       1.772   8.490  18.950  0.00  0.00    +0.000 A 
ENDBRANCH   6   9
BRANCH   7  15
ATOM     15  C   UNL     1       4.153   4.380  18.850  0.00  0.00    +0.000 C 
BRANCH  15  16
ATOM     16  C   UNL     1       4.086   4.957  17.420  0.00  0.00    +0.000 C 
BRANCH  16  17
ATOM     17  C   UNL     1       4.444   6.440  17.276  0.00  0.00    +0.000 C 
BRANCH  17  18
ATOM     18  C   UNL     1       5.760   6.659  16.476  0.00  0.00    +0.000 C 
ATOM     19  C   UNL     1       7.005   6.990  17.326  0.00  0.00    +0.000 C 
ATOM     20  C   UNL     1       7.446   5.817  18.196  0.00  0.00    +0.000 C 
ATOM     21  C   UNL     1       7.724   4.577  17.350  0.00  0.00    +0.000 C 
ATOM     22  C   UNL     1       6.560   4.233  16.421  0.00  0.00    +0.000 C 
ATOM     23  C   UNL     1       6.090   5.437  15.602  0.00  0.00    +0.000 C 
ENDBRANCH  17  18
ENDBRANCH  16  17
ENDBRANCH  15  16
ENDBRANCH   7  15
TORSDOF 5
ENDMDL
MODEL 5
REMARK VINA RESULT:      -6.9      1.514      4.785
REMARK  Name = 
REMARK  6 active torsions:
REMARK  status: ('A' for Active; 'I' for Inactive)
REMARK    1  A    between atoms: C_1  and  C_2
REMARK    2  A    between atoms: N_6  and  C_7
REMARK    3  A    between atoms: N_13  and  C_14
REMARK    4  A    between atoms: C_14  and  C_15
REMARK    5  A    between atoms: C_15  and  C_16
REMARK    6  A    between atoms: C_16  and  C_17
REMARK                            x       y       z     vdW  Elec       q    Type
REMARK                         _______ _______ _______ _____ _____    ______ ____
ROOT
ATOM      1  C   UNL     1       7.407   4.753  16.420  0.00  0.00    +0.000 C 
ATOM      2  C   UNL     1       6.363   5.441  17.275  0.00  0.00    +0.000 C 
ATOM      3  C   UNL     1       6.385   6.952  16.986  0.00  0.00    +0.000 C 
ATOM      4  N   UNL     1       5.023   7.431  17.302  0.00  0.00    +0.000 NA
ATOM      5  C   UNL     1       4.278   6.346  17.267  0.00  0.00    +0.000 C 
ATOM      6  N   UNL     1       2.933   6.350  17.515  0.00  0.00    +0.000 N 
ATOM      7  N   UNL     1       4.945   5.176  16.998  0.00  0.00    +0.000 N 
ATOM      8  H   UNL     1       2.516   5.441  17.664  0.00  0.00    +0.000 HD
ENDROOT
BRANCH   6   9
ATOM      9  C   UNL     1       2.341   7.265  18.415  0.00  0.00    +0.000 A 
ATOM     10  C   UNL     1       2.172   6.922  19.766  0.00  0.00    +0.000 A 
ATOM     11  C   UNL     1       1.611   7.836  20.664  0.00  0.00    +0.000 A 
ATOM     12  C   UNL     1       1.241   9.113  20.234  0.00  0.00    +0.000 A 
ATOM     13  C   UNL     1       1.451   9.477  18.908  0.00  0.00    +0.000 A 
ATOM     14  C   UNL     1       2.007   8.569  18.010  0.00  0.00    +0.000 A 
ENDBRANCH   6   9
BRANCH   7  15
ATOM     15  C   UNL     1       4.386   3.831  16.962  0.00  0.00    +0.000 C 
BRANCH  15  16
ATOM     16  C   UNL     1       4.857   2.991  18.168  0.00  0.00    +0.000 C 
BRANCH  16  17
ATOM     17  C   UNL     1       4.269   3.377  19.528  0.00  0.00    +0.000 C 
BRANCH  17  18
ATOM     18  C   UNL     1       3.333   2.276  20.105  0.00  0.00    +0.000 C 
ATOM     19  C   UNL     1       2.675   2.610  21.461  0.00  0.00    +0.000 C 
ATOM     20  C   UNL     1       1.667   3.751  21.356  0.00  0.00    +0.000 C 
ATOM     21  C   UNL     1       0.583   3.435  20.329  0.00  0.00    +0.000 C 
ATOM     22  C   UNL     1       1.163   3.018  18.978  0.00  0.00    +0.000 C 
ATOM     23  C   UNL     1       2.217   1.917  19.108  0.00  0.00    +0.000 C 
ENDBRANCH  17  18
ENDBRANCH  16  17
ENDBRANCH  15  16
ENDBRANCH   7  15
TORSDOF 5
ENDMDL
MODEL 6
REMARK VINA RESULT:      -6.9      1.189      2.214
REMARK  Name = 
REMARK  6 active torsions:
REMARK  status: ('A' for Active; 'I' for Inactive)
REMARK    1  A    between atoms: C_1  and  C_2
REMARK    2  A    between atoms: N_6  and  C_7
REMARK    3  A    between atoms: N_13  and  C_14
REMARK    4  A    between atoms: C_14  and  C_15
REMARK    5  A    between atoms: C_15  and  C_16
REMARK    6  A    between atoms: C_16  and  C_17
REMARK                            x       y       z     vdW  Elec       q    Type
REMARK                         _______ _______ _______ _____ _____    ______ ____
ROOT
ATOM      1  C   UNL     1       3.151   1.738  18.016  0.00  0.00    +0.000 C 
ATOM      2  C   UNL     1       2.977   3.243  17.996  0.00  0.00    +0.000 C 
ATOM      3  C   UNL     1       1.484   3.580  17.843  0.00  0.00    +0.000 C 
ATOM      4  N   UNL     1       1.317   4.913  18.460  0.00  0.00    +0.000 NA
ATOM      5  C   UNL     1       2.369   5.044  19.241  0.00  0.00    +0.000 C 
ATOM      6  N   UNL     1       2.606   6.158  19.999  0.00  0.00    +0.000 N 
ATOM      7  N   UNL     1       3.256   3.996  19.226  0.00  0.00    +0.000 N 
ATOM      8  H   UNL     1       3.536   6.229  20.387  0.00  0.00    +0.000 HD
ENDROOT
BRANCH   6   9
ATOM      9  C   UNL     1       2.196   7.446  19.586  0.00  0.00    +0.000 A 
ATOM     10  C   UNL     1       2.503   7.908  18.296  0.00  0.00    +0.000 A 
ATOM     11  C   UNL     1       2.075   9.172  17.876  0.00  0.00    +0.000 A 
ATOM     12  C   UNL     1       1.310   9.977  18.723  0.00  0.00    +0.000 A 
ATOM     13  C   UNL     1       0.960   9.505  19.984  0.00  0.00    +0.000 A 
ATOM     14  C   UNL     1       1.386   8.249  20.408  0.00  0.00    +0.000 A 
ENDBRANCH   6   9
BRANCH   7  15
ATOM     15  C   UNL     1       4.524   3.905  19.937  0.00  0.00    +0.000 C 
BRANCH  15  16
ATOM     16  C   UNL     1       5.721   4.112  18.986  0.00  0.00    +0.000 C 
BRANCH  16  17
ATOM     17  C   UNL     1       6.432   5.466  19.082  0.00  0.00    +0.000 C 
BRANCH  17  18
ATOM     18  C   UNL     1       7.235   5.809  17.795  0.00  0.00    +0.000 C 
ATOM     19  C   UNL     1       7.375   4.659  16.775  0.00  0.00    +0.000 C 
ATOM     20  C   UNL     1       6.043   4.282  16.133  0.00  0.00    +0.000 C 
ATOM     21  C   UNL     1       5.398   5.487  15.454  0.00  0.00    +0.000 C 
ATOM     22  C   UNL     1       5.297   6.696  16.384  0.00  0.00    +0.000 C 
ATOM     23  C   UNL     1       6.627   7.021  17.067  0.00  0.00    +0.000 C 
ENDBRANCH  17  18
ENDBRANCH  16  17
ENDBRANCH  15  16
ENDBRANCH   7  15
TORSDOF 5
ENDMDL
MODEL 7
REMARK VINA RESULT:      -6.9      2.891      6.918
REMARK  Name = 
REMARK  6 active torsions:
REMARK  status: ('A' for Active; 'I' for Inactive)
REMARK    1  A    between atoms: C_1  and  C_2
REMARK    2  A    between atoms: N_6  and  C_7
REMARK    3  A    between atoms: N_13  and  C_14
REMARK    4  A    between atoms: C_14  and  C_15
REMARK    5  A    between atoms: C_15  and  C_16
REMARK    6  A    between atoms: C_16  and  C_17
REMARK                            x       y       z     vdW  Elec       q    Type
REMARK                         _______ _______ _______ _____ _____    ______ ____
ROOT
ATOM      1  C   UNL     1       7.472   5.972  19.725  0.00  0.00    +0.000 C 
ATOM      2  C   UNL     1       7.495   5.797  18.221  0.00  0.00    +0.000 C 
ATOM      3  C   UNL     1       8.056   4.405  17.879  0.00  0.00    +0.000 C 
ATOM      4  N   UNL     1       7.473   4.058  16.567  0.00  0.00    +0.000 NA
ATOM      5  C   UNL     1       6.421   4.843  16.459  0.00  0.00    +0.000 C 
ATOM      6  N   UNL     1       5.594   4.845  15.370  0.00  0.00    +0.000 N 
ATOM      7  N   UNL     1       6.215   5.708  17.506  0.00  0.00    +0.000 N 
ATOM      8  H   UNL     1       4.956   5.626  15.310  0.00  0.00    +0.000 HD
ENDROOT
BRANCH   6   9
ATOM      9  C   UNL     1       6.068   4.557  14.069  0.00  0.00    +0.000 A 
ATOM     10  C   UNL     1       7.205   5.211  13.569  0.00  0.00    +0.000 A 
ATOM     11  C   UNL     1       7.692   4.908  12.292  0.00  0.00    +0.000 A 
ATOM     12  C   UNL     1       7.071   3.928  11.514  0.00  0.00    +0.000 A 
ATOM     13  C   UNL     1       5.974   3.241  12.023  0.00  0.00    +0.000 A 
ATOM     14  C   UNL     1       5.485   3.542  13.292  0.00  0.00    +0.000 A 
ENDBRANCH   6   9
BRANCH   7  15
ATOM     15  C   UNL     1       5.176   6.723  17.619  0.00  0.00    +0.000 C 
BRANCH  15  16
ATOM     16  C   UNL     1       3.766   6.095  17.573  0.00  0.00    +0.000 C 
BRANCH  16  17
ATOM     17  C   UNL     1       3.036   5.983  18.915  0.00  0.00    +0.000 C 
BRANCH  17  18
ATOM     18  C   UNL     1       3.348   4.650  19.653  0.00  0.00    +0.000 C 
ATOM     19  C   UNL     1       2.444   4.335  20.863  0.00  0.00    +0.000 C 
ATOM     20  C   UNL     1       1.001   4.051  20.456  0.00  0.00    +0.000 C 
ATOM     21  C   UNL     1       0.928   2.901  19.455  0.00  0.00    +0.000 C 
ATOM     22  C   UNL     1       1.860   3.107  18.262  0.00  0.00    +0.000 C 
ATOM     23  C   UNL     1       3.288   3.453  18.688  0.00  0.00    +0.000 C 
ENDBRANCH  17  18
ENDBRANCH  16  17
ENDBRANCH  15  16
ENDBRANCH   7  15
TORSDOF 5
ENDMDL
MODEL 8
REMARK VINA RESULT:      -6.8      2.955      6.883
REMARK  Name = 
REMARK  6 active torsions:
REMARK  status: ('A' for Active; 'I' for Inactive)
REMARK    1  A    between atoms: C_1  and  C_2
REMARK    2  A    between atoms: N_6  and  C_7
REMARK    3  A    between atoms: N_13  and  C_14
REMARK    4  A    between atoms: C_14  and  C_15
REMARK    5  A    between atoms: C_15  and  C_16
REMARK    6  A    between atoms: C_16  and  C_17
REMARK                            x       y       z     vdW  Elec       q    Type
REMARK                         _______ _______ _______ _____ _____    ______ ____
ROOT
ATOM      1  C   UNL     1       7.285   5.877  19.844  0.00  0.00    +0.000 C 
ATOM      2  C   UNL     1       7.317   5.737  18.335  0.00  0.00    +0.000 C 
ATOM      3  C   UNL     1       8.144   4.496  17.957  0.00  0.00    +0.000 C 
ATOM      4  N   UNL     1       7.620   4.060  16.646  0.00  0.00    +0.000 NA
ATOM      5  C   UNL     1       6.429   4.615  16.569  0.00  0.00    +0.000 C 
ATOM      6  N   UNL     1       5.599   4.466  15.492  0.00  0.00    +0.000 N 
ATOM      7  N   UNL     1       6.069   5.401  17.637  0.00  0.00    +0.000 N 
ATOM      8  H   UNL     1       4.814   5.101  15.458  0.00  0.00    +0.000 HD
ENDROOT
BRANCH   6   9
ATOM      9  C   UNL     1       6.099   4.305  14.179  0.00  0.00    +0.000 A 
ATOM     10  C   UNL     1       5.468   3.427  13.284  0.00  0.00    +0.000 A 
ATOM     11  C   UNL     1       5.944   3.286  11.976  0.00  0.00    +0.000 A 
ATOM     12  C   UNL     1       7.034   4.041  11.535  0.00  0.00    +0.000 A 
ATOM     13  C   UNL     1       7.633   4.950  12.403  0.00  0.00    +0.000 A 
ATOM     14  C   UNL     1       7.164   5.091  13.706  0.00  0.00    +0.000 A 
ENDBRANCH   6   9
BRANCH   7  15
ATOM     15  C   UNL     1       4.846   6.179  17.785  0.00  0.00    +0.000 C 
BRANCH  15  16
ATOM     16  C   UNL     1       3.803   5.434  18.644  0.00  0.00    +0.000 C 
BRANCH  16  17
ATOM     17  C   UNL     1       2.573   4.905  17.900  0.00  0.00    +0.000 C 
BRANCH  17  18
ATOM     18  C   UNL     1       2.455   3.355  17.970  0.00  0.00    +0.000 C 
ATOM     19  C   UNL     1       3.493   2.653  18.871  0.00  0.00    +0.000 C 
ATOM     20  C   UNL     1       3.296   2.975  20.350  0.00  0.00    +0.000 C 
ATOM     21  C   UNL     1       1.890   2.605  20.812  0.00  0.00    +0.000 C 
ATOM     22  C   UNL     1       0.806   3.204  19.916  0.00  0.00    +0.000 C 
ATOM     23  C   UNL     1       1.053   2.924  18.432  0.00  0.00    +0.000 C 
ENDBRANCH  17  18
ENDBRANCH  16  17
ENDBRANCH  15  16
ENDBRANCH   7  15
TORSDOF 5
ENDMDL
MODEL 9
REMARK VINA RESULT:      -6.8      2.658      6.577
REMARK  Name = 
REMARK  6 active torsions:
REMARK  status: ('A' for Active; 'I' for Inactive)
REMARK    1  A    between atoms: C_1  and  C_2
REMARK    2  A    between atoms: N_6  and  C_7
REMARK    3  A    between atoms: N_13  and  C_14
REMARK    4  A    between atoms: C_14  and  C_15
REMARK    5  A    between atoms: C_15  and  C_16
REMARK    6  A    between atoms: C_16  and  C_17
REMARK                            x       y       z     vdW  Elec       q    Type
REMARK                         _______ _______ _______ _____ _____    ______ ____
ROOT
ATOM      1  C   UNL     1       3.211   6.992  19.022  0.00  0.00    +0.000 C 
ATOM      2  C   UNL     1       3.721   6.343  17.752  0.00  0.00    +0.000 C 
ATOM      3  C   UNL     1       3.935   7.425  16.680  0.00  0.00    +0.000 C 
ATOM      4  N   UNL     1       4.979   6.886  15.782  0.00  0.00    +0.000 NA
ATOM      5  C   UNL     1       5.576   5.956  16.497  0.00  0.00    +0.000 C 
ATOM      6  N   UNL     1       6.611   5.196  16.026  0.00  0.00    +0.000 N 
ATOM      7  N   UNL     1       5.068   5.757  17.757  0.00  0.00    +0.000 N 
ATOM      8  H   UNL     1       6.843   4.385  16.582  0.00  0.00    +0.000 HD
ENDROOT
BRANCH   6   9
ATOM      9  C   UNL     1       6.723   4.846  14.661  0.00  0.00    +0.000 A 
ATOM     10  C   UNL     1       7.727   5.417  13.863  0.00  0.00    +0.000 A 
ATOM     11  C   UNL     1       7.856   5.051  12.518  0.00  0.00    +0.000 A 
ATOM     12  C   UNL     1       7.007   4.091  11.962  0.00  0.00    +0.000 A 
ATOM     13  C   UNL     1       6.042   3.485  12.761  0.00  0.00    +0.000 A 
ATOM     14  C   UNL     1       5.908   3.848  14.098  0.00  0.00    +0.000 A 
ENDBRANCH   6   9
BRANCH   7  15
ATOM     15  C   UNL     1       5.490   4.758  18.730  0.00  0.00    +0.000 C 
BRANCH  15  16
ATOM     16  C   UNL     1       5.137   3.330  18.262  0.00  0.00    +0.000 C 
BRANCH  16  17
ATOM     17  C   UNL     1       3.652   3.054  18.006  0.00  0.00    +0.000 C 
BRANCH  17  18
ATOM     18  C   UNL     1       3.023   2.132  19.089  0.00  0.00    +0.000 C 
ATOM     19  C   UNL     1       3.223   2.592  20.548  0.00  0.00    +0.000 C 
ATOM     20  C   UNL     1       2.469   3.880  20.864  0.00  0.00    +0.000 C 
ATOM     21  C   UNL     1       0.977   3.729  20.579  0.00  0.00    +0.000 C 
ATOM     22  C   UNL     1       0.702   3.200  19.172  0.00  0.00    +0.000 C 
ATOM     23  C   UNL     1       1.514   1.943  18.851  0.00  0.00    +0.000 C 
ENDBRANCH  17  18
ENDBRANCH  16  17
ENDBRANCH  15  16
ENDBRANCH   7  15
TORSDOF 5
ENDMDL
