MODEL 1
REMARK VINA RESULT:      -7.0      0.000      0.000
REMARK  Name = 
REMARK  7 active torsions:
REMARK  status: ('A' for Active; 'I' for Inactive)
REMARK    1  A    between atoms: C_1  and  C_2
REMARK    2  A    between atoms: C_2  and  O_3
REMARK    3  A    between atoms: O_3  and  C_4
REMARK    4  A    between atoms: C_4  and  C_5
REMARK    5  A    between atoms: C_5  and  C_6
REMARK    6  A    between atoms: C_5  and  O_7
REMARK    7  A    between atoms: O_7  and  C_8
REMARK                            x       y       z     vdW  Elec       q    Type
REMARK                         _______ _______ _______ _____ _____    ______ ____
ROOT
ATOM      1  C   UNL     1       4.041   5.171  17.139  0.00  0.00    +0.000 A 
ATOM      2  C   UNL     1       4.178   6.568  17.100  0.00  0.00    +0.000 A 
ATOM      3  C   UNL     1       3.407   7.386  17.916  0.00  0.00    +0.000 A 
ATOM      4  C   UNL     1       2.489   6.814  18.782  0.00  0.00    +0.000 A 
ATOM      5  C   UNL     1       2.334   5.423  18.832  0.00  0.00    +0.000 A 
ATOM      6  C   UNL     1       1.395   4.868  19.707  0.00  0.00    +0.000 A 
ATOM      7  C   UNL     1       1.237   3.496  19.760  0.00  0.00    +0.000 A 
ATOM      8  C   UNL     1       2.024   2.711  18.935  0.00  0.00    +0.000 A 
ATOM      9  N   UNL     1       1.910   1.321  18.983  0.00  0.00    +0.000 N 
ATOM     10  N   UNL     1       2.936   3.218  18.084  0.00  0.00    +0.000 NA
ATOM     11  C   UNL     1       3.104   4.565  18.009  0.00  0.00    +0.000 A 
ATOM     12  H   UNL     1       0.957   1.022  18.813  0.00  0.00    +0.000 HD
ATOM     13  H   UNL     1       2.547   0.957  18.280  0.00  0.00    +0.000 HD
ENDROOT
BRANCH   1  14
ATOM     14  O   UNL     1       4.753   4.341  16.290  0.00  0.00    +0.000 OA
BRANCH  14  15
ATOM     15  C   UNL     1       5.715   4.948  15.409  0.00  0.00    +0.000 C 
ATOM     16  C   UNL     1       5.799   4.199  14.071  0.00  0.00    +0.000 C 
BRANCH  15  17
ATOM     17  C   UNL     1       7.099   4.894  16.085  0.00  0.00    +0.000 C 
BRANCH  17  18
ATOM     18  O   UNL     1       7.562   6.236  16.272  0.00  0.00    +0.000 OA
BRANCH  18  20
ATOM     19  C   UNL     1       7.862   8.135  17.661  0.00  0.00    +0.000 C 
ATOM     20  C   UNL     1       7.543   6.651  17.631  0.00  0.00    +0.000 C 
ENDBRANCH  18  20
ENDBRANCH  17  18
ENDBRANCH  15  17
ENDBRANCH  14  15
ENDBRANCH   1  14
TORSDOF 5
ENDMDL
MODEL 2
REMARK VINA RESULT:      -6.7      2.682      5.211
REMARK  Name = 
REMARK  7 active torsions:
REMARK  status: ('A' for Active; 'I' for Inactive)
REMARK    1  A    between atoms: C_1  and  C_2
REMARK    2  A    between atoms: C_2  and  O_3
REMARK    3  A    between atoms: O_3  and  C_4
REMARK    4  A    between atoms: C_4  and  C_5
REMARK    5  A    between atoms: C_5  and  C_6
REMARK    6  A    between atoms: C_5  and  O_7
REMARK    7  A    between atoms: O_7  and  C_8
REMARK                            x       y       z     vdW  Elec       q    Type
REMARK                         _______ _______ _______ _____ _____    ______ ____
ROOT
ATOM      1  C   UNL     1       3.553   5.548  19.476  0.00  0.00    +0.000 A 
ATOM      2  C   UNL     1       2.438   6.389  19.335  0.00  0.00    +0.000 A 
ATOM      3  C   UNL     1       2.398   7.364  18.346  0.00  0.00    +0.000 A 
ATOM      4  C   UNL     1       3.475   7.508  17.486  0.00  0.00    +0.000 A 
ATOM      5  C   UNL     1       4.598   6.682  17.614  0.00  0.00    +0.000 A 
ATOM      6  C   UNL     1       5.677   6.850  16.741  0.00  0.00    +0.000 A 
ATOM      7  C   UNL     1       6.789   6.039  16.863  0.00  0.00    +0.000 A 
ATOM      8  C   UNL     1       6.794   5.075  17.857  0.00  0.00    +0.000 A 
ATOM      9  N   UNL     1       7.889   4.221  17.990  0.00  0.00    +0.000 N 
ATOM     10  N   UNL     1       5.770   4.890  18.711  0.00  0.00    +0.000 NA
ATOM     11  C   UNL     1       4.668   5.681  18.615  0.00  0.00    +0.000 A 
ATOM     12  H   UNL     1       8.751   4.739  18.111  0.00  0.00    +0.000 HD
ATOM     13  H   UNL     1       7.694   3.628  18.792  0.00  0.00    +0.000 HD
ENDROOT
BRANCH   1  14
ATOM     14  O   UNL     1       3.642   4.612  20.493  0.00  0.00    +0.000 OA
BRANCH  14  15
ATOM     15  C   UNL     1       2.871   3.404  20.363  0.00  0.00    +0.000 C 
ATOM     16  C   UNL     1       2.122   3.077  21.663  0.00  0.00    +0.000 C 
BRANCH  15  17
ATOM     17  C   UNL     1       3.834   2.242  20.050  0.00  0.00    +0.000 C 
BRANCH  17  18
ATOM     18  O   UNL     1       3.762   1.963  18.647  0.00  0.00    +0.000 OA
BRANCH  18  20
ATOM     19  C   UNL     1       2.668   3.187  16.936  0.00  0.00    +0.000 C 
ATOM     20  C   UNL     1       2.480   2.220  18.090  0.00  0.00    +0.000 C 
ENDBRANCH  18  20
ENDBRANCH  17  18
ENDBRANCH  15  17
ENDBRANCH  14  15
ENDBRANCH   1  14
TORSDOF 5
ENDMDL
MODEL 3
REMARK VINA RESULT:      -6.6      1.755      3.033
REMARK  Name = 
REMARK  7 active torsions:
REMARK  status: ('A' for Active; 'I' for Inactive)
REMARK    1  A    between atoms: C_1  and  C_2
REMARK    2  A    between atoms: C_2  and  O_3
REMARK    3  A    between atoms: O_3  and  C_4
REMARK    4  A    between atoms: C_4  and  C_5
REMARK    5  A    between atoms: C_5  and  C_6
REMARK    6  A    between atoms: C_5  and  O_7
REMARK    7  A    between atoms: O_7  and  C_8
REMARK                            x       y       z     vdW  Elec       q    Type
REMARK                         _______ _______ _______ _____ _____    ______ ____
ROOT
ATOM      1  C   UNL     1       4.029   3.750  18.125  0.00  0.00    +0.000 A 
ATOM      2  C   UNL     1       3.966   2.386  17.800  0.00  0.00    +0.000 A 
ATOM      3  C   UNL     1       2.957   1.575  18.306  0.00  0.00    +0.000 A 
ATOM      4  C   UNL     1       1.999   2.122  19.144  0.00  0.00    +0.000 A 
ATOM      5  C   UNL     1       2.048   3.480  19.484  0.00  0.00    +0.000 A 
ATOM      6  C   UNL     1       1.076   4.009  20.339  0.00  0.00    +0.000 A 
ATOM      7  C   UNL     1       1.120   5.348  20.679  0.00  0.00    +0.000 A 
ATOM      8  C   UNL     1       2.137   6.127  20.153  0.00  0.00    +0.000 A 
ATOM      9  N   UNL     1       2.194   7.489  20.454  0.00  0.00    +0.000 N 
ATOM     10  N   UNL     1       3.085   5.645  19.328  0.00  0.00    +0.000 NA
ATOM     11  C   UNL     1       3.067   4.330  18.985  0.00  0.00    +0.000 A 
ATOM     12  H   UNL     1       2.222   7.646  21.455  0.00  0.00    +0.000 HD
ATOM     13  H   UNL     1       3.027   7.848  19.996  0.00  0.00    +0.000 HD
ENDROOT
BRANCH   1  14
ATOM     14  O   UNL     1       5.060   4.562  17.683  0.00  0.00    +0.000 OA
BRANCH  14  15
ATOM     15  C   UNL     1       4.931   5.162  16.381  0.00  0.00    +0.000 C 
ATOM     16  C   UNL     1       5.769   4.411  15.335  0.00  0.00    +0.000 C 
BRANCH  15  17
ATOM     17  C   UNL     1       5.440   6.615  16.461  0.00  0.00    +0.000 C 
BRANCH  17  18
ATOM     18  O   UNL     1       6.871   6.591  16.465  0.00  0.00    +0.000 OA
BRANCH  18  20
ATOM     19  C   UNL     1       7.827   6.397  18.627  0.00  0.00    +0.000 C 
ATOM     20  C   UNL     1       7.441   7.358  17.518  0.00  0.00    +0.000 C 
ENDBRANCH  18  20
ENDBRANCH  17  18
ENDBRANCH  15  17
ENDBRANCH  14  15
ENDBRANCH   1  14
TORSDOF 5
ENDMDL
MODEL 4
REMARK VINA RESULT:      -6.6      1.246      2.522
REMARK  Name = 
REMARK  7 active torsions:
REMARK  status: ('A' for Active; 'I' for Inactive)
REMARK    1  A    between atoms: C_1  and  C_2
REMARK    2  A    between atoms: C_2  and  O_3
REMARK    3  A    between atoms: O_3  and  C_4
REMARK    4  A    between atoms: C_4  and  C_5
REMARK    5  A    between atoms: C_5  and  C_6
REMARK    6  A    between atoms: C_5  and  O_7
REMARK    7  A    between atoms: O_7  and  C_8
REMARK                            x       y       z     vdW  Elec       q    Type
REMARK                         _______ _______ _______ _____ _____    ______ ____
ROOT
ATOM      1  C   UNL     1       4.029   5.622  17.914  0.00  0.00    +0.000 A 
ATOM      2  C   UNL     1       3.498   6.866  18.291  0.00  0.00    +0.000 A 
ATOM      3  C   UNL     1       2.434   6.951  19.180  0.00  0.00    +0.000 A 
ATOM      4  C   UNL     1       1.887   5.789  19.702  0.00  0.00    +0.000 A 
ATOM      5  C   UNL     1       2.399   4.538  19.334  0.00  0.00    +0.000 A 
ATOM      6  C   UNL     1       1.827   3.379  19.867  0.00  0.00    +0.000 A 
ATOM      7  C   UNL     1       2.327   2.142  19.506  0.00  0.00    +0.000 A 
ATOM      8  C   UNL     1       3.391   2.095  18.621  0.00  0.00    +0.000 A 
ATOM      9  N   UNL     1       3.938   0.863  18.259  0.00  0.00    +0.000 N 
ATOM     10  N   UNL     1       3.962   3.194  18.094  0.00  0.00    +0.000 NA
ATOM     11  C   UNL     1       3.482   4.422  18.428  0.00  0.00    +0.000 A 
ATOM     12  H   UNL     1       3.235   0.246  17.870  0.00  0.00    +0.000 HD
ATOM     13  H   UNL     1       4.672   1.064  17.585  0.00  0.00    +0.000 HD
ENDROOT
BRANCH   1  14
ATOM     14  O   UNL     1       5.047   5.511  16.982  0.00  0.00    +0.000 OA
BRANCH  14  15
ATOM     15  C   UNL     1       6.403   5.516  17.466  0.00  0.00    +0.000 C 
ATOM     16  C   UNL     1       7.050   6.899  17.299  0.00  0.00    +0.000 C 
BRANCH  15  17
ATOM     17  C   UNL     1       7.217   4.495  16.647  0.00  0.00    +0.000 C 
BRANCH  17  18
ATOM     18  O   UNL     1       6.402   4.034  15.564  0.00  0.00    +0.000 OA
BRANCH  18  20
ATOM     19  C   UNL     1       6.110   3.725  13.231  0.00  0.00    +0.000 C 
ATOM     20  C   UNL     1       6.807   4.544  14.301  0.00  0.00    +0.000 C 
ENDBRANCH  18  20
ENDBRANCH  17  18
ENDBRANCH  15  17
ENDBRANCH  14  15
ENDBRANCH   1  14
TORSDOF 5
ENDMDL
MODEL 5
REMARK VINA RESULT:      -6.6      2.043      3.495
REMARK  Name = 
REMARK  7 active torsions:
REMARK  status: ('A' for Active; 'I' for Inactive)
REMARK    1  A    between atoms: C_1  and  C_2
REMARK    2  A    between atoms: C_2  and  O_3
REMARK    3  A    between atoms: O_3  and  C_4
REMARK    4  A    between atoms: C_4  and  C_5
REMARK    5  A    between atoms: C_5  and  C_6
REMARK    6  A    between atoms: C_5  and  O_7
REMARK    7  A    between atoms: O_7  and  C_8
REMARK                            x       y       z     vdW  Elec       q    Type
REMARK                         _______ _______ _______ _____ _____    ______ ____
ROOT
ATOM      1  C   UNL     1       4.290   4.413  18.090  0.00  0.00    +0.000 A 
ATOM      2  C   UNL     1       4.457   3.179  17.441  0.00  0.00    +0.000 A 
ATOM      3  C   UNL     1       3.547   2.145  17.626  0.00  0.00    +0.000 A 
ATOM      4  C   UNL     1       2.460   2.334  18.463  0.00  0.00    +0.000 A 
ATOM      5  C   UNL     1       2.279   3.556  19.124  0.00  0.00    +0.000 A 
ATOM      6  C   UNL     1       1.179   3.723  19.970  0.00  0.00    +0.000 A 
ATOM      7  C   UNL     1       0.996   4.925  20.626  0.00  0.00    +0.000 A 
ATOM      8  C   UNL     1       1.920   5.936  20.416  0.00  0.00    +0.000 A 
ATOM      9  N   UNL     1       1.750   7.172  21.040  0.00  0.00    +0.000 N 
ATOM     10  N   UNL     1       2.987   5.804  19.606  0.00  0.00    +0.000 NA
ATOM     11  C   UNL     1       3.192   4.627  18.956  0.00  0.00    +0.000 A 
ATOM     12  H   UNL     1       1.681   7.073  22.046  0.00  0.00    +0.000 HD
ATOM     13  H   UNL     1       2.551   7.739  20.775  0.00  0.00    +0.000 HD
ENDROOT
BRANCH   1  14
ATOM     14  O   UNL     1       5.217   5.435  17.971  0.00  0.00    +0.000 OA
BRANCH  14  15
ATOM     15  C   UNL     1       6.587   5.072  17.723  0.00  0.00    +0.000 C 
ATOM     16  C   UNL     1       7.508   5.561  18.851  0.00  0.00    +0.000 C 
BRANCH  15  17
ATOM     17  C   UNL     1       7.036   5.735  16.405  0.00  0.00    +0.000 C 
BRANCH  17  18
ATOM     18  O   UNL     1       7.531   4.713  15.533  0.00  0.00    +0.000 OA
BRANCH  18  20
ATOM     19  C   UNL     1       5.697   4.140  14.143  0.00  0.00    +0.000 C 
ATOM     20  C   UNL     1       7.047   4.830  14.202  0.00  0.00    +0.000 C 
ENDBRANCH  18  20
ENDBRANCH  17  18
ENDBRANCH  15  17
ENDBRANCH  14  15
ENDBRANCH   1  14
TORSDOF 5
ENDMDL
MODEL 6
REMARK VINA RESULT:      -6.6      1.492      2.627
REMARK  Name = 
REMARK  7 active torsions:
REMARK  status: ('A' for Active; 'I' for Inactive)
REMARK    1  A    between atoms: C_1  and  C_2
REMARK    2  A    between atoms: C_2  and  O_3
REMARK    3  A    between atoms: O_3  and  C_4
REMARK    4  A    between atoms: C_4  and  C_5
REMARK    5  A    between atoms: C_5  and  C_6
REMARK    6  A    between atoms: C_5  and  O_7
REMARK    7  A    between atoms: O_7  and  C_8
REMARK                            x       y       z     vdW  Elec       q    Type
REMARK                         _______ _______ _______ _____ _____    ______ ____
ROOT
ATOM      1  C   UNL     1       4.970   5.275  18.711  0.00  0.00    +0.000 A 
ATOM      2  C   UNL     1       4.527   6.595  18.527  0.00  0.00    +0.000 A 
ATOM      3  C   UNL     1       3.230   6.863  18.109  0.00  0.00    +0.000 A 
ATOM      4  C   UNL     1       2.360   5.811  17.869  0.00  0.00    +0.000 A 
ATOM      5  C   UNL     1       2.785   4.488  18.042  0.00  0.00    +0.000 A 
ATOM      6  C   UNL     1       1.892   3.442  17.787  0.00  0.00    +0.000 A 
ATOM      7  C   UNL     1       2.306   2.134  17.954  0.00  0.00    +0.000 A 
ATOM      8  C   UNL     1       3.605   1.903  18.376  0.00  0.00    +0.000 A 
ATOM      9  N   UNL     1       4.046   0.596  18.582  0.00  0.00    +0.000 N 
ATOM     10  N   UNL     1       4.484   2.890  18.630  0.00  0.00    +0.000 NA
ATOM     11  C   UNL     1       4.103   4.185  18.465  0.00  0.00    +0.000 A 
ATOM     12  H   UNL     1       3.926   0.029  17.751  0.00  0.00    +0.000 HD
ATOM     13  H   UNL     1       5.023   0.663  18.851  0.00  0.00    +0.000 HD
ENDROOT
BRANCH   1  14
ATOM     14  O   UNL     1       6.276   4.983  19.066  0.00  0.00    +0.000 OA
BRANCH  14  15
ATOM     15  C   UNL     1       7.308   5.238  18.095  0.00  0.00    +0.000 C 
ATOM     16  C   UNL     1       7.535   6.745  17.904  0.00  0.00    +0.000 C 
BRANCH  15  17
ATOM     17  C   UNL     1       6.869   4.636  16.746  0.00  0.00    +0.000 C 
BRANCH  17  18
ATOM     18  O   UNL     1       7.425   5.433  15.695  0.00  0.00    +0.000 OA
BRANCH  18  20
ATOM     19  C   UNL     1       5.858   4.064  14.558  0.00  0.00    +0.000 C 
ATOM     20  C   UNL     1       7.047   4.993  14.397  0.00  0.00    +0.000 C 
ENDBRANCH  18  20
ENDBRANCH  17  18
ENDBRANCH  15  17
ENDBRANCH  14  15
ENDBRANCH   1  14
TORSDOF 5
ENDMDL
MODEL 7
REMARK VINA RESULT:      -6.5      1.766      2.173
REMARK  Name = 
REMARK  7 active torsions:
REMARK  status: ('A' for Active; 'I' for Inactive)
REMARK    1  A    between atoms: C_1  and  C_2
REMARK    2  A    between atoms: C_2  and  O_3
REMARK    3  A    between atoms: O_3  and  C_4
REMARK    4  A    between atoms: C_4  and  C_5
REMARK    5  A    between atoms: C_5  and  C_6
REMARK    6  A    between atoms: C_5  and  O_7
REMARK    7  A    between atoms: O_7  and  C_8
REMARK                            x       y       z     vdW  Elec       q    Type
REMARK                         _______ _______ _______ _____ _____    ______ ____
ROOT
ATOM      1  C   UNL     1       3.749   5.686  18.443  0.00  0.00    +0.000 A 
ATOM      2  C   UNL     1       2.961   6.840  18.577  0.00  0.00    +0.000 A 
ATOM      3  C   UNL     1       2.019   6.950  19.593  0.00  0.00    +0.000 A 
ATOM      4  C   UNL     1       1.855   5.904  20.486  0.00  0.00    +0.000 A 
ATOM      5  C   UNL     1       2.628   4.742  20.366  0.00  0.00    +0.000 A 
ATOM      6  C   UNL     1       2.440   3.695  21.274  0.00  0.00    +0.000 A 
ATOM      7  C   UNL     1       3.199   2.546  21.159  0.00  0.00    +0.000 A 
ATOM      8  C   UNL     1       4.131   2.472  20.138  0.00  0.00    +0.000 A 
ATOM      9  N   UNL     1       4.933   1.337  20.011  0.00  0.00    +0.000 N 
ATOM     10  N   UNL     1       4.334   3.464  19.251  0.00  0.00    +0.000 NA
ATOM     11  C   UNL     1       3.594   4.602  19.339  0.00  0.00    +0.000 A 
ATOM     12  H   UNL     1       4.375   0.496  19.929  0.00  0.00    +0.000 HD
ATOM     13  H   UNL     1       5.509   1.485  19.186  0.00  0.00    +0.000 HD
ENDROOT
BRANCH   1  14
ATOM     14  O   UNL     1       4.649   5.529  17.402  0.00  0.00    +0.000 OA
BRANCH  14  15
ATOM     15  C   UNL     1       5.220   6.717  16.824  0.00  0.00    +0.000 C 
ATOM     16  C   UNL     1       5.234   6.641  15.290  0.00  0.00    +0.000 C 
BRANCH  15  17
ATOM     17  C   UNL     1       6.674   6.850  17.319  0.00  0.00    +0.000 C 
BRANCH  17  18
ATOM     18  O   UNL     1       7.396   5.683  16.911  0.00  0.00    +0.000 OA
BRANCH  18  20
ATOM     19  C   UNL     1       7.772   5.691  19.253  0.00  0.00    +0.000 C 
ATOM     20  C   UNL     1       7.756   4.839  17.997  0.00  0.00    +0.000 C 
ENDBRANCH  18  20
ENDBRANCH  17  18
ENDBRANCH  15  17
ENDBRANCH  14  15
ENDBRANCH   1  14
TORSDOF 5
ENDMDL
MODEL 8
REMARK VINA RESULT:      -6.5      1.157      2.346
REMARK  Name = 
REMARK  7 active torsions:
REMARK  status: ('A' for Active; 'I' for Inactive)
REMARK    1  A    between atoms: C_1  and  C_2
REMARK    2  A    between atoms: C_2  and  O_3
REMARK    3  A    between atoms: O_3  and  C_4
REMARK    4  A    between atoms: C_4  and  C_5
REMARK    5  A    between atoms: C_5  and  C_6
REMARK    6  A    between atoms: C_5  and  O_7
REMARK    7  A    between atoms: O_7  and  C_8
REMARK                            x       y       z     vdW  Elec       q    Type
REMARK                         _______ _______ _______ _____ _____    ______ ____
ROOT
ATOM      1  C   UNL     1       3.294   5.971  18.292  0.00  0.00    +0.000 A 
ATOM      2  C   UNL     1       2.990   7.254  18.777  0.00  0.00    +0.000 A 
ATOM      3  C   UNL     1       2.120   7.428  19.846  0.00  0.00    +0.000 A 
ATOM      4  C   UNL     1       1.544   6.318  20.443  0.00  0.00    +0.000 A 
ATOM      5  C   UNL     1       1.830   5.031  19.971  0.00  0.00    +0.000 A 
ATOM      6  C   UNL     1       1.231   3.926  20.584  0.00  0.00    +0.000 A 
ATOM      7  C   UNL     1       1.508   2.654  20.121  0.00  0.00    +0.000 A 
ATOM      8  C   UNL     1       2.382   2.517  19.056  0.00  0.00    +0.000 A 
ATOM      9  N   UNL     1       2.706   1.245  18.583  0.00  0.00    +0.000 N 
ATOM     10  N   UNL     1       2.974   3.562  18.449  0.00  0.00    +0.000 NA
ATOM     11  C   UNL     1       2.711   4.824  18.881  0.00  0.00    +0.000 A 
ATOM     12  H   UNL     1       1.877   0.725  18.321  0.00  0.00    +0.000 HD
ATOM     13  H   UNL     1       3.325   1.384  17.789  0.00  0.00    +0.000 HD
ENDROOT
BRANCH   1  14
ATOM     14  O   UNL     1       4.107   5.778  17.189  0.00  0.00    +0.000 OA
BRANCH  14  15
ATOM     15  C   UNL     1       5.523   5.652  17.413  0.00  0.00    +0.000 C 
ATOM     16  C   UNL     1       6.251   6.978  17.148  0.00  0.00    +0.000 C 
BRANCH  15  17
ATOM     17  C   UNL     1       6.078   4.590  16.444  0.00  0.00    +0.000 C 
BRANCH  17  18
ATOM     18  O   UNL     1       7.185   5.160  15.737  0.00  0.00    +0.000 OA
BRANCH  18  20
ATOM     19  C   UNL     1       5.998   3.945  14.082  0.00  0.00    +0.000 C 
ATOM     20  C   UNL     1       7.166   4.878  14.344  0.00  0.00    +0.000 C 
ENDBRANCH  18  20
ENDBRANCH  17  18
ENDBRANCH  15  17
ENDBRANCH  14  15
ENDBRANCH   1  14
TORSDOF 5
ENDMDL
MODEL 9
REMARK VINA RESULT:      -6.5      1.786      2.880
REMARK  Name = 
REMARK  7 active torsions:
REMARK  status: ('A' for Active; 'I' for Inactive)
REMARK    1  A    between atoms: C_1  and  C_2
REMARK    2  A    between atoms: C_2  and  O_3
REMARK    3  A    between atoms: O_3  and  C_4
REMARK    4  A    between atoms: C_4  and  C_5
REMARK    5  A    between atoms: C_5  and  C_6
REMARK    6  A    between atoms: C_5  and  O_7
REMARK    7  A    between atoms: O_7  and  C_8
REMARK                            x       y       z     vdW  Elec       q    Type
REMARK                         _______ _______ _______ _____ _____    ______ ____
ROOT
ATOM      1  C   UNL     1       4.451   5.651  18.830  0.00  0.00    +0.000 A 
ATOM      2  C   UNL     1       3.606   6.586  18.211  0.00  0.00    +0.000 A 
ATOM      3  C   UNL     1       2.371   6.207  17.700  0.00  0.00    +0.000 A 
ATOM      4  C   UNL     1       1.967   4.885  17.804  0.00  0.00    +0.000 A 
ATOM      5  C   UNL     1       2.798   3.937  18.414  0.00  0.00    +0.000 A 
ATOM      6  C   UNL     1       2.374   2.607  18.501  0.00  0.00    +0.000 A 
ATOM      7  C   UNL     1       3.190   1.666  19.100  0.00  0.00    +0.000 A 
ATOM      8  C   UNL     1       4.413   2.080  19.601  0.00  0.00    +0.000 A 
ATOM      9  N   UNL     1       5.249   1.162  20.237  0.00  0.00    +0.000 N 
ATOM     10  N   UNL     1       4.846   3.353  19.532  0.00  0.00    +0.000 NA
ATOM     11  C   UNL     1       4.064   4.295  18.941  0.00  0.00    +0.000 A 
ATOM     12  H   UNL     1       5.455   0.371  19.637  0.00  0.00    +0.000 HD
ATOM     13  H   UNL     1       6.092   1.669  20.489  0.00  0.00    +0.000 HD
ENDROOT
BRANCH   1  14
ATOM     14  O   UNL     1       5.712   5.993  19.289  0.00  0.00    +0.000 OA
BRANCH  14  15
ATOM     15  C   UNL     1       6.842   5.636  18.472  0.00  0.00    +0.000 C 
ATOM     16  C   UNL     1       8.126   5.538  19.309  0.00  0.00    +0.000 C 
BRANCH  15  17
ATOM     17  C   UNL     1       7.039   6.731  17.405  0.00  0.00    +0.000 C 
BRANCH  17  18
ATOM     18  O   UNL     1       7.332   6.094  16.156  0.00  0.00    +0.000 OA
BRANCH  18  20
ATOM     19  C   UNL     1       5.563   5.068  14.956  0.00  0.00    +0.000 C 
ATOM     20  C   UNL     1       6.655   4.855  15.987  0.00  0.00    +0.000 C 
ENDBRANCH  18  20
ENDBRANCH  17  18
ENDBRANCH  15  17
ENDBRANCH  14  15
ENDBRANCH   1  14
TORSDOF 5
ENDMDL
