MODEL 1
REMARK VINA RESULT:      -6.1      0.000      0.000
REMARK  Name = 
REMARK  7 active torsions:
REMARK  status: ('A' for Active; 'I' for Inactive)
REMARK    1  A    between atoms: C_1  and  C_2
REMARK    2  A    between atoms: C_2  and  C_3
REMARK    3  A    between atoms: C_3  and  C_4
REMARK    4  A    between atoms: C_3  and  N_5
REMARK    5  A    between atoms: C_9  and  C_11
REMARK    6  A    between atoms: N_14  and  C_15
REMARK    7  A    between atoms: C_20  and  C_21
REMARK                            x       y       z     vdW  Elec       q    Type
REMARK                         _______ _______ _______ _____ _____    ______ ____
ROOT
ATOM      1  C   UNL     1       0.551   8.959  18.923  0.00  0.00    +0.000 C 
ATOM      2  C   UNL     1      -0.338  10.156  18.530  0.00  0.00    +0.000 C 
ATOM      3  C   UNL     1       0.084  11.503  19.141  0.00  0.00    +0.000 C 
ATOM      4  N   UNL     1       0.340  11.371  20.589  0.00  0.00    +0.000 N 
ATOM      5  C   UNL     1       1.264  10.311  20.951  0.00  0.00    +0.000 C 
ATOM      6  C   UNL     1       0.767   8.969  20.435  0.00  0.00    +0.000 C 
ENDROOT
BRANCH   1  11
ATOM      7  N   UNL     1       4.372   5.315  18.327  0.00  0.00    +0.000 NA
ATOM      8  C   UNL     1       4.882   6.663  17.942  0.00  0.00    +0.000 C 
ATOM      9  C   UNL     1       3.826   7.632  17.352  0.00  0.00    +0.000 C 
ATOM     10  N   UNL     1       2.612   7.718  18.178  0.00  0.00    +0.000 N 
ATOM     11  C   UNL     1       1.866   8.896  18.130  0.00  0.00    +0.000 C 
ATOM     12  O   UNL     1       2.242   9.868  17.471  0.00  0.00    +0.000 OA
ATOM     13  C   UNL     1       2.100   6.407  18.604  0.00  0.00    +0.000 C 
ATOM     14  C   UNL     1       3.215   5.538  19.222  0.00  0.00    +0.000 C 
BRANCH   7  15
ATOM     15  C   UNL     1       4.084   4.443  17.162  0.00  0.00    +0.000 C 
ATOM     16  C   UNL     1       5.192   4.545  16.095  0.00  0.00    +0.000 C 
BRANCH  15  18
ATOM     17  C   UNL     1       2.431   2.457  17.650  0.00  0.00    +0.000 C 
ATOM     18  C   UNL     1       3.873   2.929  17.493  0.00  0.00    +0.000 C 
ENDBRANCH  15  18
ENDBRANCH   7  15
ENDBRANCH   1  11
BRANCH   4  19
ATOM     19  C   UNL     1       0.223  12.510  21.400  0.00  0.00    +0.000 A 
ATOM     20  C   UNL     1       1.099  13.584  21.140  0.00  0.00    +0.000 A 
ATOM     21  C   UNL     1       0.980  14.786  21.823  0.00  0.00    +0.000 A 
ATOM     22  N   UNL     1       0.045  15.025  22.752  0.00  0.00    +0.000 NA
ATOM     23  C   UNL     1      -0.787  14.000  23.018  0.00  0.00    +0.000 A 
ATOM     24  C   UNL     1      -0.743  12.734  22.409  0.00  0.00    +0.000 A 
ATOM     25  C   UNL     1      -1.710  11.719  22.956  0.00  0.00    +0.000 C 
ENDBRANCH   4  19
TORSDOF 4
ENDMDL
MODEL 2
REMARK VINA RESULT:      -6.0      2.013      8.915
REMARK  Name = 
REMARK  7 active torsions:
REMARK  status: ('A' for Active; 'I' for Inactive)
REMARK    1  A    between atoms: C_1  and  C_2
REMARK    2  A    between atoms: C_2  and  C_3
REMARK    3  A    between atoms: C_3  and  C_4
REMARK    4  A    between atoms: C_3  and  N_5
REMARK    5  A    between atoms: C_9  and  C_11
REMARK    6  A    between atoms: N_14  and  C_15
REMARK    7  A    between atoms: C_20  and  C_21
REMARK                            x       y       z     vdW  Elec       q    Type
REMARK                         _______ _______ _______ _____ _____    ______ ____
ROOT
ATOM      1  C   UNL     1       1.745   7.454  18.168  0.00  0.00    +0.000 C 
ATOM      2  C   UNL     1       1.935   5.924  18.154  0.00  0.00    +0.000 C 
ATOM      3  C   UNL     1       3.366   5.447  18.458  0.00  0.00    +0.000 C 
ATOM      4  N   UNL     1       4.355   6.201  17.664  0.00  0.00    +0.000 N 
ATOM      5  C   UNL     1       4.245   7.646  17.763  0.00  0.00    +0.000 C 
ATOM      6  C   UNL     1       2.856   8.105  17.345  0.00  0.00    +0.000 C 
ENDROOT
BRANCH   1  11
ATOM      7  N   UNL     1       0.021  12.064  20.169  0.00  0.00    +0.000 NA
ATOM      8  C   UNL     1       0.899  11.371  21.156  0.00  0.00    +0.000 C 
ATOM      9  C   UNL     1       0.876   9.823  21.097  0.00  0.00    +0.000 C 
ATOM     10  N   UNL     1       1.063   9.304  19.734  0.00  0.00    +0.000 N 
ATOM     11  C   UNL     1       1.627   8.036  19.585  0.00  0.00    +0.000 C 
ATOM     12  O   UNL     1       2.024   7.392  20.558  0.00  0.00    +0.000 OA
ATOM     13  C   UNL     1       0.236   9.988  18.728  0.00  0.00    +0.000 C 
ATOM     14  C   UNL     1       0.367  11.521  18.836  0.00  0.00    +0.000 C 
BRANCH   7  15
ATOM     15  C   UNL     1      -1.420  11.979  20.507  0.00  0.00    +0.000 C 
ATOM     16  C   UNL     1      -1.733  12.713  21.827  0.00  0.00    +0.000 C 
BRANCH  15  18
ATOM     17  C   UNL     1      -3.879  12.200  19.600  0.00  0.00    +0.000 C 
ATOM     18  C   UNL     1      -2.399  12.520  19.414  0.00  0.00    +0.000 C 
ENDBRANCH  15  18
ENDBRANCH   7  15
ENDBRANCH   1  11
BRANCH   4  19
ATOM     19  C   UNL     1       5.599   5.607  17.399  0.00  0.00    +0.000 A 
ATOM     20  C   UNL     1       6.518   5.522  18.465  0.00  0.00    +0.000 A 
ATOM     21  C   UNL     1       7.726   4.856  18.317  0.00  0.00    +0.000 A 
ATOM     22  N   UNL     1       8.106   4.245  17.187  0.00  0.00    +0.000 NA
ATOM     23  C   UNL     1       7.241   4.334  16.159  0.00  0.00    +0.000 A 
ATOM     24  C   UNL     1       6.007   5.004  16.186  0.00  0.00    +0.000 A 
ATOM     25  C   UNL     1       5.269   5.056  14.875  0.00  0.00    +0.000 C 
ENDBRANCH   4  19
TORSDOF 4
ENDMDL
MODEL 3
REMARK VINA RESULT:      -5.9      0.441      1.468
REMARK  Name = 
REMARK  7 active torsions:
REMARK  status: ('A' for Active; 'I' for Inactive)
REMARK    1  A    between atoms: C_1  and  C_2
REMARK    2  A    between atoms: C_2  and  C_3
REMARK    3  A    between atoms: C_3  and  C_4
REMARK    4  A    between atoms: C_3  and  N_5
REMARK    5  A    between atoms: C_9  and  C_11
REMARK    6  A    between atoms: N_14  and  C_15
REMARK    7  A    between atoms: C_20  and  C_21
REMARK                            x       y       z     vdW  Elec       q    Type
REMARK                         _______ _______ _______ _____ _____    ______ ____
ROOT
ATOM      1  C   UNL     1       0.670   8.997  19.003  0.00  0.00    +0.000 C 
ATOM      2  C   UNL     1      -0.230  10.156  18.529  0.00  0.00    +0.000 C 
ATOM      3  C   UNL     1       0.214  11.553  18.995  0.00  0.00    +0.000 C 
ATOM      4  N   UNL     1       0.519  11.557  20.439  0.00  0.00    +0.000 N 
ATOM      5  C   UNL     1       1.454  10.531  20.869  0.00  0.00    +0.000 C 
ATOM      6  C   UNL     1       0.937   9.150  20.500  0.00  0.00    +0.000 C 
ENDROOT
BRANCH   1  11
ATOM      7  N   UNL     1       4.328   5.186  18.436  0.00  0.00    +0.000 NA
ATOM      8  C   UNL     1       4.877   6.497  17.986  0.00  0.00    +0.000 C 
ATOM      9  C   UNL     1       3.842   7.484  17.391  0.00  0.00    +0.000 C 
ATOM     10  N   UNL     1       2.657   7.649  18.247  0.00  0.00    +0.000 N 
ATOM     11  C   UNL     1       1.957   8.853  18.176  0.00  0.00    +0.000 C 
ATOM     12  O   UNL     1       2.350   9.784  17.469  0.00  0.00    +0.000 OA
ATOM     13  C   UNL     1       2.109   6.376  18.738  0.00  0.00    +0.000 C 
ATOM     14  C   UNL     1       3.208   5.487  19.355  0.00  0.00    +0.000 C 
BRANCH   7  15
ATOM     15  C   UNL     1       3.971   4.283  17.315  0.00  0.00    +0.000 C 
ATOM     16  C   UNL     1       5.065   4.277  16.227  0.00  0.00    +0.000 C 
BRANCH  15  18
ATOM     17  C   UNL     1       2.218   2.415  17.906  0.00  0.00    +0.000 C 
ATOM     18  C   UNL     1       3.681   2.799  17.713  0.00  0.00    +0.000 C 
ENDBRANCH  15  18
ENDBRANCH   7  15
ENDBRANCH   1  11
BRANCH   4  19
ATOM     19  C   UNL     1       0.433  12.769  21.142  0.00  0.00    +0.000 A 
ATOM     20  C   UNL     1      -0.625  12.911  22.062  0.00  0.00    +0.000 A 
ATOM     21  C   UNL     1      -0.722  14.032  22.875  0.00  0.00    +0.000 A 
ATOM     22  N   UNL     1       0.161  15.038  22.863  0.00  0.00    +0.000 NA
ATOM     23  C   UNL     1       1.167  14.918  21.976  0.00  0.00    +0.000 A 
ATOM     24  C   UNL     1       1.350  13.845  21.088  0.00  0.00    +0.000 A 
ATOM     25  C   UNL     1       2.490  13.994  20.117  0.00  0.00    +0.000 C 
ENDBRANCH   4  19
TORSDOF 4
ENDMDL
MODEL 4
REMARK VINA RESULT:      -5.9      1.703      1.797
REMARK  Name = 
REMARK  7 active torsions:
REMARK  status: ('A' for Active; 'I' for Inactive)
REMARK    1  A    between atoms: C_1  and  C_2
REMARK    2  A    between atoms: C_2  and  C_3
REMARK    3  A    between atoms: C_3  and  C_4
REMARK    4  A    between atoms: C_3  and  N_5
REMARK    5  A    between atoms: C_9  and  C_11
REMARK    6  A    between atoms: N_14  and  C_15
REMARK    7  A    between atoms: C_20  and  C_21
REMARK                            x       y       z     vdW  Elec       q    Type
REMARK                         _______ _______ _______ _____ _____    ______ ____
ROOT
ATOM      1  C   UNL     1       0.627   9.512  19.605  0.00  0.00    +0.000 C 
ATOM      2  C   UNL     1      -0.722  10.034  19.072  0.00  0.00    +0.000 C 
ATOM      3  C   UNL     1      -0.723  11.514  18.651  0.00  0.00    +0.000 C 
ATOM      4  N   UNL     1      -0.098  12.359  19.687  0.00  0.00    +0.000 N 
ATOM      5  C   UNL     1       1.223  11.928  20.112  0.00  0.00    +0.000 C 
ATOM      6  C   UNL     1       1.176  10.500  20.633  0.00  0.00    +0.000 C 
ENDROOT
BRANCH   1  11
ATOM      7  N   UNL     1       3.973   5.493  18.668  0.00  0.00    +0.000 NA
ATOM      8  C   UNL     1       4.380   6.694  17.883  0.00  0.00    +0.000 C 
ATOM      9  C   UNL     1       3.222   7.627  17.446  0.00  0.00    +0.000 C 
ATOM     10  N   UNL     1       2.322   7.974  18.557  0.00  0.00    +0.000 N 
ATOM     11  C   UNL     1       1.633   9.185  18.490  0.00  0.00    +0.000 C 
ATOM     12  O   UNL     1       1.816   9.979  17.565  0.00  0.00    +0.000 OA
ATOM     13  C   UNL     1       1.929   6.817  19.374  0.00  0.00    +0.000 C 
ATOM     14  C   UNL     1       3.154   5.981  19.799  0.00  0.00    +0.000 C 
BRANCH   7  15
ATOM     15  C   UNL     1       3.317   4.449  17.845  0.00  0.00    +0.000 C 
ATOM     16  C   UNL     1       4.273   3.899  16.767  0.00  0.00    +0.000 C 
BRANCH  15  18
ATOM     17  C   UNL     1       1.241   2.978  18.505  0.00  0.00    +0.000 C 
ATOM     18  C   UNL     1       2.738   3.233  18.639  0.00  0.00    +0.000 C 
ENDBRANCH  15  18
ENDBRANCH   7  15
ENDBRANCH   1  11
BRANCH   4  19
ATOM     19  C   UNL     1      -0.449  13.716  19.751  0.00  0.00    +0.000 A 
ATOM     20  C   UNL     1       0.162  14.588  18.828  0.00  0.00    +0.000 A 
ATOM     21  C   UNL     1      -0.207  15.924  18.751  0.00  0.00    +0.000 A 
ATOM     22  N   UNL     1      -1.155  16.479  19.518  0.00  0.00    +0.000 NA
ATOM     23  C   UNL     1      -1.734  15.656  20.414  0.00  0.00    +0.000 A 
ATOM     24  C   UNL     1      -1.422  14.299  20.597  0.00  0.00    +0.000 A 
ATOM     25  C   UNL     1      -2.130  13.620  21.738  0.00  0.00    +0.000 C 
ENDBRANCH   4  19
TORSDOF 4
ENDMDL
MODEL 5
REMARK VINA RESULT:      -5.9      1.939      8.933
REMARK  Name = 
REMARK  7 active torsions:
REMARK  status: ('A' for Active; 'I' for Inactive)
REMARK    1  A    between atoms: C_1  and  C_2
REMARK    2  A    between atoms: C_2  and  C_3
REMARK    3  A    between atoms: C_3  and  C_4
REMARK    4  A    between atoms: C_3  and  N_5
REMARK    5  A    between atoms: C_9  and  C_11
REMARK    6  A    between atoms: N_14  and  C_15
REMARK    7  A    between atoms: C_20  and  C_21
REMARK                            x       y       z     vdW  Elec       q    Type
REMARK                         _______ _______ _______ _____ _____    ______ ____
ROOT
ATOM      1  C   UNL     1       1.623   7.415  18.240  0.00  0.00    +0.000 C 
ATOM      2  C   UNL     1       1.741   5.888  18.061  0.00  0.00    +0.000 C 
ATOM      3  C   UNL     1       3.162   5.325  18.232  0.00  0.00    +0.000 C 
ATOM      4  N   UNL     1       4.141   6.116  17.461  0.00  0.00    +0.000 N 
ATOM      5  C   UNL     1       4.102   7.546  17.711  0.00  0.00    +0.000 C 
ATOM      6  C   UNL     1       2.716   8.101  17.423  0.00  0.00    +0.000 C 
ENDROOT
BRANCH   1  11
ATOM      7  N   UNL     1       0.116  11.818  20.803  0.00  0.00    +0.000 NA
ATOM      8  C   UNL     1       1.045  11.020  21.654  0.00  0.00    +0.000 C 
ATOM      9  C   UNL     1       0.990   9.486  21.443  0.00  0.00    +0.000 C 
ATOM     10  N   UNL     1       1.078   9.104  20.025  0.00  0.00    +0.000 N 
ATOM     11  C   UNL     1       1.608   7.852  19.713  0.00  0.00    +0.000 C 
ATOM     12  O   UNL     1       2.056   7.108  20.587  0.00  0.00    +0.000 OA
ATOM     13  C   UNL     1       0.199   9.896  19.151  0.00  0.00    +0.000 C 
ATOM     14  C   UNL     1       0.364  11.408  19.402  0.00  0.00    +0.000 C 
BRANCH   7  15
ATOM     15  C   UNL     1      -1.301  11.716  21.226  0.00  0.00    +0.000 C 
ATOM     16  C   UNL     1      -1.447  11.887  22.752  0.00  0.00    +0.000 C 
BRANCH  15  18
ATOM     17  C   UNL     1      -1.985  14.203  20.715  0.00  0.00    +0.000 C 
ATOM     18  C   UNL     1      -2.283  12.718  20.535  0.00  0.00    +0.000 C 
ENDBRANCH  15  18
ENDBRANCH   7  15
ENDBRANCH   1  11
BRANCH   4  19
ATOM     19  C   UNL     1       5.340   5.503  17.065  0.00  0.00    +0.000 A 
ATOM     20  C   UNL     1       5.497   5.208  15.696  0.00  0.00    +0.000 A 
ATOM     21  C   UNL     1       6.692   4.701  15.205  0.00  0.00    +0.000 A 
ATOM     22  N   UNL     1       7.770   4.467  15.966  0.00  0.00    +0.000 NA
ATOM     23  C   UNL     1       7.624   4.732  17.278  0.00  0.00    +0.000 A 
ATOM     24  C   UNL     1       6.456   5.220  17.888  0.00  0.00    +0.000 A 
ATOM     25  C   UNL     1       6.506   5.330  19.388  0.00  0.00    +0.000 C 
ENDBRANCH   4  19
TORSDOF 4
ENDMDL
MODEL 6
REMARK VINA RESULT:      -5.9      2.930      4.400
REMARK  Name = 
REMARK  7 active torsions:
REMARK  status: ('A' for Active; 'I' for Inactive)
REMARK    1  A    between atoms: C_1  and  C_2
REMARK    2  A    between atoms: C_2  and  C_3
REMARK    3  A    between atoms: C_3  and  C_4
REMARK    4  A    between atoms: C_3  and  N_5
REMARK    5  A    between atoms: C_9  and  C_11
REMARK    6  A    between atoms: N_14  and  C_15
REMARK    7  A    between atoms: C_20  and  C_21
REMARK                            x       y       z     vdW  Elec       q    Type
REMARK                         _______ _______ _______ _____ _____    ______ ____
ROOT
ATOM      1  C   UNL     1       1.077  10.269  19.121  0.00  0.00    +0.000 C 
ATOM      2  C   UNL     1       0.393  11.512  19.725  0.00  0.00    +0.000 C 
ATOM      3  C   UNL     1      -1.143  11.440  19.783  0.00  0.00    +0.000 C 
ATOM      4  N   UNL     1      -1.701  10.991  18.493  0.00  0.00    +0.000 N 
ATOM      5  C   UNL     1      -1.130   9.758  17.976  0.00  0.00    +0.000 C 
ATOM      6  C   UNL     1       0.376   9.893  17.818  0.00  0.00    +0.000 C 
ENDROOT
BRANCH   1  11
ATOM      7  N   UNL     1       2.866   5.277  18.799  0.00  0.00    +0.000 NA
ATOM      8  C   UNL     1       1.952   5.421  19.969  0.00  0.00    +0.000 C 
ATOM      9  C   UNL     1       1.941   6.818  20.638  0.00  0.00    +0.000 C 
ATOM     10  N   UNL     1       1.770   7.911  19.667  0.00  0.00    +0.000 N 
ATOM     11  C   UNL     1       1.180   9.095  20.108  0.00  0.00    +0.000 C 
ATOM     12  O   UNL     1       0.749   9.209  21.257  0.00  0.00    +0.000 OA
ATOM     13  C   UNL     1       2.633   7.782  18.483  0.00  0.00    +0.000 C 
ATOM     14  C   UNL     1       2.535   6.373  17.863  0.00  0.00    +0.000 C 
BRANCH   7  15
ATOM     15  C   UNL     1       4.298   5.210  19.179  0.00  0.00    +0.000 C 
ATOM     16  C   UNL     1       4.733   3.761  19.483  0.00  0.00    +0.000 C 
BRANCH  15  18
ATOM     17  C   UNL     1       6.767   5.424  18.300  0.00  0.00    +0.000 C 
ATOM     18  C   UNL     1       5.299   5.802  18.134  0.00  0.00    +0.000 C 
ENDBRANCH  15  18
ENDBRANCH   7  15
ENDBRANCH   1  11
BRANCH   4  19
ATOM     19  C   UNL     1      -3.020  11.344  18.170  0.00  0.00    +0.000 A 
ATOM     20  C   UNL     1      -3.841  11.812  19.216  0.00  0.00    +0.000 A 
ATOM     21  C   UNL     1      -5.122  12.283  18.965  0.00  0.00    +0.000 A 
ATOM     22  N   UNL     1      -5.668  12.341  17.743  0.00  0.00    +0.000 NA
ATOM     23  C   UNL     1      -4.897  11.881  16.740  0.00  0.00    +0.000 A 
ATOM     24  C   UNL     1      -3.600  11.359  16.879  0.00  0.00    +0.000 A 
ATOM     25  C   UNL     1      -2.985  10.807  15.621  0.00  0.00    +0.000 C 
ENDBRANCH   4  19
TORSDOF 4
ENDMDL
MODEL 7
REMARK VINA RESULT:      -5.7      1.716      9.024
REMARK  Name = 
REMARK  7 active torsions:
REMARK  status: ('A' for Active; 'I' for Inactive)
REMARK    1  A    between atoms: C_1  and  C_2
REMARK    2  A    between atoms: C_2  and  C_3
REMARK    3  A    between atoms: C_3  and  C_4
REMARK    4  A    between atoms: C_3  and  N_5
REMARK    5  A    between atoms: C_9  and  C_11
REMARK    6  A    between atoms: N_14  and  C_15
REMARK    7  A    between atoms: C_20  and  C_21
REMARK                            x       y       z     vdW  Elec       q    Type
REMARK                         _______ _______ _______ _____ _____    ______ ____
ROOT
ATOM      1  C   UNL     1      -0.381  10.228  19.967  0.00  0.00    +0.000 C 
ATOM      2  C   UNL     1      -0.014   9.043  20.882  0.00  0.00    +0.000 C 
ATOM      3  C   UNL     1       1.387   8.452  20.644  0.00  0.00    +0.000 C 
ATOM      4  N   UNL     1       1.628   8.222  19.207  0.00  0.00    +0.000 N 
ATOM      5  C   UNL     1       1.385   9.374  18.355  0.00  0.00    +0.000 C 
ATOM      6  C   UNL     1      -0.043   9.869  18.521  0.00  0.00    +0.000 C 
ENDROOT
BRANCH   1  11
ATOM      7  N   UNL     1      -2.248  14.625  22.293  0.00  0.00    +0.000 NA
ATOM      8  C   UNL     1      -0.947  14.911  21.621  0.00  0.00    +0.000 C 
ATOM      9  C   UNL     1       0.047  13.725  21.562  0.00  0.00    +0.000 C 
ATOM     10  N   UNL     1      -0.573  12.489  21.058  0.00  0.00    +0.000 N 
ATOM     11  C   UNL     1       0.245  11.557  20.418  0.00  0.00    +0.000 C 
ATOM     12  O   UNL     1       1.439  11.783  20.215  0.00  0.00    +0.000 OA
ATOM     13  C   UNL     1      -1.874  12.194  21.675  0.00  0.00    +0.000 C 
ATOM     14  C   UNL     1      -2.808  13.421  21.640  0.00  0.00    +0.000 C 
BRANCH   7  15
ATOM     15  C   UNL     1      -2.135  14.523  23.768  0.00  0.00    +0.000 C 
ATOM     16  C   UNL     1      -1.348  15.711  24.357  0.00  0.00    +0.000 C 
BRANCH  15  18
ATOM     17  C   UNL     1      -4.024  13.011  24.796  0.00  0.00    +0.000 C 
ATOM     18  C   UNL     1      -3.491  14.416  24.540  0.00  0.00    +0.000 C 
ENDBRANCH  15  18
ENDBRANCH   7  15
ENDBRANCH   1  11
BRANCH   4  19
ATOM     19  C   UNL     1       2.570   7.254  18.828  0.00  0.00    +0.000 A 
ATOM     20  C   UNL     1       3.451   7.581  17.779  0.00  0.00    +0.000 A 
ATOM     21  C   UNL     1       4.481   6.725  17.414  0.00  0.00    +0.000 A 
ATOM     22  N   UNL     1       4.725   5.555  18.018  0.00  0.00    +0.000 NA
ATOM     23  C   UNL     1       3.878   5.226  19.012  0.00  0.00    +0.000 A 
ATOM     24  C   UNL     1       2.789   6.000  19.447  0.00  0.00    +0.000 A 
ATOM     25  C   UNL     1       1.924   5.365  20.502  0.00  0.00    +0.000 C 
ENDBRANCH   4  19
TORSDOF 4
ENDMDL
MODEL 8
REMARK VINA RESULT:      -5.7      2.117      9.313
REMARK  Name = 
REMARK  7 active torsions:
REMARK  status: ('A' for Active; 'I' for Inactive)
REMARK    1  A    between atoms: C_1  and  C_2
REMARK    2  A    between atoms: C_2  and  C_3
REMARK    3  A    between atoms: C_3  and  C_4
REMARK    4  A    between atoms: C_3  and  N_5
REMARK    5  A    between atoms: C_9  and  C_11
REMARK    6  A    between atoms: N_14  and  C_15
REMARK    7  A    between atoms: C_20  and  C_21
REMARK                            x       y       z     vdW  Elec       q    Type
REMARK                         _______ _______ _______ _____ _____    ______ ____
ROOT
ATOM      1  C   UNL     1      -0.451  10.382  20.682  0.00  0.00    +0.000 C 
ATOM      2  C   UNL     1      -0.024   9.121  21.459  0.00  0.00    +0.000 C 
ATOM      3  C   UNL     1       1.334   8.532  21.039  0.00  0.00    +0.000 C 
ATOM      4  N   UNL     1       1.431   8.417  19.571  0.00  0.00    +0.000 N 
ATOM      5  C   UNL     1       1.133   9.638  18.843  0.00  0.00    +0.000 C 
ATOM      6  C   UNL     1      -0.262  10.138  19.186  0.00  0.00    +0.000 C 
ENDROOT
BRANCH   1  11
ATOM      7  N   UNL     1      -1.991  15.414  21.415  0.00  0.00    +0.000 NA
ATOM      8  C   UNL     1      -0.505  15.340  21.318  0.00  0.00    +0.000 C 
ATOM      9  C   UNL     1       0.133  14.027  21.836  0.00  0.00    +0.000 C 
ATOM     10  N   UNL     1      -0.516  12.826  21.286  0.00  0.00    +0.000 N 
ATOM     11  C   UNL     1       0.244  11.661  21.175  0.00  0.00    +0.000 C 
ATOM     12  O   UNL     1       1.443  11.646  21.463  0.00  0.00    +0.000 OA
ATOM     13  C   UNL     1      -1.984  12.879  21.335  0.00  0.00    +0.000 C 
ATOM     14  C   UNL     1      -2.522  14.203  20.751  0.00  0.00    +0.000 C 
BRANCH   7  15
ATOM     15  C   UNL     1      -2.479  15.614  22.801  0.00  0.00    +0.000 C 
ATOM     16  C   UNL     1      -1.822  16.847  23.456  0.00  0.00    +0.000 C 
BRANCH  15  18
ATOM     17  C   UNL     1      -4.562  15.950  24.369  0.00  0.00    +0.000 C 
ATOM     18  C   UNL     1      -4.028  15.757  22.954  0.00  0.00    +0.000 C 
ENDBRANCH  15  18
ENDBRANCH   7  15
ENDBRANCH   1  11
BRANCH   4  19
ATOM     19  C   UNL     1       2.311   7.470  19.026  0.00  0.00    +0.000 A 
ATOM     20  C   UNL     1       3.104   7.874  17.934  0.00  0.00    +0.000 A 
ATOM     21  C   UNL     1       4.075   7.036  17.405  0.00  0.00    +0.000 A 
ATOM     22  N   UNL     1       4.341   5.812  17.880  0.00  0.00    +0.000 NA
ATOM     23  C   UNL     1       3.577   5.411  18.914  0.00  0.00    +0.000 A 
ATOM     24  C   UNL     1       2.551   6.162  19.511  0.00  0.00    +0.000 A 
ATOM     25  C   UNL     1       1.767   5.452  20.581  0.00  0.00    +0.000 C 
ENDBRANCH   4  19
TORSDOF 4
ENDMDL
MODEL 9
REMARK VINA RESULT:      -5.7      2.173      8.713
REMARK  Name = 
REMARK  7 active torsions:
REMARK  status: ('A' for Active; 'I' for Inactive)
REMARK    1  A    between atoms: C_1  and  C_2
REMARK    2  A    between atoms: C_2  and  C_3
REMARK    3  A    between atoms: C_3  and  C_4
REMARK    4  A    between atoms: C_3  and  N_5
REMARK    5  A    between atoms: C_9  and  C_11
REMARK    6  A    between atoms: N_14  and  C_15
REMARK    7  A    between atoms: C_20  and  C_21
REMARK                            x       y       z     vdW  Elec       q    Type
REMARK                         _______ _______ _______ _____ _____    ______ ____
ROOT
ATOM      1  C   UNL     1       0.286   9.727  20.007  0.00  0.00    +0.000 C 
ATOM      2  C   UNL     1       0.537   8.320  20.584  0.00  0.00    +0.000 C 
ATOM      3  C   UNL     1       1.871   7.677  20.166  0.00  0.00    +0.000 C 
ATOM      4  N   UNL     1       2.082   7.796  18.710  0.00  0.00    +0.000 N 
ATOM      5  C   UNL     1       1.952   9.143  18.182  0.00  0.00    +0.000 C 
ATOM      6  C   UNL     1       0.581   9.714  18.508  0.00  0.00    +0.000 C 
ENDROOT
BRANCH   1  11
ATOM      7  N   UNL     1       1.432  14.813  18.983  0.00  0.00    +0.000 NA
ATOM      8  C   UNL     1       2.352  14.280  20.028  0.00  0.00    +0.000 C 
ATOM      9  C   UNL     1       1.756  13.180  20.942  0.00  0.00    +0.000 C 
ATOM     10  N   UNL     1       1.102  12.103  20.182  0.00  0.00    +0.000 N 
ATOM     11  C   UNL     1       1.043  10.834  20.758  0.00  0.00    +0.000 C 
ATOM     12  O   UNL     1       1.581  10.594  21.841  0.00  0.00    +0.000 OA
ATOM     13  C   UNL     1       0.212  12.594  19.119  0.00  0.00    +0.000 C 
ATOM     14  C   UNL     1       0.914  13.646  18.236  0.00  0.00    +0.000 C 
BRANCH   7  15
ATOM     15  C   UNL     1       0.380  15.705  19.528  0.00  0.00    +0.000 C 
ATOM     16  C   UNL     1       0.981  16.792  20.443  0.00  0.00    +0.000 C 
BRANCH  15  18
ATOM     17  C   UNL     1       0.069  17.655  17.792  0.00  0.00    +0.000 C 
ATOM     18  C   UNL     1      -0.516  16.417  18.462  0.00  0.00    +0.000 C 
ENDBRANCH  15  18
ENDBRANCH   7  15
ENDBRANCH   1  11
BRANCH   4  19
ATOM     19  C   UNL     1       2.921   6.868  18.074  0.00  0.00    +0.000 A 
ATOM     20  C   UNL     1       4.059   7.371  17.412  0.00  0.00    +0.000 A 
ATOM     21  C   UNL     1       4.997   6.516  16.851  0.00  0.00    +0.000 A 
ATOM     22  N   UNL     1       4.909   5.181  16.898  0.00  0.00    +0.000 NA
ATOM     23  C   UNL     1       3.817   4.691  17.514  0.00  0.00    +0.000 A 
ATOM     24  C   UNL     1       2.793   5.459  18.094  0.00  0.00    +0.000 A 
ATOM     25  C   UNL     1       1.621   4.680  18.626  0.00  0.00    +0.000 C 
ENDBRANCH   4  19
TORSDOF 4
ENDMDL
