MODEL 1
REMARK VINA RESULT:      -8.1      0.000      0.000
REMARK  Name = 
REMARK  8 active torsions:
REMARK  status: ('A' for Active; 'I' for Inactive)
REMARK    1  A    between atoms: C_1  and  O_2
REMARK    2  A    between atoms: O_2  and  C_3
REMARK    3  A    between atoms: C_7  and  C_8
REMARK    4  A    between atoms: N_10  and  C_11
REMARK    5  A    between atoms: C_11  and  C_12
REMARK    6  A    between atoms: C_12  and  C_13
REMARK    7  A    between atoms: C_13  and  O_14
REMARK    8  A    between atoms: O_14  and  C_15
REMARK                            x       y       z     vdW  Elec       q    Type
REMARK                         _______ _______ _______ _____ _____    ______ ____
ROOT
ATOM      1  C   UNL     1       1.431   4.795  20.529  0.00  0.00    +0.000 C 
ENDROOT
BRANCH   1   2
ATOM      2  C   UNL     1       2.021   3.635  21.337  0.00  0.00    +0.000 C 
BRANCH   2   3
ATOM      3  C   UNL     1       2.896   2.730  20.476  0.00  0.00    +0.000 C 
BRANCH   3   6
ATOM      4  C   UNL     1       4.136   3.505  18.522  0.00  0.00    +0.000 C 
ATOM      5  O   UNL     1       3.370   2.933  17.756  0.00  0.00    +0.000 OA
ATOM      6  N   UNL     1       4.026   3.436  19.901  0.00  0.00    +0.000 N 
ATOM      7  H   UNL     1       4.473   4.158  20.450  0.00  0.00    +0.000 HD
BRANCH   4  12
ATOM      8  C   UNL     1       6.522   5.246  16.137  0.00  0.00    +0.000 A 
ATOM      9  C   UNL     1       7.236   6.038  17.042  0.00  0.00    +0.000 A 
ATOM     10  C   UNL     1       6.948   6.002  18.405  0.00  0.00    +0.000 A 
ATOM     11  C   UNL     1       5.939   5.165  18.875  0.00  0.00    +0.000 A 
ATOM     12  C   UNL     1       5.223   4.361  17.979  0.00  0.00    +0.000 A 
ATOM     13  C   UNL     1       5.508   4.408  16.606  0.00  0.00    +0.000 A 
BRANCH   8  15
ATOM     14  C   UNL     1       6.550   4.351  13.931  0.00  0.00    +0.000 C 
ATOM     15  O   UNL     1       6.910   5.387  14.833  0.00  0.00    +0.000 OA
ENDBRANCH   8  15
ENDBRANCH   4  12
ENDBRANCH   3   6
ENDBRANCH   2   3
ENDBRANCH   1   2
BRANCH   1  16
ATOM     16  O   UNL     1       2.379   5.855  20.532  0.00  0.00    +0.000 OA
BRANCH  16  17
ATOM     17  C   UNL     1       2.099   7.020  19.858  0.00  0.00    +0.000 A 
ATOM     18  C   UNL     1       2.675   6.999  18.574  0.00  0.00    +0.000 A 
ATOM     19  C   UNL     1       2.561   8.083  17.720  0.00  0.00    +0.000 A 
ATOM     20  C   UNL     1       1.903   9.219  18.168  0.00  0.00    +0.000 A 
ATOM     21  C   UNL     1       1.343   9.259  19.457  0.00  0.00    +0.000 A 
ATOM     22  C   UNL     1       0.758  10.447  19.902  0.00  0.00    +0.000 A 
ATOM     23  C   UNL     1       0.187  10.500  21.164  0.00  0.00    +0.000 A 
ATOM     24  C   UNL     1       0.153   9.346  21.917  0.00  0.00    +0.000 A 
ATOM     25  N   UNL     1      -0.462   9.356  23.168  0.00  0.00    +0.000 N 
ATOM     26  N   UNL     1       0.744   8.202  21.527  0.00  0.00    +0.000 NA
ATOM     27  C   UNL     1       1.379   8.142  20.320  0.00  0.00    +0.000 A 
ATOM     28  H   UNL     1      -1.381   9.784  23.135  0.00  0.00    +0.000 HD
ATOM     29  H   UNL     1      -0.494   8.400  23.510  0.00  0.00    +0.000 HD
ENDBRANCH  16  17
ENDBRANCH   1  16
TORSDOF 7
ENDMDL
MODEL 2
REMARK VINA RESULT:      -7.9      0.854      1.599
REMARK  Name = 
REMARK  8 active torsions:
REMARK  status: ('A' for Active; 'I' for Inactive)
REMARK    1  A    between atoms: C_1  and  O_2
REMARK    2  A    between atoms: O_2  and  C_3
REMARK    3  A    between atoms: C_7  and  C_8
REMARK    4  A    between atoms: N_10  and  C_11
REMARK    5  A    between atoms: C_11  and  C_12
REMARK    6  A    between atoms: C_12  and  C_13
REMARK    7  A    between atoms: C_13  and  O_14
REMARK    8  A    between atoms: O_14  and  C_15
REMARK                            x       y       z     vdW  Elec       q    Type
REMARK                         _______ _______ _______ _____ _____    ______ ____
ROOT
ATOM      1  C   UNL     1       1.545   4.679  20.266  0.00  0.00    +0.000 C 
ENDROOT
BRANCH   1   2
ATOM      2  C   UNL     1       2.020   3.571  21.211  0.00  0.00    +0.000 C 
BRANCH   2   3
ATOM      3  C   UNL     1       3.089   2.696  20.568  0.00  0.00    +0.000 C 
BRANCH   3   6
ATOM      4  C   UNL     1       4.139   3.123  18.407  0.00  0.00    +0.000 C 
ATOM      5  O   UNL     1       3.578   2.161  17.896  0.00  0.00    +0.000 OA
ATOM      6  N   UNL     1       4.008   3.459  19.745  0.00  0.00    +0.000 N 
ATOM      7  H   UNL     1       4.230   4.406  20.020  0.00  0.00    +0.000 HD
BRANCH   4  12
ATOM      8  C   UNL     1       6.807   5.581  17.287  0.00  0.00    +0.000 A 
ATOM      9  C   UNL     1       6.531   5.632  15.918  0.00  0.00    +0.000 A 
ATOM     10  C   UNL     1       5.491   4.883  15.369  0.00  0.00    +0.000 A 
ATOM     11  C   UNL     1       4.714   4.074  16.195  0.00  0.00    +0.000 A 
ATOM     12  C   UNL     1       4.976   4.022  17.570  0.00  0.00    +0.000 A 
ATOM     13  C   UNL     1       6.030   4.769  18.116  0.00  0.00    +0.000 A 
BRANCH   8  15
ATOM     14  C   UNL     1       7.682   7.772  17.610  0.00  0.00    +0.000 C 
ATOM     15  O   UNL     1       7.857   6.364  17.682  0.00  0.00    +0.000 OA
ENDBRANCH   8  15
ENDBRANCH   4  12
ENDBRANCH   3   6
ENDBRANCH   2   3
ENDBRANCH   1   2
BRANCH   1  16
ATOM     16  O   UNL     1       2.388   5.809  20.460  0.00  0.00    +0.000 OA
BRANCH  16  17
ATOM     17  C   UNL     1       2.107   6.986  19.808  0.00  0.00    +0.000 A 
ATOM     18  C   UNL     1       2.652   6.975  18.510  0.00  0.00    +0.000 A 
ATOM     19  C   UNL     1       2.533   8.072  17.675  0.00  0.00    +0.000 A 
ATOM     20  C   UNL     1       1.902   9.211  18.153  0.00  0.00    +0.000 A 
ATOM     21  C   UNL     1       1.373   9.240  19.456  0.00  0.00    +0.000 A 
ATOM     22  C   UNL     1       0.814  10.430  19.930  0.00  0.00    +0.000 A 
ATOM     23  C   UNL     1       0.274  10.473  21.206  0.00  0.00    +0.000 A 
ATOM     24  C   UNL     1       0.242   9.309  21.944  0.00  0.00    +0.000 A 
ATOM     25  N   UNL     1      -0.342   9.311  23.209  0.00  0.00    +0.000 N 
ATOM     26  N   UNL     1       0.808   8.163  21.524  0.00  0.00    +0.000 NA
ATOM     27  C   UNL     1       1.414   8.111  20.302  0.00  0.00    +0.000 A 
ATOM     28  H   UNL     1      -1.256   9.751  23.204  0.00  0.00    +0.000 HD
ATOM     29  H   UNL     1      -0.379   8.351  23.539  0.00  0.00    +0.000 HD
ENDBRANCH  16  17
ENDBRANCH   1  16
TORSDOF 7
ENDMDL
MODEL 3
REMARK VINA RESULT:      -7.5      2.248      6.269
REMARK  Name = 
REMARK  8 active torsions:
REMARK  status: ('A' for Active; 'I' for Inactive)
REMARK    1  A    between atoms: C_1  and  O_2
REMARK    2  A    between atoms: O_2  and  C_3
REMARK    3  A    between atoms: C_7  and  C_8
REMARK    4  A    between atoms: N_10  and  C_11
REMARK    5  A    between atoms: C_11  and  C_12
REMARK    6  A    between atoms: C_12  and  C_13
REMARK    7  A    between atoms: C_13  and  O_14
REMARK    8  A    between atoms: O_14  and  C_15
REMARK                            x       y       z     vdW  Elec       q    Type
REMARK                         _______ _______ _______ _____ _____    ______ ____
ROOT
ATOM      1  C   UNL     1       3.556   2.445  17.311  0.00  0.00    +0.000 C 
ENDROOT
BRANCH   1   2
ATOM      2  C   UNL     1       3.100   1.731  18.587  0.00  0.00    +0.000 C 
BRANCH   2   3
ATOM      3  C   UNL     1       2.810   2.715  19.715  0.00  0.00    +0.000 C 
BRANCH   3   6
ATOM      4  C   UNL     1       2.364   5.075  20.144  0.00  0.00    +0.000 C 
ATOM      5  O   UNL     1       2.366   4.899  21.357  0.00  0.00    +0.000 OA
ATOM      6  N   UNL     1       2.527   4.051  19.226  0.00  0.00    +0.000 N 
ATOM      7  H   UNL     1       2.824   4.296  18.291  0.00  0.00    +0.000 HD
BRANCH   4  12
ATOM      8  C   UNL     1       1.517   8.758  19.783  0.00  0.00    +0.000 A 
ATOM      9  C   UNL     1       2.060   9.011  18.520  0.00  0.00    +0.000 A 
ATOM     10  C   UNL     1       2.687   7.997  17.796  0.00  0.00    +0.000 A 
ATOM     11  C   UNL     1       2.772   6.716  18.335  0.00  0.00    +0.000 A 
ATOM     12  C   UNL     1       2.224   6.450  19.596  0.00  0.00    +0.000 A 
ATOM     13  C   UNL     1       1.604   7.475  20.326  0.00  0.00    +0.000 A 
BRANCH   8  15
ATOM     14  C   UNL     1       0.752   9.797  21.784  0.00  0.00    +0.000 C 
ATOM     15  O   UNL     1       0.938   9.846  20.377  0.00  0.00    +0.000 OA
ENDBRANCH   8  15
ENDBRANCH   4  12
ENDBRANCH   3   6
ENDBRANCH   2   3
ENDBRANCH   1   2
BRANCH   1  16
ATOM     16  O   UNL     1       4.899   2.872  17.507  0.00  0.00    +0.000 OA
BRANCH  16  17
ATOM     17  C   UNL     1       5.272   4.138  17.122  0.00  0.00    +0.000 A 
ATOM     18  C   UNL     1       4.632   4.499  15.921  0.00  0.00    +0.000 A 
ATOM     19  C   UNL     1       4.883   5.718  15.315  0.00  0.00    +0.000 A 
ATOM     20  C   UNL     1       5.816   6.570  15.889  0.00  0.00    +0.000 A 
ATOM     21  C   UNL     1       6.477   6.210  17.076  0.00  0.00    +0.000 A 
ATOM     22  C   UNL     1       7.467   7.057  17.581  0.00  0.00    +0.000 A 
ATOM     23  C   UNL     1       8.119   6.726  18.758  0.00  0.00    +0.000 A 
ATOM     24  C   UNL     1       7.713   5.595  19.436  0.00  0.00    +0.000 A 
ATOM     25  N   UNL     1       8.314   5.266  20.650  0.00  0.00    +0.000 N 
ATOM     26  N   UNL     1       6.791   4.745  18.951  0.00  0.00    +0.000 NA
ATOM     27  C   UNL     1       6.186   5.007  17.756  0.00  0.00    +0.000 A 
ATOM     28  H   UNL     1       8.356   6.060  21.280  0.00  0.00    +0.000 HD
ATOM     29  H   UNL     1       7.806   4.483  21.050  0.00  0.00    +0.000 HD
ENDBRANCH  16  17
ENDBRANCH   1  16
TORSDOF 7
ENDMDL
MODEL 4
REMARK VINA RESULT:      -7.5      4.906      7.353
REMARK  Name = 
REMARK  8 active torsions:
REMARK  status: ('A' for Active; 'I' for Inactive)
REMARK    1  A    between atoms: C_1  and  O_2
REMARK    2  A    between atoms: O_2  and  C_3
REMARK    3  A    between atoms: C_7  and  C_8
REMARK    4  A    between atoms: N_10  and  C_11
REMARK    5  A    between atoms: C_11  and  C_12
REMARK    6  A    between atoms: C_12  and  C_13
REMARK    7  A    between atoms: C_13  and  O_14
REMARK    8  A    between atoms: O_14  and  C_15
REMARK                            x       y       z     vdW  Elec       q    Type
REMARK                         _______ _______ _______ _____ _____    ______ ____
ROOT
ATOM      1  C   UNL     1       6.756   5.131  18.939  0.00  0.00    +0.000 C 
ENDROOT
BRANCH   1   2
ATOM      2  C   UNL     1       7.989   6.020  19.122  0.00  0.00    +0.000 C 
BRANCH   2   3
ATOM      3  C   UNL     1       7.884   7.309  18.316  0.00  0.00    +0.000 C 
BRANCH   3   6
ATOM      4  C   UNL     1       8.630   9.632  18.343  0.00  0.00    +0.000 C 
ATOM      5  O   UNL     1       7.782   9.959  17.520  0.00  0.00    +0.000 OA
ATOM      6  N   UNL     1       8.805   8.330  18.779  0.00  0.00    +0.000 N 
ATOM      7  H   UNL     1       9.285   8.184  19.657  0.00  0.00    +0.000 HD
BRANCH   4  12
ATOM      8  C   UNL     1      11.152  12.432  18.801  0.00  0.00    +0.000 A 
ATOM      9  C   UNL     1      11.052  12.627  20.182  0.00  0.00    +0.000 A 
ATOM     10  C   UNL     1      10.182  11.856  20.951  0.00  0.00    +0.000 A 
ATOM     11  C   UNL     1       9.403  10.877  20.339  0.00  0.00    +0.000 A 
ATOM     12  C   UNL     1       9.501  10.668  18.958  0.00  0.00    +0.000 A 
ATOM     13  C   UNL     1      10.370  11.453  18.185  0.00  0.00    +0.000 A 
BRANCH   8  15
ATOM     14  C   UNL     1      12.292  14.523  18.781  0.00  0.00    +0.000 C 
ATOM     15  O   UNL     1      12.042  13.262  18.176  0.00  0.00    +0.000 OA
ENDBRANCH   8  15
ENDBRANCH   4  12
ENDBRANCH   3   6
ENDBRANCH   2   3
ENDBRANCH   1   2
BRANCH   1  16
ATOM     16  O   UNL     1       6.035   5.611  17.810  0.00  0.00    +0.000 OA
BRANCH  16  17
ATOM     17  C   UNL     1       4.661   5.595  17.823  0.00  0.00    +0.000 A 
ATOM     18  C   UNL     1       4.150   6.905  17.758  0.00  0.00    +0.000 A 
ATOM     19  C   UNL     1       2.787   7.145  17.798  0.00  0.00    +0.000 A 
ATOM     20  C   UNL     1       1.924   6.070  17.950  0.00  0.00    +0.000 A 
ATOM     21  C   UNL     1       2.424   4.759  18.039  0.00  0.00    +0.000 A 
ATOM     22  C   UNL     1       1.531   3.711  18.271  0.00  0.00    +0.000 A 
ATOM     23  C   UNL     1       2.004   2.410  18.347  0.00  0.00    +0.000 A 
ATOM     24  C   UNL     1       3.345   2.186  18.116  0.00  0.00    +0.000 A 
ATOM     25  N   UNL     1       3.839   0.883  18.133  0.00  0.00    +0.000 N 
ATOM     26  N   UNL     1       4.229   3.182  17.930  0.00  0.00    +0.000 NA
ATOM     27  C   UNL     1       3.804   4.479  17.926  0.00  0.00    +0.000 A 
ATOM     28  H   UNL     1       3.274   0.256  17.571  0.00  0.00    +0.000 HD
ATOM     29  H   UNL     1       4.807   0.911  17.826  0.00  0.00    +0.000 HD
ENDBRANCH  16  17
ENDBRANCH   1  16
TORSDOF 7
ENDMDL
MODEL 5
REMARK VINA RESULT:      -7.3      3.154      6.129
REMARK  Name = 
REMARK  8 active torsions:
REMARK  status: ('A' for Active; 'I' for Inactive)
REMARK    1  A    between atoms: C_1  and  O_2
REMARK    2  A    between atoms: O_2  and  C_3
REMARK    3  A    between atoms: C_7  and  C_8
REMARK    4  A    between atoms: N_10  and  C_11
REMARK    5  A    between atoms: C_11  and  C_12
REMARK    6  A    between atoms: C_12  and  C_13
REMARK    7  A    between atoms: C_13  and  O_14
REMARK    8  A    between atoms: O_14  and  C_15
REMARK                            x       y       z     vdW  Elec       q    Type
REMARK                         _______ _______ _______ _____ _____    ______ ____
ROOT
ATOM      1  C   UNL     1       5.485   6.586  16.465  0.00  0.00    +0.000 C 
ENDROOT
BRANCH   1   2
ATOM      2  C   UNL     1       6.619   5.949  17.274  0.00  0.00    +0.000 C 
BRANCH   2   3
ATOM      3  C   UNL     1       7.426   4.961  16.439  0.00  0.00    +0.000 C 
BRANCH   3   6
ATOM      4  C   UNL     1       6.958   4.564  14.077  0.00  0.00    +0.000 C 
ATOM      5  O   UNL     1       7.839   5.341  13.728  0.00  0.00    +0.000 OA
ATOM      6  N   UNL     1       6.630   4.331  15.403  0.00  0.00    +0.000 N 
ATOM      7  H   UNL     1       6.136   3.477  15.626  0.00  0.00    +0.000 HD
BRANCH   4  12
ATOM      8  C   UNL     1       6.034   1.947  11.487  0.00  0.00    +0.000 A 
ATOM      9  C   UNL     1       4.724   2.341  11.199  0.00  0.00    +0.000 A 
ATOM     10  C   UNL     1       4.153   3.443  11.835  0.00  0.00    +0.000 A 
ATOM     11  C   UNL     1       4.896   4.163  12.766  0.00  0.00    +0.000 A 
ATOM     12  C   UNL     1       6.213   3.783  13.056  0.00  0.00    +0.000 A 
ATOM     13  C   UNL     1       6.780   2.667  12.423  0.00  0.00    +0.000 A 
BRANCH   8  15
ATOM     14  C   UNL     1       6.050  -0.425  11.274  0.00  0.00    +0.000 C 
ATOM     15  O   UNL     1       6.459   0.848  10.793  0.00  0.00    +0.000 OA
ENDBRANCH   8  15
ENDBRANCH   4  12
ENDBRANCH   3   6
ENDBRANCH   2   3
ENDBRANCH   1   2
BRANCH   1  16
ATOM     16  O   UNL     1       4.366   5.709  16.514  0.00  0.00    +0.000 OA
BRANCH  16  17
ATOM     17  C   UNL     1       3.652   5.583  17.682  0.00  0.00    +0.000 A 
ATOM     18  C   UNL     1       3.173   6.837  18.106  0.00  0.00    +0.000 A 
ATOM     19  C   UNL     1       2.456   6.968  19.284  0.00  0.00    +0.000 A 
ATOM     20  C   UNL     1       2.254   5.845  20.071  0.00  0.00    +0.000 A 
ATOM     21  C   UNL     1       2.747   4.591  19.668  0.00  0.00    +0.000 A 
ATOM     22  C   UNL     1       2.592   3.498  20.523  0.00  0.00    +0.000 A 
ATOM     23  C   UNL     1       3.059   2.252  20.136  0.00  0.00    +0.000 A 
ATOM     24  C   UNL     1       3.602   2.117  18.876  0.00  0.00    +0.000 A 
ATOM     25  N   UNL     1       4.030   0.866  18.440  0.00  0.00    +0.000 N 
ATOM     26  N   UNL     1       3.797   3.162  18.051  0.00  0.00    +0.000 NA
ATOM     27  C   UNL     1       3.415   4.414  18.436  0.00  0.00    +0.000 A 
ATOM     28  H   UNL     1       3.332   0.148  18.602  0.00  0.00    +0.000 HD
ATOM     29  H   UNL     1       4.281   0.944  17.459  0.00  0.00    +0.000 HD
ENDBRANCH  16  17
ENDBRANCH   1  16
TORSDOF 7
ENDMDL
MODEL 6
REMARK VINA RESULT:      -7.3      1.086      1.877
REMARK  Name = 
REMARK  8 active torsions:
REMARK  status: ('A' for Active; 'I' for Inactive)
REMARK    1  A    between atoms: C_1  and  O_2
REMARK    2  A    between atoms: O_2  and  C_3
REMARK    3  A    between atoms: C_7  and  C_8
REMARK    4  A    between atoms: N_10  and  C_11
REMARK    5  A    between atoms: C_11  and  C_12
REMARK    6  A    between atoms: C_12  and  C_13
REMARK    7  A    between atoms: C_13  and  O_14
REMARK    8  A    between atoms: O_14  and  C_15
REMARK                            x       y       z     vdW  Elec       q    Type
REMARK                         _______ _______ _______ _____ _____    ______ ____
ROOT
ATOM      1  C   UNL     1       2.675   4.585  20.577  0.00  0.00    +0.000 C 
ENDROOT
BRANCH   1   2
ATOM      2  C   UNL     1       1.655   3.512  20.186  0.00  0.00    +0.000 C 
BRANCH   2   3
ATOM      3  C   UNL     1       2.250   2.487  19.227  0.00  0.00    +0.000 C 
BRANCH   3   6
ATOM      4  C   UNL     1       3.457   3.429  17.327  0.00  0.00    +0.000 C 
ATOM      5  O   UNL     1       2.450   3.418  16.628  0.00  0.00    +0.000 OA
ATOM      6  N   UNL     1       3.488   2.944  18.624  0.00  0.00    +0.000 N 
ATOM      7  H   UNL     1       4.232   3.261  19.231  0.00  0.00    +0.000 HD
BRANCH   4  12
ATOM      8  C   UNL     1       6.839   5.141  17.121  0.00  0.00    +0.000 A 
ATOM      9  C   UNL     1       7.072   5.056  15.746  0.00  0.00    +0.000 A 
ATOM     10  C   UNL     1       6.141   4.455  14.899  0.00  0.00    +0.000 A 
ATOM     11  C   UNL     1       4.963   3.935  15.428  0.00  0.00    +0.000 A 
ATOM     12  C   UNL     1       4.715   4.023  16.804  0.00  0.00    +0.000 A 
ATOM     13  C   UNL     1       5.659   4.618  17.654  0.00  0.00    +0.000 A 
BRANCH   8  15
ATOM     14  C   UNL     1       7.723   5.762  19.243  0.00  0.00    +0.000 C 
ATOM     15  O   UNL     1       7.839   5.751  17.827  0.00  0.00    +0.000 OA
ENDBRANCH   8  15
ENDBRANCH   4  12
ENDBRANCH   3   6
ENDBRANCH   2   3
ENDBRANCH   1   2
BRANCH   1  16
ATOM     16  O   UNL     1       1.958   5.716  21.057  0.00  0.00    +0.000 OA
BRANCH  16  17
ATOM     17  C   UNL     1       1.830   6.829  20.260  0.00  0.00    +0.000 A 
ATOM     18  C   UNL     1       2.450   6.618  19.014  0.00  0.00    +0.000 A 
ATOM     19  C   UNL     1       2.486   7.616  18.055  0.00  0.00    +0.000 A 
ATOM     20  C   UNL     1       1.937   8.854  18.358  0.00  0.00    +0.000 A 
ATOM     21  C   UNL     1       1.335   9.082  19.607  0.00  0.00    +0.000 A 
ATOM     22  C   UNL     1       0.863  10.362  19.905  0.00  0.00    +0.000 A 
ATOM     23  C   UNL     1       0.253  10.602  21.127  0.00  0.00    +0.000 A 
ATOM     24  C   UNL     1       0.066   9.539  21.985  0.00  0.00    +0.000 A 
ATOM     25  N   UNL     1      -0.593   9.740  23.197  0.00  0.00    +0.000 N 
ATOM     26  N   UNL     1       0.545   8.308  21.737  0.00  0.00    +0.000 NA
ATOM     27  C   UNL     1       1.217   8.060  20.575  0.00  0.00    +0.000 A 
ATOM     28  H   UNL     1      -1.458  10.255  23.077  0.00  0.00    +0.000 HD
ATOM     29  H   UNL     1      -0.740   8.832  23.628  0.00  0.00    +0.000 HD
ENDBRANCH  16  17
ENDBRANCH   1  16
TORSDOF 7
ENDMDL
MODEL 7
REMARK VINA RESULT:      -7.2      2.687      5.184
REMARK  Name = 
REMARK  8 active torsions:
REMARK  status: ('A' for Active; 'I' for Inactive)
REMARK    1  A    between atoms: C_1  and  O_2
REMARK    2  A    between atoms: O_2  and  C_3
REMARK    3  A    between atoms: C_7  and  C_8
REMARK    4  A    between atoms: N_10  and  C_11
REMARK    5  A    between atoms: C_11  and  C_12
REMARK    6  A    between atoms: C_12  and  C_13
REMARK    7  A    between atoms: C_13  and  O_14
REMARK    8  A    between atoms: O_14  and  C_15
REMARK                            x       y       z     vdW  Elec       q    Type
REMARK                         _______ _______ _______ _____ _____    ______ ____
ROOT
ATOM      1  C   UNL     1       6.113   5.303  19.341  0.00  0.00    +0.000 C 
ENDROOT
BRANCH   1   2
ATOM      2  C   UNL     1       7.441   5.821  18.780  0.00  0.00    +0.000 C 
BRANCH   2   3
ATOM      3  C   UNL     1       7.237   6.664  17.526  0.00  0.00    +0.000 C 
BRANCH   3   6
ATOM      4  C   UNL     1       6.237   5.635  15.552  0.00  0.00    +0.000 C 
ATOM      5  O   UNL     1       5.109   5.965  15.899  0.00  0.00    +0.000 OA
ATOM      6  N   UNL     1       7.370   5.888  16.308  0.00  0.00    +0.000 N 
ATOM      7  H   UNL     1       8.265   5.877  15.838  0.00  0.00    +0.000 HD
BRANCH   4  12
ATOM      8  C   UNL     1       5.736   3.459  12.482  0.00  0.00    +0.000 A 
ATOM      9  C   UNL     1       6.873   3.808  11.748  0.00  0.00    +0.000 A 
ATOM     10  C   UNL     1       7.790   4.733  12.246  0.00  0.00    +0.000 A 
ATOM     11  C   UNL     1       7.573   5.315  13.492  0.00  0.00    +0.000 A 
ATOM     12  C   UNL     1       6.442   4.966  14.241  0.00  0.00    +0.000 A 
ATOM     13  C   UNL     1       5.516   4.044  13.731  0.00  0.00    +0.000 A 
BRANCH   8  15
ATOM     14  C   UNL     1       3.952   3.042  10.961  0.00  0.00    +0.000 C 
ATOM     15  O   UNL     1       4.926   2.544  11.868  0.00  0.00    +0.000 OA
ENDBRANCH   8  15
ENDBRANCH   4  12
ENDBRANCH   3   6
ENDBRANCH   2   3
ENDBRANCH   1   2
BRANCH   1  16
ATOM     16  O   UNL     1       5.638   4.285  18.468  0.00  0.00    +0.000 OA
BRANCH  16  17
ATOM     17  C   UNL     1       4.466   3.630  18.762  0.00  0.00    +0.000 A 
ATOM     18  C   UNL     1       4.516   2.298  18.309  0.00  0.00    +0.000 A 
ATOM     19  C   UNL     1       3.432   1.450  18.457  0.00  0.00    +0.000 A 
ATOM     20  C   UNL     1       2.267   1.948  19.023  0.00  0.00    +0.000 A 
ATOM     21  C   UNL     1       2.199   3.282  19.460  0.00  0.00    +0.000 A 
ATOM     22  C   UNL     1       0.986   3.769  19.953  0.00  0.00    +0.000 A 
ATOM     23  C   UNL     1       0.904   5.078  20.402  0.00  0.00    +0.000 A 
ATOM     24  C   UNL     1       2.052   5.841  20.413  0.00  0.00    +0.000 A 
ATOM     25  N   UNL     1       2.011   7.143  20.909  0.00  0.00    +0.000 N 
ATOM     26  N   UNL     1       3.221   5.407  19.908  0.00  0.00    +0.000 NA
ATOM     27  C   UNL     1       3.313   4.147  19.390  0.00  0.00    +0.000 A 
ATOM     28  H   UNL     1       1.546   7.191  21.809  0.00  0.00    +0.000 HD
ATOM     29  H   UNL     1       2.963   7.494  20.948  0.00  0.00    +0.000 HD
ENDBRANCH  16  17
ENDBRANCH   1  16
TORSDOF 7
ENDMDL
MODEL 8
REMARK VINA RESULT:      -7.1      1.327      1.901
REMARK  Name = 
REMARK  8 active torsions:
REMARK  status: ('A' for Active; 'I' for Inactive)
REMARK    1  A    between atoms: C_1  and  O_2
REMARK    2  A    between atoms: O_2  and  C_3
REMARK    3  A    between atoms: C_7  and  C_8
REMARK    4  A    between atoms: N_10  and  C_11
REMARK    5  A    between atoms: C_11  and  C_12
REMARK    6  A    between atoms: C_12  and  C_13
REMARK    7  A    between atoms: C_13  and  O_14
REMARK    8  A    between atoms: O_14  and  C_15
REMARK                            x       y       z     vdW  Elec       q    Type
REMARK                         _______ _______ _______ _____ _____    ______ ____
ROOT
ATOM      1  C   UNL     1       2.338   5.706  20.669  0.00  0.00    +0.000 C 
ENDROOT
BRANCH   1   2
ATOM      2  C   UNL     1       1.383   4.527  20.459  0.00  0.00    +0.000 C 
BRANCH   2   3
ATOM      3  C   UNL     1       2.085   3.336  19.815  0.00  0.00    +0.000 C 
BRANCH   3   6
ATOM      4  C   UNL     1       3.164   3.815  17.680  0.00  0.00    +0.000 C 
ATOM      5  O   UNL     1       2.158   3.501  17.053  0.00  0.00    +0.000 OA
ATOM      6  N   UNL     1       3.259   3.728  19.059  0.00  0.00    +0.000 N 
ATOM      7  H   UNL     1       3.969   4.280  19.521  0.00  0.00    +0.000 HD
BRANCH   4  12
ATOM      8  C   UNL     1       5.964   6.111  16.541  0.00  0.00    +0.000 A 
ATOM      9  C   UNL     1       6.596   5.282  15.610  0.00  0.00    +0.000 A 
ATOM     10  C   UNL     1       6.115   3.998  15.354  0.00  0.00    +0.000 A 
ATOM     11  C   UNL     1       4.990   3.536  16.031  0.00  0.00    +0.000 A 
ATOM     12  C   UNL     1       4.343   4.362  16.960  0.00  0.00    +0.000 A 
ATOM     13  C   UNL     1       4.837   5.648  17.223  0.00  0.00    +0.000 A 
BRANCH   8  15
ATOM     14  C   UNL     1       7.630   7.438  17.607  0.00  0.00    +0.000 C 
ATOM     15  O   UNL     1       6.547   7.340  16.692  0.00  0.00    +0.000 OA
ENDBRANCH   8  15
ENDBRANCH   4  12
ENDBRANCH   3   6
ENDBRANCH   2   3
ENDBRANCH   1   2
BRANCH   1  16
ATOM     16  O   UNL     1       1.555   6.853  20.975  0.00  0.00    +0.000 OA
BRANCH  16  17
ATOM     17  C   UNL     1       1.514   7.905  20.091  0.00  0.00    +0.000 A 
ATOM     18  C   UNL     1       2.207   7.583  18.908  0.00  0.00    +0.000 A 
ATOM     19  C   UNL     1       2.337   8.503  17.882  0.00  0.00    +0.000 A 
ATOM     20  C   UNL     1       1.809   9.774  18.054  0.00  0.00    +0.000 A 
ATOM     21  C   UNL     1       1.134  10.113  19.240  0.00  0.00    +0.000 A 
ATOM     22  C   UNL     1       0.684  11.425  19.409  0.00  0.00    +0.000 A 
ATOM     23  C   UNL     1       0.004  11.773  20.565  0.00  0.00    +0.000 A 
ATOM     24  C   UNL     1      -0.272  10.785  21.487  0.00  0.00    +0.000 A 
ATOM     25  N   UNL     1      -1.001  11.096  22.633  0.00  0.00    +0.000 N 
ATOM     26  N   UNL     1       0.184   9.526  21.364  0.00  0.00    +0.000 NA
ATOM     27  C   UNL     1       0.921   9.172  20.271  0.00  0.00    +0.000 A 
ATOM     28  H   UNL     1      -1.840  11.622  22.418  0.00  0.00    +0.000 HD
ATOM     29  H   UNL     1      -1.204  10.228  23.120  0.00  0.00    +0.000 HD
ENDBRANCH  16  17
ENDBRANCH   1  16
TORSDOF 7
ENDMDL
MODEL 9
REMARK VINA RESULT:      -7.0      4.197      8.897
REMARK  Name = 
REMARK  8 active torsions:
REMARK  status: ('A' for Active; 'I' for Inactive)
REMARK    1  A    between atoms: C_1  and  O_2
REMARK    2  A    between atoms: O_2  and  C_3
REMARK    3  A    between atoms: C_7  and  C_8
REMARK    4  A    between atoms: N_10  and  C_11
REMARK    5  A    between atoms: C_11  and  C_12
REMARK    6  A    between atoms: C_12  and  C_13
REMARK    7  A    between atoms: C_13  and  O_14
REMARK    8  A    between atoms: O_14  and  C_15
REMARK                            x       y       z     vdW  Elec       q    Type
REMARK                         _______ _______ _______ _____ _____    ______ ____
ROOT
ATOM      1  C   UNL     1       1.876   8.278  17.756  0.00  0.00    +0.000 C 
ENDROOT
BRANCH   1   2
ATOM      2  C   UNL     1       2.413   9.704  17.906  0.00  0.00    +0.000 C 
BRANCH   2   3
ATOM      3  C   UNL     1       1.419  10.612  18.622  0.00  0.00    +0.000 C 
BRANCH   3   6
ATOM      4  C   UNL     1      -0.977  11.056  18.757  0.00  0.00    +0.000 C 
ATOM      5  O   UNL     1      -0.877  11.479  19.903  0.00  0.00    +0.000 OA
ATOM      6  N   UNL     1       0.093  10.553  18.035  0.00  0.00    +0.000 N 
ATOM      7  H   UNL     1       0.012  10.521  17.028  0.00  0.00    +0.000 HD
BRANCH   4  12
ATOM      8  C   UNL     1      -4.613  11.778  17.940  0.00  0.00    +0.000 A 
ATOM      9  C   UNL     1      -4.689  11.225  16.659  0.00  0.00    +0.000 A 
ATOM     10  C   UNL     1      -3.577  10.623  16.072  0.00  0.00    +0.000 A 
ATOM     11  C   UNL     1      -2.374  10.569  16.772  0.00  0.00    +0.000 A 
ATOM     12  C   UNL     1      -2.288  11.112  18.060  0.00  0.00    +0.000 A 
ATOM     13  C   UNL     1      -3.407  11.727  18.642  0.00  0.00    +0.000 A 
BRANCH   8  15
ATOM     14  C   UNL     1      -6.969  11.577  18.227  0.00  0.00    +0.000 C 
ATOM     15  O   UNL     1      -5.780  12.338  18.385  0.00  0.00    +0.000 OA
ENDBRANCH   8  15
ENDBRANCH   4  12
ENDBRANCH   3   6
ENDBRANCH   2   3
ENDBRANCH   1   2
BRANCH   1  16
ATOM     16  O   UNL     1       2.658   7.427  18.586  0.00  0.00    +0.000 OA
BRANCH  16  17
ATOM     17  C   UNL     1       3.186   6.269  18.068  0.00  0.00    +0.000 A 
ATOM     18  C   UNL     1       4.254   6.559  17.197  0.00  0.00    +0.000 A 
ATOM     19  C   UNL     1       4.920   5.551  16.521  0.00  0.00    +0.000 A 
ATOM     20  C   UNL     1       4.489   4.242  16.680  0.00  0.00    +0.000 A 
ATOM     21  C   UNL     1       3.410   3.944  17.531  0.00  0.00    +0.000 A 
ATOM     22  C   UNL     1       2.954   2.626  17.605  0.00  0.00    +0.000 A 
ATOM     23  C   UNL     1       1.901   2.310  18.449  0.00  0.00    +0.000 A 
ATOM     24  C   UNL     1       1.381   3.305  19.249  0.00  0.00    +0.000 A 
ATOM     25  N   UNL     1       0.358   3.005  20.146  0.00  0.00    +0.000 N 
ATOM     26  N   UNL     1       1.777   4.588  19.167  0.00  0.00    +0.000 NA
ATOM     27  C   UNL     1       2.761   4.942  18.289  0.00  0.00    +0.000 A 
ATOM     28  H   UNL     1       0.568   2.181  20.699  0.00  0.00    +0.000 HD
ATOM     29  H   UNL     1       0.196   3.826  20.723  0.00  0.00    +0.000 HD
ENDBRANCH  16  17
ENDBRANCH   1  16
TORSDOF 7
ENDMDL
