MODEL 1
REMARK VINA RESULT:      -7.1      0.000      0.000
REMARK  Name = 
REMARK  7 active torsions:
REMARK  status: ('A' for Active; 'I' for Inactive)
REMARK    1  A    between atoms: C_1  and  O_2
REMARK    2  A    between atoms: O_2  and  C_3
REMARK    3  A    between atoms: C_6  and  O_7
REMARK    4  A    between atoms: O_7  and  C_8
REMARK    5  A    between atoms: C_9  and  C_10
REMARK    6  A    between atoms: C_10  and  N_11
REMARK    7  A    between atoms: C_15  and  C_17
REMARK                            x       y       z     vdW  Elec       q    Type
REMARK                         _______ _______ _______ _____ _____    ______ ____
ROOT
ATOM      1  N   UNL     1       3.199   6.933  18.206  0.00  0.00    +0.000 NA
ATOM      2  C   UNL     1       2.958   8.309  17.740  0.00  0.00    +0.000 C 
ATOM      3  C   UNL     1       1.670   8.974  18.251  0.00  0.00    +0.000 C 
ATOM      4  N   UNL     1       1.375   8.810  19.677  0.00  0.00    +0.000 N 
ATOM      5  C   UNL     1       0.438   9.601  20.399  0.00  0.00    +0.000 C 
ATOM      6  O   UNL     1       0.075   9.311  21.531  0.00  0.00    +0.000 OA
ATOM      7  C   UNL     1       1.744   7.507  20.248  0.00  0.00    +0.000 C 
ATOM      8  C   UNL     1       3.066   6.934  19.682  0.00  0.00    +0.000 C 
ENDROOT
BRANCH   5   9
ATOM      9  C   UNL     1      -0.117  10.846  19.750  0.00  0.00    +0.000 A 
ATOM     10  C   UNL     1      -1.324  10.740  19.040  0.00  0.00    +0.000 A 
ATOM     11  C   UNL     1      -1.742  11.750  18.183  0.00  0.00    +0.000 A 
ATOM     12  C   UNL     1      -0.999  12.918  18.089  0.00  0.00    +0.000 A 
ATOM     13  C   UNL     1       0.127  13.121  18.898  0.00  0.00    +0.000 A 
ATOM     14  C   UNL     1       0.812  14.340  18.816  0.00  0.00    +0.000 A 
ATOM     15  C   UNL     1       1.881  14.621  19.660  0.00  0.00    +0.000 A 
ATOM     16  C   UNL     1       2.269  13.680  20.604  0.00  0.00    +0.000 A 
ATOM     17  C   UNL     1       1.640  12.430  20.653  0.00  0.00    +0.000 A 
ATOM     18  C   UNL     1       0.565  12.099  19.788  0.00  0.00    +0.000 A 
ENDBRANCH   5   9
BRANCH   1  19
ATOM     19  C   UNL     1       2.308   5.932  17.576  0.00  0.00    +0.000 C 
BRANCH  19  24
ATOM     20  C   UNL     1       1.950   2.595  19.449  0.00  0.00    +0.000 A 
ATOM     21  C   UNL     1       2.901   1.798  18.816  0.00  0.00    +0.000 A 
ATOM     22  C   UNL     1       3.655   2.324  17.767  0.00  0.00    +0.000 A 
ATOM     23  C   UNL     1       3.471   3.649  17.335  0.00  0.00    +0.000 A 
ATOM     24  C   UNL     1       2.519   4.472  17.966  0.00  0.00    +0.000 A 
ATOM     25  C   UNL     1       1.730   3.895  18.989  0.00  0.00    +0.000 A 
BRANCH  20  27
ATOM     26  C   UNL     1       1.581   2.574  21.780  0.00  0.00    +0.000 C 
ATOM     27  O   UNL     1       1.305   2.008  20.502  0.00  0.00    +0.000 OA
ENDBRANCH  20  27
BRANCH  23  28
ATOM     28  O   UNL     1       4.370   4.025  16.372  0.00  0.00    +0.000 OA
ATOM     29  C   UNL     1       5.683   4.364  16.801  0.00  0.00    +0.000 C 
ENDBRANCH  23  28
ENDBRANCH  19  24
ENDBRANCH   1  19
TORSDOF 5
ENDMDL
MODEL 2
REMARK VINA RESULT:      -7.0      0.854      2.465
REMARK  Name = 
REMARK  7 active torsions:
REMARK  status: ('A' for Active; 'I' for Inactive)
REMARK    1  A    between atoms: C_1  and  O_2
REMARK    2  A    between atoms: O_2  and  C_3
REMARK    3  A    between atoms: C_6  and  O_7
REMARK    4  A    between atoms: O_7  and  C_8
REMARK    5  A    between atoms: C_9  and  C_10
REMARK    6  A    between atoms: C_10  and  N_11
REMARK    7  A    between atoms: C_15  and  C_17
REMARK                            x       y       z     vdW  Elec       q    Type
REMARK                         _______ _______ _______ _____ _____    ______ ____
ROOT
ATOM      1  N   UNL     1       3.218   6.931  18.162  0.00  0.00    +0.000 NA
ATOM      2  C   UNL     1       2.948   8.314  17.735  0.00  0.00    +0.000 C 
ATOM      3  C   UNL     1       1.662   8.947  18.288  0.00  0.00    +0.000 C 
ATOM      4  N   UNL     1       1.397   8.743  19.715  0.00  0.00    +0.000 N 
ATOM      5  C   UNL     1       0.464   9.501  20.475  0.00  0.00    +0.000 C 
ATOM      6  O   UNL     1       0.127   9.177  21.606  0.00  0.00    +0.000 OA
ATOM      7  C   UNL     1       1.796   7.431  20.246  0.00  0.00    +0.000 C 
ATOM      8  C   UNL     1       3.115   6.892  19.640  0.00  0.00    +0.000 C 
ENDROOT
BRANCH   5   9
ATOM      9  C   UNL     1      -0.123  10.754  19.869  0.00  0.00    +0.000 A 
ATOM     10  C   UNL     1       0.483  11.983  20.176  0.00  0.00    +0.000 A 
ATOM     11  C   UNL     1      -0.158  13.185  19.905  0.00  0.00    +0.000 A 
ATOM     12  C   UNL     1      -1.378  13.175  19.245  0.00  0.00    +0.000 A 
ATOM     13  C   UNL     1      -1.939  11.975  18.788  0.00  0.00    +0.000 A 
ATOM     14  C   UNL     1      -3.142  12.016  18.072  0.00  0.00    +0.000 A 
ATOM     15  C   UNL     1      -3.690  10.862  17.523  0.00  0.00    +0.000 A 
ATOM     16  C   UNL     1      -3.030   9.651  17.681  0.00  0.00    +0.000 A 
ATOM     17  C   UNL     1      -1.863   9.582  18.452  0.00  0.00    +0.000 A 
ATOM     18  C   UNL     1      -1.291  10.734  19.050  0.00  0.00    +0.000 A 
ENDBRANCH   5   9
BRANCH   1  19
ATOM     19  C   UNL     1       2.329   5.932  17.524  0.00  0.00    +0.000 C 
BRANCH  19  24
ATOM     20  C   UNL     1       1.935   2.599  19.396  0.00  0.00    +0.000 A 
ATOM     21  C   UNL     1       2.891   1.798  18.777  0.00  0.00    +0.000 A 
ATOM     22  C   UNL     1       3.660   2.320  17.738  0.00  0.00    +0.000 A 
ATOM     23  C   UNL     1       3.487   3.644  17.301  0.00  0.00    +0.000 A 
ATOM     24  C   UNL     1       2.530   4.472  17.918  0.00  0.00    +0.000 A 
ATOM     25  C   UNL     1       1.725   3.899  18.932  0.00  0.00    +0.000 A 
BRANCH  20  27
ATOM     26  C   UNL     1       1.498   2.613  21.716  0.00  0.00    +0.000 C 
ATOM     27  O   UNL     1       1.273   2.016  20.442  0.00  0.00    +0.000 OA
ENDBRANCH  20  27
BRANCH  23  28
ATOM     28  O   UNL     1       4.401   4.015  16.349  0.00  0.00    +0.000 OA
ATOM     29  C   UNL     1       5.683   4.432  16.803  0.00  0.00    +0.000 C 
ENDBRANCH  23  28
ENDBRANCH  19  24
ENDBRANCH   1  19
TORSDOF 5
ENDMDL
MODEL 3
REMARK VINA RESULT:      -6.9      3.287      5.013
REMARK  Name = 
REMARK  7 active torsions:
REMARK  status: ('A' for Active; 'I' for Inactive)
REMARK    1  A    between atoms: C_1  and  O_2
REMARK    2  A    between atoms: O_2  and  C_3
REMARK    3  A    between atoms: C_6  and  O_7
REMARK    4  A    between atoms: O_7  and  C_8
REMARK    5  A    between atoms: C_9  and  C_10
REMARK    6  A    between atoms: C_10  and  N_11
REMARK    7  A    between atoms: C_15  and  C_17
REMARK                            x       y       z     vdW  Elec       q    Type
REMARK                         _______ _______ _______ _____ _____    ______ ____
ROOT
ATOM      1  N   UNL     1       1.116   9.705  18.215  0.00  0.00    +0.000 NA
ATOM      2  C   UNL     1      -0.341   9.764  18.008  0.00  0.00    +0.000 C 
ATOM      3  C   UNL     1      -1.147  10.455  19.119  0.00  0.00    +0.000 C 
ATOM      4  N   UNL     1      -0.606  11.718  19.627  0.00  0.00    +0.000 N 
ATOM      5  C   UNL     1      -1.347  12.658  20.395  0.00  0.00    +0.000 C 
ATOM      6  O   UNL     1      -0.813  13.601  20.965  0.00  0.00    +0.000 OA
ATOM      7  C   UNL     1       0.861  11.786  19.705  0.00  0.00    +0.000 C 
ATOM      8  C   UNL     1       1.577  11.078  18.529  0.00  0.00    +0.000 C 
ENDROOT
BRANCH   5   9
ATOM      9  C   UNL     1      -2.845  12.494  20.501  0.00  0.00    +0.000 A 
ATOM     10  C   UNL     1      -3.578  12.338  19.314  0.00  0.00    +0.000 A 
ATOM     11  C   UNL     1      -4.960  12.474  19.303  0.00  0.00    +0.000 A 
ATOM     12  C   UNL     1      -5.637  12.686  20.496  0.00  0.00    +0.000 A 
ATOM     13  C   UNL     1      -4.951  12.694  21.719  0.00  0.00    +0.000 A 
ATOM     14  C   UNL     1      -5.679  12.848  22.906  0.00  0.00    +0.000 A 
ATOM     15  C   UNL     1      -5.055  12.775  24.146  0.00  0.00    +0.000 A 
ATOM     16  C   UNL     1      -3.689  12.536  24.208  0.00  0.00    +0.000 A 
ATOM     17  C   UNL     1      -2.935  12.448  23.031  0.00  0.00    +0.000 A 
ATOM     18  C   UNL     1      -3.535  12.547  21.750  0.00  0.00    +0.000 A 
ENDBRANCH   5   9
BRANCH   1  19
ATOM     19  C   UNL     1       1.525   8.737  19.258  0.00  0.00    +0.000 C 
BRANCH  19  24
ATOM     20  C   UNL     1       4.119   6.753  17.231  0.00  0.00    +0.000 A 
ATOM     21  C   UNL     1       4.155   5.537  17.908  0.00  0.00    +0.000 A 
ATOM     22  C   UNL     1       3.356   5.351  19.036  0.00  0.00    +0.000 A 
ATOM     23  C   UNL     1       2.513   6.373  19.504  0.00  0.00    +0.000 A 
ATOM     24  C   UNL     1       2.457   7.608  18.830  0.00  0.00    +0.000 A 
ATOM     25  C   UNL     1       3.320   7.788  17.722  0.00  0.00    +0.000 A 
BRANCH  20  27
ATOM     26  C   UNL     1       5.426   5.574  15.658  0.00  0.00    +0.000 C 
ATOM     27  O   UNL     1       4.893   6.817  16.105  0.00  0.00    +0.000 OA
ENDBRANCH  20  27
BRANCH  23  28
ATOM     28  O   UNL     1       1.725   5.975  20.553  0.00  0.00    +0.000 OA
ATOM     29  C   UNL     1       1.334   4.608  20.594  0.00  0.00    +0.000 C 
ENDBRANCH  23  28
ENDBRANCH  19  24
ENDBRANCH   1  19
TORSDOF 5
ENDMDL
MODEL 4
REMARK VINA RESULT:      -6.8      2.377      8.649
REMARK  Name = 
REMARK  7 active torsions:
REMARK  status: ('A' for Active; 'I' for Inactive)
REMARK    1  A    between atoms: C_1  and  O_2
REMARK    2  A    between atoms: O_2  and  C_3
REMARK    3  A    between atoms: C_6  and  O_7
REMARK    4  A    between atoms: O_7  and  C_8
REMARK    5  A    between atoms: C_9  and  C_10
REMARK    6  A    between atoms: C_10  and  N_11
REMARK    7  A    between atoms: C_15  and  C_17
REMARK                            x       y       z     vdW  Elec       q    Type
REMARK                         _______ _______ _______ _____ _____    ______ ____
ROOT
ATOM      1  N   UNL     1       0.673   9.953  20.268  0.00  0.00    +0.000 NA
ATOM      2  C   UNL     1       1.555   8.951  20.889  0.00  0.00    +0.000 C 
ATOM      3  C   UNL     1       2.013   7.804  19.975  0.00  0.00    +0.000 C 
ATOM      4  N   UNL     1       2.458   8.180  18.630  0.00  0.00    +0.000 N 
ATOM      5  C   UNL     1       3.212   7.336  17.768  0.00  0.00    +0.000 C 
ATOM      6  O   UNL     1       3.396   7.605  16.589  0.00  0.00    +0.000 OA
ATOM      7  C   UNL     1       1.718   9.291  18.013  0.00  0.00    +0.000 C 
ATOM      8  C   UNL     1       1.323  10.404  19.014  0.00  0.00    +0.000 C 
ENDROOT
BRANCH   5   9
ATOM      9  C   UNL     1       3.816   6.072  18.332  0.00  0.00    +0.000 A 
ATOM     10  C   UNL     1       5.130   6.130  18.826  0.00  0.00    +0.000 A 
ATOM     11  C   UNL     1       5.850   4.971  19.084  0.00  0.00    +0.000 A 
ATOM     12  C   UNL     1       5.236   3.736  18.932  0.00  0.00    +0.000 A 
ATOM     13  C   UNL     1       3.880   3.645  18.588  0.00  0.00    +0.000 A 
ATOM     14  C   UNL     1       3.283   2.381  18.505  0.00  0.00    +0.000 A 
ATOM     15  C   UNL     1       1.922   2.245  18.254  0.00  0.00    +0.000 A 
ATOM     16  C   UNL     1       1.142   3.381  18.091  0.00  0.00    +0.000 A 
ATOM     17  C   UNL     1       1.735   4.650  18.103  0.00  0.00    +0.000 A 
ATOM     18  C   UNL     1       3.124   4.824  18.328  0.00  0.00    +0.000 A 
ENDBRANCH   5   9
BRANCH   1  19
ATOM     19  C   UNL     1      -0.702   9.459  20.025  0.00  0.00    +0.000 C 
BRANCH  19  24
ATOM     20  C   UNL     1      -2.480  10.120  16.682  0.00  0.00    +0.000 A 
ATOM     21  C   UNL     1      -2.935  11.426  16.843  0.00  0.00    +0.000 A 
ATOM     22  C   UNL     1      -2.689  12.100  18.039  0.00  0.00    +0.000 A 
ATOM     23  C   UNL     1      -1.987  11.483  19.089  0.00  0.00    +0.000 A 
ATOM     24  C   UNL     1      -1.513  10.165  18.943  0.00  0.00    +0.000 A 
ATOM     25  C   UNL     1      -1.826   9.486  17.742  0.00  0.00    +0.000 A 
BRANCH  20  27
ATOM     26  C   UNL     1      -3.410  10.402  14.531  0.00  0.00    +0.000 C 
ATOM     27  O   UNL     1      -2.720   9.565  15.455  0.00  0.00    +0.000 OA
ENDBRANCH  20  27
BRANCH  23  28
ATOM     28  O   UNL     1      -1.745  12.330  20.138  0.00  0.00    +0.000 OA
ATOM     29  C   UNL     1      -1.145  13.585  19.840  0.00  0.00    +0.000 C 
ENDBRANCH  23  28
ENDBRANCH  19  24
ENDBRANCH   1  19
TORSDOF 5
ENDMDL
MODEL 5
REMARK VINA RESULT:      -6.7      2.378      8.984
REMARK  Name = 
REMARK  7 active torsions:
REMARK  status: ('A' for Active; 'I' for Inactive)
REMARK    1  A    between atoms: C_1  and  O_2
REMARK    2  A    between atoms: O_2  and  C_3
REMARK    3  A    between atoms: C_6  and  O_7
REMARK    4  A    between atoms: O_7  and  C_8
REMARK    5  A    between atoms: C_9  and  C_10
REMARK    6  A    between atoms: C_10  and  N_11
REMARK    7  A    between atoms: C_15  and  C_17
REMARK                            x       y       z     vdW  Elec       q    Type
REMARK                         _______ _______ _______ _____ _____    ______ ____
ROOT
ATOM      1  N   UNL     1       0.903  10.230  18.948  0.00  0.00    +0.000 NA
ATOM      2  C   UNL     1       1.033   9.300  17.814  0.00  0.00    +0.000 C 
ATOM      3  C   UNL     1       2.014   8.134  18.013  0.00  0.00    +0.000 C 
ATOM      4  N   UNL     1       1.946   7.437  19.300  0.00  0.00    +0.000 N 
ATOM      5  C   UNL     1       2.518   6.160  19.553  0.00  0.00    +0.000 C 
ATOM      6  O   UNL     1       2.612   5.699  20.683  0.00  0.00    +0.000 OA
ATOM      7  C   UNL     1       1.656   8.291  20.461  0.00  0.00    +0.000 C 
ATOM      8  C   UNL     1       0.640   9.421  20.161  0.00  0.00    +0.000 C 
ENDROOT
BRANCH   5   9
ATOM      9  C   UNL     1       3.015   5.340  18.386  0.00  0.00    +0.000 A 
ATOM     10  C   UNL     1       2.165   4.354  17.860  0.00  0.00    +0.000 A 
ATOM     11  C   UNL     1       2.647   3.378  16.998  0.00  0.00    +0.000 A 
ATOM     12  C   UNL     1       3.971   3.424  16.584  0.00  0.00    +0.000 A 
ATOM     13  C   UNL     1       4.807   4.481  16.968  0.00  0.00    +0.000 A 
ATOM     14  C   UNL     1       6.119   4.524  16.477  0.00  0.00    +0.000 A 
ATOM     15  C   UNL     1       6.956   5.597  16.759  0.00  0.00    +0.000 A 
ATOM     16  C   UNL     1       6.482   6.647  17.533  0.00  0.00    +0.000 A 
ATOM     17  C   UNL     1       5.198   6.588  18.088  0.00  0.00    +0.000 A 
ATOM     18  C   UNL     1       4.327   5.496  17.845  0.00  0.00    +0.000 A 
ENDBRANCH   5   9
BRANCH   1  19
ATOM     19  C   UNL     1       2.079  11.114  19.123  0.00  0.00    +0.000 C 
BRANCH  19  24
ATOM     20  C   UNL     1       2.678  14.780  18.138  0.00  0.00    +0.000 A 
ATOM     21  C   UNL     1       1.559  15.415  18.670  0.00  0.00    +0.000 A 
ATOM     22  C   UNL     1       0.591  14.664  19.337  0.00  0.00    +0.000 A 
ATOM     23  C   UNL     1       0.724  13.273  19.481  0.00  0.00    +0.000 A 
ATOM     24  C   UNL     1       1.852  12.613  18.955  0.00  0.00    +0.000 A 
ATOM     25  C   UNL     1       2.790  13.391  18.236  0.00  0.00    +0.000 A 
BRANCH  20  27
ATOM     26  C   UNL     1       4.961  15.269  17.791  0.00  0.00    +0.000 C 
ATOM     27  O   UNL     1       3.598  15.608  17.556  0.00  0.00    +0.000 OA
ENDBRANCH  20  27
BRANCH  23  28
ATOM     28  O   UNL     1      -0.263  12.720  20.255  0.00  0.00    +0.000 OA
ATOM     29  C   UNL     1      -0.122  12.826  21.666  0.00  0.00    +0.000 C 
ENDBRANCH  23  28
ENDBRANCH  19  24
ENDBRANCH   1  19
TORSDOF 5
ENDMDL
MODEL 6
REMARK VINA RESULT:      -6.7      2.305      9.334
REMARK  Name = 
REMARK  7 active torsions:
REMARK  status: ('A' for Active; 'I' for Inactive)
REMARK    1  A    between atoms: C_1  and  O_2
REMARK    2  A    between atoms: O_2  and  C_3
REMARK    3  A    between atoms: C_6  and  O_7
REMARK    4  A    between atoms: O_7  and  C_8
REMARK    5  A    between atoms: C_9  and  C_10
REMARK    6  A    between atoms: C_10  and  N_11
REMARK    7  A    between atoms: C_15  and  C_17
REMARK                            x       y       z     vdW  Elec       q    Type
REMARK                         _______ _______ _______ _____ _____    ______ ____
ROOT
ATOM      1  N   UNL     1       0.050  11.305  18.735  0.00  0.00    +0.000 NA
ATOM      2  C   UNL     1       0.301  10.143  17.867  0.00  0.00    +0.000 C 
ATOM      3  C   UNL     1       1.334   9.130  18.385  0.00  0.00    +0.000 C 
ATOM      4  N   UNL     1       1.227   8.756  19.798  0.00  0.00    +0.000 N 
ATOM      5  C   UNL     1       1.855   7.619  20.378  0.00  0.00    +0.000 C 
ATOM      6  O   UNL     1       1.906   7.448  21.589  0.00  0.00    +0.000 OA
ATOM      7  C   UNL     1       0.818   9.839  20.704  0.00  0.00    +0.000 C 
ATOM      8  C   UNL     1      -0.240  10.791  20.095  0.00  0.00    +0.000 C 
ENDROOT
BRANCH   5   9
ATOM      9  C   UNL     1       2.470   6.583  19.467  0.00  0.00    +0.000 A 
ATOM     10  C   UNL     1       3.502   6.987  18.606  0.00  0.00    +0.000 A 
ATOM     11  C   UNL     1       3.911   6.184  17.550  0.00  0.00    +0.000 A 
ATOM     12  C   UNL     1       3.348   4.925  17.390  0.00  0.00    +0.000 A 
ATOM     13  C   UNL     1       2.426   4.428  18.320  0.00  0.00    +0.000 A 
ATOM     14  C   UNL     1       1.928   3.129  18.157  0.00  0.00    +0.000 A 
ATOM     15  C   UNL     1       1.080   2.560  19.100  0.00  0.00    +0.000 A 
ATOM     16  C   UNL     1       0.726   3.291  20.227  0.00  0.00    +0.000 A 
ATOM     17  C   UNL     1       1.158   4.615  20.371  0.00  0.00    +0.000 A 
ATOM     18  C   UNL     1       2.002   5.235  19.415  0.00  0.00    +0.000 A 
ENDBRANCH   5   9
BRANCH   1  19
ATOM     19  C   UNL     1       1.160  12.285  18.745  0.00  0.00    +0.000 C 
BRANCH  19  24
ATOM     20  C   UNL     1      -0.285  15.795  19.349  0.00  0.00    +0.000 A 
ATOM     21  C   UNL     1       0.384  16.195  20.503  0.00  0.00    +0.000 A 
ATOM     22  C   UNL     1       1.295  15.329  21.108  0.00  0.00    +0.000 A 
ATOM     23  C   UNL     1       1.550  14.055  20.573  0.00  0.00    +0.000 A 
ATOM     24  C   UNL     1       0.889  13.634  19.403  0.00  0.00    +0.000 A 
ATOM     25  C   UNL     1      -0.071  14.511  18.843  0.00  0.00    +0.000 A 
BRANCH  20  27
ATOM     26  C   UNL     1      -0.535  17.526  17.764  0.00  0.00    +0.000 C 
ATOM     27  O   UNL     1      -1.112  16.735  18.799  0.00  0.00    +0.000 OA
ENDBRANCH  20  27
BRANCH  23  28
ATOM     28  O   UNL     1       2.550  13.390  21.234  0.00  0.00    +0.000 OA
ATOM     29  C   UNL     1       3.771  14.088  21.443  0.00  0.00    +0.000 C 
ENDBRANCH  23  28
ENDBRANCH  19  24
ENDBRANCH   1  19
TORSDOF 5
ENDMDL
MODEL 7
REMARK VINA RESULT:      -6.7      2.294      4.330
REMARK  Name = 
REMARK  7 active torsions:
REMARK  status: ('A' for Active; 'I' for Inactive)
REMARK    1  A    between atoms: C_1  and  O_2
REMARK    2  A    between atoms: O_2  and  C_3
REMARK    3  A    between atoms: C_6  and  O_7
REMARK    4  A    between atoms: O_7  and  C_8
REMARK    5  A    between atoms: C_9  and  C_10
REMARK    6  A    between atoms: C_10  and  N_11
REMARK    7  A    between atoms: C_15  and  C_17
REMARK                            x       y       z     vdW  Elec       q    Type
REMARK                         _______ _______ _______ _____ _____    ______ ____
ROOT
ATOM      1  N   UNL     1       2.659   5.388  19.207  0.00  0.00    +0.000 NA
ATOM      2  C   UNL     1       1.738   5.750  20.297  0.00  0.00    +0.000 C 
ATOM      3  C   UNL     1       1.656   7.246  20.637  0.00  0.00    +0.000 C 
ATOM      4  N   UNL     1       1.565   8.168  19.502  0.00  0.00    +0.000 N 
ATOM      5  C   UNL     1       1.157   9.527  19.602  0.00  0.00    +0.000 C 
ATOM      6  O   UNL     1       1.280  10.315  18.674  0.00  0.00    +0.000 OA
ATOM      7  C   UNL     1       2.338   7.779  18.314  0.00  0.00    +0.000 C 
ATOM      8  C   UNL     1       2.339   6.253  18.047  0.00  0.00    +0.000 C 
ENDROOT
BRANCH   5   9
ATOM      9  C   UNL     1       0.541  10.010  20.894  0.00  0.00    +0.000 A 
ATOM     10  C   UNL     1       0.896   9.352  22.082  0.00  0.00    +0.000 A 
ATOM     11  C   UNL     1       0.166   9.536  23.249  0.00  0.00    +0.000 A 
ATOM     12  C   UNL     1      -0.881  10.448  23.264  0.00  0.00    +0.000 A 
ATOM     13  C   UNL     1      -1.165  11.234  22.140  0.00  0.00    +0.000 A 
ATOM     14  C   UNL     1      -2.189  12.186  22.217  0.00  0.00    +0.000 A 
ATOM     15  C   UNL     1      -2.449  13.048  21.158  0.00  0.00    +0.000 A 
ATOM     16  C   UNL     1      -1.675  12.969  20.008  0.00  0.00    +0.000 A 
ATOM     17  C   UNL     1      -0.693  11.978  19.888  0.00  0.00    +0.000 A 
ATOM     18  C   UNL     1      -0.420  11.064  20.937  0.00  0.00    +0.000 A 
ENDBRANCH   5   9
BRANCH   1  19
ATOM     19  C   UNL     1       4.088   5.486  19.586  0.00  0.00    +0.000 C 
BRANCH  19  24
ATOM     20  C   UNL     1       6.876   6.427  17.113  0.00  0.00    +0.000 A 
ATOM     21  C   UNL     1       6.987   5.273  16.342  0.00  0.00    +0.000 A 
ATOM     22  C   UNL     1       6.177   4.173  16.623  0.00  0.00    +0.000 A 
ATOM     23  C   UNL     1       5.246   4.208  17.676  0.00  0.00    +0.000 A 
ATOM     24  C   UNL     1       5.114   5.368  18.463  0.00  0.00    +0.000 A 
ATOM     25  C   UNL     1       5.988   6.447  18.191  0.00  0.00    +0.000 A 
BRANCH  20  27
ATOM     26  C   UNL     1       8.024   8.387  17.753  0.00  0.00    +0.000 C 
ATOM     27  O   UNL     1       7.670   7.469  16.723  0.00  0.00    +0.000 OA
ENDBRANCH  20  27
BRANCH  23  28
ATOM     28  O   UNL     1       4.465   3.084  17.734  0.00  0.00    +0.000 OA
ATOM     29  C   UNL     1       3.319   3.040  16.892  0.00  0.00    +0.000 C 
ENDBRANCH  23  28
ENDBRANCH  19  24
ENDBRANCH   1  19
TORSDOF 5
ENDMDL
MODEL 8
REMARK VINA RESULT:      -6.6      2.166      4.068
REMARK  Name = 
REMARK  7 active torsions:
REMARK  status: ('A' for Active; 'I' for Inactive)
REMARK    1  A    between atoms: C_1  and  O_2
REMARK    2  A    between atoms: O_2  and  C_3
REMARK    3  A    between atoms: C_6  and  O_7
REMARK    4  A    between atoms: O_7  and  C_8
REMARK    5  A    between atoms: C_9  and  C_10
REMARK    6  A    between atoms: C_10  and  N_11
REMARK    7  A    between atoms: C_15  and  C_17
REMARK                            x       y       z     vdW  Elec       q    Type
REMARK                         _______ _______ _______ _____ _____    ______ ____
ROOT
ATOM      1  N   UNL     1       2.661   5.365  19.204  0.00  0.00    +0.000 NA
ATOM      2  C   UNL     1       1.781   5.755  20.318  0.00  0.00    +0.000 C 
ATOM      3  C   UNL     1       1.703   7.261  20.615  0.00  0.00    +0.000 C 
ATOM      4  N   UNL     1       1.560   8.146  19.457  0.00  0.00    +0.000 N 
ATOM      5  C   UNL     1       1.147   9.506  19.531  0.00  0.00    +0.000 C 
ATOM      6  O   UNL     1       1.228  10.266  18.574  0.00  0.00    +0.000 OA
ATOM      7  C   UNL     1       2.288   7.725  18.251  0.00  0.00    +0.000 C 
ATOM      8  C   UNL     1       2.289   6.192  18.031  0.00  0.00    +0.000 C 
ENDROOT
BRANCH   5   9
ATOM      9  C   UNL     1       0.580  10.025  20.831  0.00  0.00    +0.000 A 
ATOM     10  C   UNL     1       0.100   9.091  21.763  0.00  0.00    +0.000 A 
ATOM     11  C   UNL     1      -0.691   9.488  22.833  0.00  0.00    +0.000 A 
ATOM     12  C   UNL     1      -0.944  10.838  23.033  0.00  0.00    +0.000 A 
ATOM     13  C   UNL     1      -0.355  11.808  22.211  0.00  0.00    +0.000 A 
ATOM     14  C   UNL     1      -0.586  13.163  22.485  0.00  0.00    +0.000 A 
ATOM     15  C   UNL     1       0.046  14.161  21.753  0.00  0.00    +0.000 A 
ATOM     16  C   UNL     1       0.926  13.810  20.739  0.00  0.00    +0.000 A 
ATOM     17  C   UNL     1       1.116  12.463  20.407  0.00  0.00    +0.000 A 
ATOM     18  C   UNL     1       0.466  11.419  21.114  0.00  0.00    +0.000 A 
ENDBRANCH   5   9
BRANCH   1  19
ATOM     19  C   UNL     1       4.102   5.482  19.522  0.00  0.00    +0.000 C 
BRANCH  19  24
ATOM     20  C   UNL     1       6.906   6.265  17.012  0.00  0.00    +0.000 A 
ATOM     21  C   UNL     1       6.888   5.142  16.190  0.00  0.00    +0.000 A 
ATOM     22  C   UNL     1       5.983   4.112  16.447  0.00  0.00    +0.000 A 
ATOM     23  C   UNL     1       5.086   4.188  17.526  0.00  0.00    +0.000 A 
ATOM     24  C   UNL     1       5.084   5.318  18.366  0.00  0.00    +0.000 A 
ATOM     25  C   UNL     1       6.051   6.321  18.115  0.00  0.00    +0.000 A 
BRANCH  20  27
ATOM     26  C   UNL     1       8.016   8.259  17.618  0.00  0.00    +0.000 C 
ATOM     27  O   UNL     1       7.787   7.244  16.644  0.00  0.00    +0.000 OA
ENDBRANCH  20  27
BRANCH  23  28
ATOM     28  O   UNL     1       4.202   3.141  17.559  0.00  0.00    +0.000 OA
ATOM     29  C   UNL     1       4.242   2.288  18.696  0.00  0.00    +0.000 C 
ENDBRANCH  23  28
ENDBRANCH  19  24
ENDBRANCH   1  19
TORSDOF 5
ENDMDL
MODEL 9
REMARK VINA RESULT:      -6.6      2.635      8.817
REMARK  Name = 
REMARK  7 active torsions:
REMARK  status: ('A' for Active; 'I' for Inactive)
REMARK    1  A    between atoms: C_1  and  O_2
REMARK    2  A    between atoms: O_2  and  C_3
REMARK    3  A    between atoms: C_6  and  O_7
REMARK    4  A    between atoms: O_7  and  C_8
REMARK    5  A    between atoms: C_9  and  C_10
REMARK    6  A    between atoms: C_10  and  N_11
REMARK    7  A    between atoms: C_15  and  C_17
REMARK                            x       y       z     vdW  Elec       q    Type
REMARK                         _______ _______ _______ _____ _____    ______ ____
ROOT
ATOM      1  N   UNL     1       0.934   9.936  19.262  0.00  0.00    +0.000 NA
ATOM      2  C   UNL     1       1.486   8.902  20.153  0.00  0.00    +0.000 C 
ATOM      3  C   UNL     1       2.016   7.636  19.462  0.00  0.00    +0.000 C 
ATOM      4  N   UNL     1       2.842   7.842  18.269  0.00  0.00    +0.000 N 
ATOM      5  C   UNL     1       3.681   6.849  17.692  0.00  0.00    +0.000 C 
ATOM      6  O   UNL     1       4.200   6.991  16.592  0.00  0.00    +0.000 OA
ATOM      7  C   UNL     1       2.439   8.968  17.415  0.00  0.00    +0.000 C 
ATOM      8  C   UNL     1       1.941  10.201  18.208  0.00  0.00    +0.000 C 
ENDROOT
BRANCH   5   9
ATOM      9  C   UNL     1       3.949   5.581  18.467  0.00  0.00    +0.000 A 
ATOM     10  C   UNL     1       5.189   5.450  19.112  0.00  0.00    +0.000 A 
ATOM     11  C   UNL     1       5.622   4.219  19.589  0.00  0.00    +0.000 A 
ATOM     12  C   UNL     1       4.783   3.118  19.502  0.00  0.00    +0.000 A 
ATOM     13  C   UNL     1       3.480   3.246  19.003  0.00  0.00    +0.000 A 
ATOM     14  C   UNL     1       2.643   2.122  18.990  0.00  0.00    +0.000 A 
ATOM     15  C   UNL     1       1.316   2.219  18.588  0.00  0.00    +0.000 A 
ATOM     16  C   UNL     1       0.810   3.452  18.199  0.00  0.00    +0.000 A 
ATOM     17  C   UNL     1       1.650   4.571  18.141  0.00  0.00    +0.000 A 
ATOM     18  C   UNL     1       3.016   4.502  18.518  0.00  0.00    +0.000 A 
ENDBRANCH   5   9
BRANCH   1  19
ATOM     19  C   UNL     1      -0.382   9.575  18.685  0.00  0.00    +0.000 C 
BRANCH  19  24
ATOM     20  C   UNL     1      -2.563  12.322  20.255  0.00  0.00    +0.000 A 
ATOM     21  C   UNL     1      -3.636  12.389  19.370  0.00  0.00    +0.000 A 
ATOM     22  C   UNL     1      -3.658  11.561  18.248  0.00  0.00    +0.000 A 
ATOM     23  C   UNL     1      -2.612  10.657  17.993  0.00  0.00    +0.000 A 
ATOM     24  C   UNL     1      -1.521  10.570  18.879  0.00  0.00    +0.000 A 
ATOM     25  C   UNL     1      -1.499  11.461  19.978  0.00  0.00    +0.000 A 
BRANCH  20  27
ATOM     26  C   UNL     1      -2.254  12.540  22.585  0.00  0.00    +0.000 C 
ATOM     27  O   UNL     1      -2.662  13.130  21.354  0.00  0.00    +0.000 OA
ENDBRANCH  20  27
BRANCH  23  28
ATOM     28  O   UNL     1      -2.856   9.852  16.911  0.00  0.00    +0.000 OA
ATOM     29  C   UNL     1      -3.319  10.479  15.721  0.00  0.00    +0.000 C 
ENDBRANCH  23  28
ENDBRANCH  19  24
ENDBRANCH   1  19
TORSDOF 5
ENDMDL
