MODEL 1
REMARK VINA RESULT:      -8.6      0.000      0.000
REMARK  Name = 
REMARK  5 active torsions:
REMARK  status: ('A' for Active; 'I' for Inactive)
REMARK    1  A    between atoms: C_2  and  C_3
REMARK    2  A    between atoms: C_2  and  C_15
REMARK    3  A    between atoms: C_8  and  C_9
REMARK    4  A    between atoms: N_18  and  C_19
REMARK    5  A    between atoms: C_19  and  C_20
REMARK                            x       y       z     vdW  Elec       q    Type
REMARK                         _______ _______ _______ _____ _____    ______ ____
ROOT
ATOM      1  C   UNL     1      -0.545   9.858  21.413  0.00  0.00    +0.000 C 
ATOM      2  C   UNL     1      -0.008   9.222  22.692  0.00  0.00    +0.000 C 
ATOM      3  C   UNL     1       1.467   9.048  22.396  0.00  0.00    +0.000 C 
ATOM      4  N   UNL     1       1.513   8.611  20.998  0.00  0.00    +0.000 NA
ATOM      5  C   UNL     1       0.479   9.448  20.332  0.00  0.00    +0.000 C 
ENDROOT
BRANCH   1   7
ATOM      6  O   UNL     1      -1.268  11.895  22.534  0.00  0.00    +0.000 OA
ATOM      7  C   UNL     1      -0.745  11.382  21.550  0.00  0.00    +0.000 C 
BRANCH   7   8
ATOM      8  C   UNL     1      -0.159  12.269  20.486  0.00  0.00    +0.000 A 
ATOM      9  C   UNL     1       1.036  12.942  20.842  0.00  0.00    +0.000 A 
ATOM     10  C   UNL     1       1.687  13.786  19.953  0.00  0.00    +0.000 A 
ATOM     11  C   UNL     1       1.144  13.985  18.691  0.00  0.00    +0.000 A 
ATOM     12  C   UNL     1      -0.033  13.330  18.326  0.00  0.00    +0.000 A 
ATOM     13  C   UNL     1      -0.735  12.460  19.201  0.00  0.00    +0.000 A 
BRANCH  13  14
ATOM     14  C   UNL     1      -1.969  11.800  18.681  0.00  0.00    +0.000 A 
ATOM     15  C   UNL     1      -3.258  12.185  19.079  0.00  0.00    +0.000 A 
ATOM     16  C   UNL     1      -4.408  11.542  18.601  0.00  0.00    +0.000 A 
ATOM     17  C   UNL     1      -4.296  10.459  17.738  0.00  0.00    +0.000 A 
ATOM     18  C   UNL     1      -3.036  10.027  17.346  0.00  0.00    +0.000 A 
ATOM     19  C   UNL     1      -1.892  10.698  17.801  0.00  0.00    +0.000 A 
ENDBRANCH  13  14
ENDBRANCH   7   8
ENDBRANCH   1   7
BRANCH   4  20
ATOM     20  C   UNL     1       1.217   7.174  20.840  0.00  0.00    +0.000 C 
BRANCH  20  21
ATOM     21  C   UNL     1       2.226   6.400  20.012  0.00  0.00    +0.000 A 
ATOM     22  C   UNL     1       2.356   5.017  20.200  0.00  0.00    +0.000 A 
ATOM     23  C   UNL     1       3.118   4.249  19.320  0.00  0.00    +0.000 A 
ATOM     24  C   UNL     1       3.754   4.850  18.231  0.00  0.00    +0.000 A 
ATOM     25  C   UNL     1       4.315   4.076  17.209  0.00  0.00    +0.000 A 
ATOM     26  C   UNL     1       4.918   4.696  16.122  0.00  0.00    +0.000 A 
ATOM     27  F   UNL     1       5.307   3.956  15.076  0.00  0.00    +0.000 F 
ATOM     28  C   UNL     1       5.088   6.073  16.089  0.00  0.00    +0.000 A 
ATOM     29  C   UNL     1       4.524   6.857  17.097  0.00  0.00    +0.000 A 
ATOM     30  C   UNL     1       3.778   6.263  18.129  0.00  0.00    +0.000 A 
ATOM     31  C   UNL     1       3.000   7.025  19.023  0.00  0.00    +0.000 A 
ENDBRANCH  20  21
ENDBRANCH   4  20
TORSDOF 5
ENDMDL
MODEL 2
REMARK VINA RESULT:      -8.4      1.946      3.697
REMARK  Name = 
REMARK  5 active torsions:
REMARK  status: ('A' for Active; 'I' for Inactive)
REMARK    1  A    between atoms: C_2  and  C_3
REMARK    2  A    between atoms: C_2  and  C_15
REMARK    3  A    between atoms: C_8  and  C_9
REMARK    4  A    between atoms: N_18  and  C_19
REMARK    5  A    between atoms: C_19  and  C_20
REMARK                            x       y       z     vdW  Elec       q    Type
REMARK                         _______ _______ _______ _____ _____    ______ ____
ROOT
ATOM      1  C   UNL     1      -1.181  11.140  20.553  0.00  0.00    +0.000 C 
ATOM      2  C   UNL     1      -0.180  11.658  21.582  0.00  0.00    +0.000 C 
ATOM      3  C   UNL     1       1.146  11.538  20.861  0.00  0.00    +0.000 C 
ATOM      4  N   UNL     1       1.061  10.263  20.142  0.00  0.00    +0.000 NA
ATOM      5  C   UNL     1      -0.334  10.244  19.624  0.00  0.00    +0.000 C 
ENDROOT
BRANCH   1   7
ATOM      6  O   UNL     1      -1.346  13.113  19.133  0.00  0.00    +0.000 OA
ATOM      7  C   UNL     1      -1.925  12.281  19.827  0.00  0.00    +0.000 C 
BRANCH   7   8
ATOM      8  C   UNL     1      -3.428  12.287  19.878  0.00  0.00    +0.000 A 
ATOM      9  C   UNL     1      -3.997  12.883  21.030  0.00  0.00    +0.000 A 
ATOM     10  C   UNL     1      -5.372  12.963  21.203  0.00  0.00    +0.000 A 
ATOM     11  C   UNL     1      -6.206  12.433  20.228  0.00  0.00    +0.000 A 
ATOM     12  C   UNL     1      -5.661  11.842  19.088  0.00  0.00    +0.000 A 
ATOM     13  C   UNL     1      -4.262  11.735  18.869  0.00  0.00    +0.000 A 
BRANCH  13  14
ATOM     14  C   UNL     1      -3.805  11.104  17.595  0.00  0.00    +0.000 A 
ATOM     15  C   UNL     1      -4.190  11.580  16.333  0.00  0.00    +0.000 A 
ATOM     16  C   UNL     1      -3.773  10.964  15.146  0.00  0.00    +0.000 A 
ATOM     17  C   UNL     1      -2.987   9.820  15.190  0.00  0.00    +0.000 A 
ATOM     18  C   UNL     1      -2.609   9.299  16.421  0.00  0.00    +0.000 A 
ATOM     19  C   UNL     1      -3.002   9.941  17.604  0.00  0.00    +0.000 A 
ENDBRANCH  13  14
ENDBRANCH   7   8
ENDBRANCH   1   7
BRANCH   4  20
ATOM     20  C   UNL     1       1.322   9.100  21.012  0.00  0.00    +0.000 C 
BRANCH  20  21
ATOM     21  C   UNL     1       1.610   7.804  20.277  0.00  0.00    +0.000 A 
ATOM     22  C   UNL     1       2.268   7.844  19.041  0.00  0.00    +0.000 A 
ATOM     23  C   UNL     1       2.729   6.672  18.443  0.00  0.00    +0.000 A 
ATOM     24  C   UNL     1       2.547   5.440  19.077  0.00  0.00    +0.000 A 
ATOM     25  C   UNL     1       3.207   4.292  18.621  0.00  0.00    +0.000 A 
ATOM     26  C   UNL     1       3.033   3.085  19.284  0.00  0.00    +0.000 A 
ATOM     27  F   UNL     1       3.788   2.033  18.942  0.00  0.00    +0.000 F 
ATOM     28  C   UNL     1       2.115   2.963  20.318  0.00  0.00    +0.000 A 
ATOM     29  C   UNL     1       1.459   4.102  20.790  0.00  0.00    +0.000 A 
ATOM     30  C   UNL     1       1.733   5.363  20.233  0.00  0.00    +0.000 A 
ATOM     31  C   UNL     1       1.278   6.556  20.827  0.00  0.00    +0.000 A 
ENDBRANCH  20  21
ENDBRANCH   4  20
TORSDOF 5
ENDMDL
MODEL 3
REMARK VINA RESULT:      -8.3      1.725      2.241
REMARK  Name = 
REMARK  5 active torsions:
REMARK  status: ('A' for Active; 'I' for Inactive)
REMARK    1  A    between atoms: C_2  and  C_3
REMARK    2  A    between atoms: C_2  and  C_15
REMARK    3  A    between atoms: C_8  and  C_9
REMARK    4  A    between atoms: N_18  and  C_19
REMARK    5  A    between atoms: C_19  and  C_20
REMARK                            x       y       z     vdW  Elec       q    Type
REMARK                         _______ _______ _______ _____ _____    ______ ____
ROOT
ATOM      1  C   UNL     1       0.492   9.334  19.548  0.00  0.00    +0.000 C 
ATOM      2  C   UNL     1       0.031   8.857  20.922  0.00  0.00    +0.000 C 
ATOM      3  C   UNL     1       1.324   8.446  21.594  0.00  0.00    +0.000 C 
ATOM      4  N   UNL     1       2.092   7.779  20.539  0.00  0.00    +0.000 NA
ATOM      5  C   UNL     1       1.845   8.621  19.337  0.00  0.00    +0.000 C 
ENDROOT
BRANCH   1   7
ATOM      6  O   UNL     1       1.450  11.456  18.830  0.00  0.00    +0.000 OA
ATOM      7  C   UNL     1       0.567  10.873  19.452  0.00  0.00    +0.000 C 
BRANCH   7   8
ATOM      8  C   UNL     1      -0.563  11.672  20.042  0.00  0.00    +0.000 A 
ATOM      9  C   UNL     1      -0.261  12.360  21.244  0.00  0.00    +0.000 A 
ATOM     10  C   UNL     1      -1.208  13.140  21.891  0.00  0.00    +0.000 A 
ATOM     11  C   UNL     1      -2.485  13.236  21.355  0.00  0.00    +0.000 A 
ATOM     12  C   UNL     1      -2.798  12.564  20.173  0.00  0.00    +0.000 A 
ATOM     13  C   UNL     1      -1.863  11.753  19.476  0.00  0.00    +0.000 A 
BRANCH  13  14
ATOM     14  C   UNL     1      -2.314  11.107  18.208  0.00  0.00    +0.000 A 
ATOM     15  C   UNL     1      -2.179  11.722  16.955  0.00  0.00    +0.000 A 
ATOM     16  C   UNL     1      -2.627  11.116  15.775  0.00  0.00    +0.000 A 
ATOM     17  C   UNL     1      -3.268   9.884  15.821  0.00  0.00    +0.000 A 
ATOM     18  C   UNL     1      -3.449   9.256  17.046  0.00  0.00    +0.000 A 
ATOM     19  C   UNL     1      -2.966   9.853  18.219  0.00  0.00    +0.000 A 
ENDBRANCH  13  14
ENDBRANCH   7   8
ENDBRANCH   1   7
BRANCH   4  20
ATOM     20  C   UNL     1       1.659   6.386  20.312  0.00  0.00    +0.000 C 
BRANCH  20  21
ATOM     21  C   UNL     1       2.552   5.581  19.388  0.00  0.00    +0.000 A 
ATOM     22  C   UNL     1       1.976   4.824  18.359  0.00  0.00    +0.000 A 
ATOM     23  C   UNL     1       2.772   4.243  17.373  0.00  0.00    +0.000 A 
ATOM     24  C   UNL     1       4.159   4.418  17.394  0.00  0.00    +0.000 A 
ATOM     25  C   UNL     1       4.946   4.054  16.295  0.00  0.00    +0.000 A 
ATOM     26  C   UNL     1       6.318   4.263  16.328  0.00  0.00    +0.000 A 
ATOM     27  F   UNL     1       7.040   4.064  15.218  0.00  0.00    +0.000 F 
ATOM     28  C   UNL     1       6.946   4.710  17.482  0.00  0.00    +0.000 A 
ATOM     29  C   UNL     1       6.171   5.086  18.582  0.00  0.00    +0.000 A 
ATOM     30  C   UNL     1       4.768   5.027  18.518  0.00  0.00    +0.000 A 
ATOM     31  C   UNL     1       3.950   5.612  19.504  0.00  0.00    +0.000 A 
ENDBRANCH  20  21
ENDBRANCH   4  20
TORSDOF 5
ENDMDL
MODEL 4
REMARK VINA RESULT:      -8.2      2.063      3.583
REMARK  Name = 
REMARK  5 active torsions:
REMARK  status: ('A' for Active; 'I' for Inactive)
REMARK    1  A    between atoms: C_2  and  C_3
REMARK    2  A    between atoms: C_2  and  C_15
REMARK    3  A    between atoms: C_8  and  C_9
REMARK    4  A    between atoms: N_18  and  C_19
REMARK    5  A    between atoms: C_19  and  C_20
REMARK                            x       y       z     vdW  Elec       q    Type
REMARK                         _______ _______ _______ _____ _____    ______ ____
ROOT
ATOM      1  C   UNL     1       0.342  11.713  19.741  0.00  0.00    +0.000 C 
ATOM      2  C   UNL     1       1.379  11.268  18.714  0.00  0.00    +0.000 C 
ATOM      3  C   UNL     1       0.891   9.894  18.308  0.00  0.00    +0.000 C 
ATOM      4  N   UNL     1       0.433   9.280  19.557  0.00  0.00    +0.000 NA
ATOM      5  C   UNL     1      -0.264  10.391  20.261  0.00  0.00    +0.000 C 
ENDROOT
BRANCH   1   7
ATOM      6  O   UNL     1      -0.472  13.362  18.144  0.00  0.00    +0.000 OA
ATOM      7  C   UNL     1      -0.693  12.693  19.149  0.00  0.00    +0.000 C 
BRANCH   7   8
ATOM      8  C   UNL     1      -2.066  12.726  19.763  0.00  0.00    +0.000 A 
ATOM      9  C   UNL     1      -2.174  13.446  20.978  0.00  0.00    +0.000 A 
ATOM     10  C   UNL     1      -3.384  13.563  21.648  0.00  0.00    +0.000 A 
ATOM     11  C   UNL     1      -4.510  12.946  21.120  0.00  0.00    +0.000 A 
ATOM     12  C   UNL     1      -4.419  12.233  19.925  0.00  0.00    +0.000 A 
ATOM     13  C   UNL     1      -3.204  12.084  19.205  0.00  0.00    +0.000 A 
BRANCH  13  14
ATOM     14  C   UNL     1      -3.245  11.318  17.925  0.00  0.00    +0.000 A 
ATOM     15  C   UNL     1      -2.366  10.260  17.647  0.00  0.00    +0.000 A 
ATOM     16  C   UNL     1      -2.400   9.563  16.432  0.00  0.00    +0.000 A 
ATOM     17  C   UNL     1      -3.293   9.937  15.436  0.00  0.00    +0.000 A 
ATOM     18  C   UNL     1      -4.159  11.000  15.660  0.00  0.00    +0.000 A 
ATOM     19  C   UNL     1      -4.143  11.669  16.892  0.00  0.00    +0.000 A 
ENDBRANCH  13  14
ENDBRANCH   7   8
ENDBRANCH   1   7
BRANCH   4  20
ATOM     20  C   UNL     1       1.543   8.747  20.371  0.00  0.00    +0.000 C 
BRANCH  20  21
ATOM     21  C   UNL     1       2.016   7.360  19.978  0.00  0.00    +0.000 A 
ATOM     22  C   UNL     1       2.870   7.210  18.877  0.00  0.00    +0.000 A 
ATOM     23  C   UNL     1       3.484   5.986  18.616  0.00  0.00    +0.000 A 
ATOM     24  C   UNL     1       3.262   4.893  19.458  0.00  0.00    +0.000 A 
ATOM     25  C   UNL     1       4.047   3.738  19.360  0.00  0.00    +0.000 A 
ATOM     26  C   UNL     1       3.826   2.676  20.226  0.00  0.00    +0.000 A 
ATOM     27  F   UNL     1       4.680   1.645  20.233  0.00  0.00    +0.000 F 
ATOM     28  C   UNL     1       2.755   2.684  21.109  0.00  0.00    +0.000 A 
ATOM     29  C   UNL     1       1.971   3.834  21.225  0.00  0.00    +0.000 A 
ATOM     30  C   UNL     1       2.269   4.979  20.466  0.00  0.00    +0.000 A 
ATOM     31  C   UNL     1       1.661   6.223  20.719  0.00  0.00    +0.000 A 
ENDBRANCH  20  21
ENDBRANCH   4  20
TORSDOF 5
ENDMDL
MODEL 5
REMARK VINA RESULT:      -8.2      3.606      8.956
REMARK  Name = 
REMARK  5 active torsions:
REMARK  status: ('A' for Active; 'I' for Inactive)
REMARK    1  A    between atoms: C_2  and  C_3
REMARK    2  A    between atoms: C_2  and  C_15
REMARK    3  A    between atoms: C_8  and  C_9
REMARK    4  A    between atoms: N_18  and  C_19
REMARK    5  A    between atoms: C_19  and  C_20
REMARK                            x       y       z     vdW  Elec       q    Type
REMARK                         _______ _______ _______ _____ _____    ______ ____
ROOT
ATOM      1  C   UNL     1       1.478   8.914  18.088  0.00  0.00    +0.000 C 
ATOM      2  C   UNL     1       2.232  10.239  18.022  0.00  0.00    +0.000 C 
ATOM      3  C   UNL     1       1.578  11.060  19.113  0.00  0.00    +0.000 C 
ATOM      4  N   UNL     1       0.150  10.747  19.004  0.00  0.00    +0.000 NA
ATOM      5  C   UNL     1       0.130   9.282  18.745  0.00  0.00    +0.000 C 
ENDROOT
BRANCH   1   7
ATOM      6  O   UNL     1       2.105   7.583  20.029  0.00  0.00    +0.000 OA
ATOM      7  C   UNL     1       2.269   7.820  18.836  0.00  0.00    +0.000 C 
BRANCH   7   8
ATOM      8  C   UNL     1       3.182   6.935  18.032  0.00  0.00    +0.000 A 
ATOM      9  C   UNL     1       3.985   7.598  17.071  0.00  0.00    +0.000 A 
ATOM     10  C   UNL     1       4.876   6.904  16.266  0.00  0.00    +0.000 A 
ATOM     11  C   UNL     1       4.971   5.525  16.398  0.00  0.00    +0.000 A 
ATOM     12  C   UNL     1       4.187   4.858  17.339  0.00  0.00    +0.000 A 
ATOM     13  C   UNL     1       3.260   5.525  18.182  0.00  0.00    +0.000 A 
BRANCH  13  14
ATOM     14  C   UNL     1       2.498   4.700  19.166  0.00  0.00    +0.000 A 
ATOM     15  C   UNL     1       2.893   4.560  20.505  0.00  0.00    +0.000 A 
ATOM     16  C   UNL     1       2.183   3.764  21.412  0.00  0.00    +0.000 A 
ATOM     17  C   UNL     1       1.071   3.045  20.991  0.00  0.00    +0.000 A 
ATOM     18  C   UNL     1       0.666   3.132  19.665  0.00  0.00    +0.000 A 
ATOM     19  C   UNL     1       1.362   3.958  18.772  0.00  0.00    +0.000 A 
ENDBRANCH  13  14
ENDBRANCH   7   8
ENDBRANCH   1   7
BRANCH   4  20
ATOM     20  C   UNL     1      -0.516  11.490  17.917  0.00  0.00    +0.000 C 
BRANCH  20  21
ATOM     21  C   UNL     1      -2.028  11.559  18.021  0.00  0.00    +0.000 A 
ATOM     22  C   UNL     1      -2.815  10.959  17.030  0.00  0.00    +0.000 A 
ATOM     23  C   UNL     1      -4.192  10.825  17.201  0.00  0.00    +0.000 A 
ATOM     24  C   UNL     1      -4.804  11.281  18.372  0.00  0.00    +0.000 A 
ATOM     25  C   UNL     1      -6.129  10.944  18.669  0.00  0.00    +0.000 A 
ATOM     26  C   UNL     1      -6.707  11.386  19.852  0.00  0.00    +0.000 A 
ATOM     27  F   UNL     1      -7.915  10.928  20.205  0.00  0.00    +0.000 F 
ATOM     28  C   UNL     1      -6.036  12.265  20.690  0.00  0.00    +0.000 A 
ATOM     29  C   UNL     1      -4.710  12.601  20.410  0.00  0.00    +0.000 A 
ATOM     30  C   UNL     1      -4.053  12.045  19.299  0.00  0.00    +0.000 A 
ATOM     31  C   UNL     1      -2.663  12.168  19.114  0.00  0.00    +0.000 A 
ENDBRANCH  20  21
ENDBRANCH   4  20
TORSDOF 5
ENDMDL
MODEL 6
REMARK VINA RESULT:      -8.2      2.214      4.135
REMARK  Name = 
REMARK  5 active torsions:
REMARK  status: ('A' for Active; 'I' for Inactive)
REMARK    1  A    between atoms: C_2  and  C_3
REMARK    2  A    between atoms: C_2  and  C_15
REMARK    3  A    between atoms: C_8  and  C_9
REMARK    4  A    between atoms: N_18  and  C_19
REMARK    5  A    between atoms: C_19  and  C_20
REMARK                            x       y       z     vdW  Elec       q    Type
REMARK                         _______ _______ _______ _____ _____    ______ ____
ROOT
ATOM      1  C   UNL     1      -0.075  10.974  18.989  0.00  0.00    +0.000 C 
ATOM      2  C   UNL     1       1.340  11.458  19.292  0.00  0.00    +0.000 C 
ATOM      3  C   UNL     1       2.147  10.904  18.137  0.00  0.00    +0.000 C 
ATOM      4  N   UNL     1       1.604   9.560  17.919  0.00  0.00    +0.000 NA
ATOM      5  C   UNL     1       0.136   9.743  18.081  0.00  0.00    +0.000 C 
ENDROOT
BRANCH   1   7
ATOM      6  O   UNL     1      -0.484  13.061  17.801  0.00  0.00    +0.000 OA
ATOM      7  C   UNL     1      -0.955  12.077  18.364  0.00  0.00    +0.000 C 
BRANCH   7   8
ATOM      8  C   UNL     1      -2.444  11.864  18.343  0.00  0.00    +0.000 A 
ATOM      9  C   UNL     1      -2.953  11.223  17.186  0.00  0.00    +0.000 A 
ATOM     10  C   UNL     1      -4.307  10.958  17.039  0.00  0.00    +0.000 A 
ATOM     11  C   UNL     1      -5.183  11.344  18.044  0.00  0.00    +0.000 A 
ATOM     12  C   UNL     1      -4.698  11.977  19.189  0.00  0.00    +0.000 A 
ATOM     13  C   UNL     1      -3.322  12.271  19.383  0.00  0.00    +0.000 A 
BRANCH  13  14
ATOM     14  C   UNL     1      -2.927  12.928  20.664  0.00  0.00    +0.000 A 
ATOM     15  C   UNL     1      -3.263  14.256  20.969  0.00  0.00    +0.000 A 
ATOM     16  C   UNL     1      -2.867  14.868  22.165  0.00  0.00    +0.000 A 
ATOM     17  C   UNL     1      -2.079  14.177  23.077  0.00  0.00    +0.000 A 
ATOM     18  C   UNL     1      -1.699  12.871  22.798  0.00  0.00    +0.000 A 
ATOM     19  C   UNL     1      -2.129  12.254  21.615  0.00  0.00    +0.000 A 
ENDBRANCH  13  14
ENDBRANCH   7   8
ENDBRANCH   1   7
BRANCH   4  20
ATOM     20  C   UNL     1       2.127   8.570  18.881  0.00  0.00    +0.000 C 
BRANCH  20  21
ATOM     21  C   UNL     1       2.533   7.240  18.274  0.00  0.00    +0.000 A 
ATOM     22  C   UNL     1       3.752   7.138  17.591  0.00  0.00    +0.000 A 
ATOM     23  C   UNL     1       4.247   5.893  17.204  0.00  0.00    +0.000 A 
ATOM     24  C   UNL     1       3.534   4.729  17.503  0.00  0.00    +0.000 A 
ATOM     25  C   UNL     1       4.119   3.467  17.343  0.00  0.00    +0.000 A 
ATOM     26  C   UNL     1       3.401   2.325  17.673  0.00  0.00    +0.000 A 
ATOM     27  F   UNL     1       4.019   1.137  17.671  0.00  0.00    +0.000 F 
ATOM     28  C   UNL     1       2.065   2.402  18.039  0.00  0.00    +0.000 A 
ATOM     29  C   UNL     1       1.473   3.654  18.212  0.00  0.00    +0.000 A 
ATOM     30  C   UNL     1       2.223   4.828  18.031  0.00  0.00    +0.000 A 
ATOM     31  C   UNL     1       1.740   6.092  18.420  0.00  0.00    +0.000 A 
ENDBRANCH  20  21
ENDBRANCH   4  20
TORSDOF 5
ENDMDL
MODEL 7
REMARK VINA RESULT:      -8.1      1.721      2.716
REMARK  Name = 
REMARK  5 active torsions:
REMARK  status: ('A' for Active; 'I' for Inactive)
REMARK    1  A    between atoms: C_2  and  C_3
REMARK    2  A    between atoms: C_2  and  C_15
REMARK    3  A    between atoms: C_8  and  C_9
REMARK    4  A    between atoms: N_18  and  C_19
REMARK    5  A    between atoms: C_19  and  C_20
REMARK                            x       y       z     vdW  Elec       q    Type
REMARK                         _______ _______ _______ _____ _____    ______ ____
ROOT
ATOM      1  C   UNL     1       0.132  10.751  22.131  0.00  0.00    +0.000 C 
ATOM      2  C   UNL     1       0.906  10.910  20.825  0.00  0.00    +0.000 C 
ATOM      3  C   UNL     1       0.360   9.788  19.966  0.00  0.00    +0.000 C 
ATOM      4  N   UNL     1       0.222   8.654  20.884  0.00  0.00    +0.000 NA
ATOM      5  C   UNL     1      -0.309   9.272  22.129  0.00  0.00    +0.000 C 
ENDROOT
BRANCH   1   7
ATOM      6  O   UNL     1      -2.054  11.514  22.887  0.00  0.00    +0.000 OA
ATOM      7  C   UNL     1      -1.031  11.758  22.254  0.00  0.00    +0.000 C 
BRANCH   7   8
ATOM      8  C   UNL     1      -0.838  13.134  21.676  0.00  0.00    +0.000 A 
ATOM      9  C   UNL     1      -0.091  14.033  22.477  0.00  0.00    +0.000 A 
ATOM     10  C   UNL     1       0.168  15.331  22.061  0.00  0.00    +0.000 A 
ATOM     11  C   UNL     1      -0.330  15.761  20.839  0.00  0.00    +0.000 A 
ATOM     12  C   UNL     1      -1.068  14.887  20.040  0.00  0.00    +0.000 A 
ATOM     13  C   UNL     1      -1.360  13.552  20.423  0.00  0.00    +0.000 A 
BRANCH  13  14
ATOM     14  C   UNL     1      -2.139  12.710  19.467  0.00  0.00    +0.000 A 
ATOM     15  C   UNL     1      -1.581  12.189  18.289  0.00  0.00    +0.000 A 
ATOM     16  C   UNL     1      -2.328  11.419  17.388  0.00  0.00    +0.000 A 
ATOM     17  C   UNL     1      -3.677  11.184  17.621  0.00  0.00    +0.000 A 
ATOM     18  C   UNL     1      -4.274  11.708  18.760  0.00  0.00    +0.000 A 
ATOM     19  C   UNL     1      -3.511  12.448  19.674  0.00  0.00    +0.000 A 
ENDBRANCH  13  14
ENDBRANCH   7   8
ENDBRANCH   1   7
BRANCH   4  20
ATOM     20  C   UNL     1       1.503   7.964  21.135  0.00  0.00    +0.000 C 
BRANCH  20  21
ATOM     21  C   UNL     1       1.777   6.775  20.234  0.00  0.00    +0.000 A 
ATOM     22  C   UNL     1       2.556   6.949  19.082  0.00  0.00    +0.000 A 
ATOM     23  C   UNL     1       2.996   5.847  18.350  0.00  0.00    +0.000 A 
ATOM     24  C   UNL     1       2.672   4.552  18.763  0.00  0.00    +0.000 A 
ATOM     25  C   UNL     1       3.296   3.437  18.192  0.00  0.00    +0.000 A 
ATOM     26  C   UNL     1       2.979   2.161  18.638  0.00  0.00    +0.000 A 
ATOM     27  F   UNL     1       3.693   1.115  18.203  0.00  0.00    +0.000 F 
ATOM     28  C   UNL     1       1.956   1.959  19.555  0.00  0.00    +0.000 A 
ATOM     29  C   UNL     1       1.333   3.063  20.140  0.00  0.00    +0.000 A 
ATOM     30  C   UNL     1       1.743   4.367  19.817  0.00  0.00    +0.000 A 
ATOM     31  C   UNL     1       1.311   5.490  20.549  0.00  0.00    +0.000 A 
ENDBRANCH  20  21
ENDBRANCH   4  20
TORSDOF 5
ENDMDL
MODEL 8
REMARK VINA RESULT:      -8.1      1.722      3.419
REMARK  Name = 
REMARK  5 active torsions:
REMARK  status: ('A' for Active; 'I' for Inactive)
REMARK    1  A    between atoms: C_2  and  C_3
REMARK    2  A    between atoms: C_2  and  C_15
REMARK    3  A    between atoms: C_8  and  C_9
REMARK    4  A    between atoms: N_18  and  C_19
REMARK    5  A    between atoms: C_19  and  C_20
REMARK                            x       y       z     vdW  Elec       q    Type
REMARK                         _______ _______ _______ _____ _____    ______ ____
ROOT
ATOM      1  C   UNL     1       0.172   8.944  19.406  0.00  0.00    +0.000 C 
ATOM      2  C   UNL     1      -0.050   8.672  20.892  0.00  0.00    +0.000 C 
ATOM      3  C   UNL     1       1.358   8.618  21.444  0.00  0.00    +0.000 C 
ATOM      4  N   UNL     1       2.127   7.895  20.426  0.00  0.00    +0.000 NA
ATOM      5  C   UNL     1       1.606   8.436  19.142  0.00  0.00    +0.000 C 
ENDROOT
BRANCH   1   7
ATOM      6  O   UNL     1       0.869  11.231  18.938  0.00  0.00    +0.000 OA
ATOM      7  C   UNL     1      -0.053  10.426  19.038  0.00  0.00    +0.000 C 
BRANCH   7   8
ATOM      8  C   UNL     1      -1.446  10.857  18.667  0.00  0.00    +0.000 A 
ATOM      9  C   UNL     1      -1.982  10.252  17.503  0.00  0.00    +0.000 A 
ATOM     10  C   UNL     1      -3.259  10.554  17.052  0.00  0.00    +0.000 A 
ATOM     11  C   UNL     1      -4.021  11.482  17.749  0.00  0.00    +0.000 A 
ATOM     12  C   UNL     1      -3.505  12.087  18.896  0.00  0.00    +0.000 A 
ATOM     13  C   UNL     1      -2.205  11.812  19.395  0.00  0.00    +0.000 A 
BRANCH  13  14
ATOM     14  C   UNL     1      -1.780  12.507  20.646  0.00  0.00    +0.000 A 
ATOM     15  C   UNL     1      -1.247  13.805  20.649  0.00  0.00    +0.000 A 
ATOM     16  C   UNL     1      -0.831  14.437  21.828  0.00  0.00    +0.000 A 
ATOM     17  C   UNL     1      -0.898  13.766  23.042  0.00  0.00    +0.000 A 
ATOM     18  C   UNL     1      -1.390  12.468  23.078  0.00  0.00    +0.000 A 
ATOM     19  C   UNL     1      -1.837  11.855  21.899  0.00  0.00    +0.000 A 
ENDBRANCH  13  14
ENDBRANCH   7   8
ENDBRANCH   1   7
BRANCH   4  20
ATOM     20  C   UNL     1       1.941   6.433  20.503  0.00  0.00    +0.000 C 
BRANCH  20  21
ATOM     21  C   UNL     1       2.758   5.631  19.507  0.00  0.00    +0.000 A 
ATOM     22  C   UNL     1       2.104   4.927  18.487  0.00  0.00    +0.000 A 
ATOM     23  C   UNL     1       2.828   4.355  17.442  0.00  0.00    +0.000 A 
ATOM     24  C   UNL     1       4.218   4.486  17.395  0.00  0.00    +0.000 A 
ATOM     25  C   UNL     1       4.935   4.135  16.244  0.00  0.00    +0.000 A 
ATOM     26  C   UNL     1       6.313   4.300  16.210  0.00  0.00    +0.000 A 
ATOM     27  F   UNL     1       6.969   4.116  15.057  0.00  0.00    +0.000 F 
ATOM     28  C   UNL     1       7.015   4.688  17.343  0.00  0.00    +0.000 A 
ATOM     29  C   UNL     1       6.311   5.051  18.494  0.00  0.00    +0.000 A 
ATOM     30  C   UNL     1       4.906   5.038  18.504  0.00  0.00    +0.000 A 
ATOM     31  C   UNL     1       4.160   5.615  19.549  0.00  0.00    +0.000 A 
ENDBRANCH  20  21
ENDBRANCH   4  20
TORSDOF 5
ENDMDL
MODEL 9
REMARK VINA RESULT:      -8.1      1.792      3.715
REMARK  Name = 
REMARK  5 active torsions:
REMARK  status: ('A' for Active; 'I' for Inactive)
REMARK    1  A    between atoms: C_2  and  C_3
REMARK    2  A    between atoms: C_2  and  C_15
REMARK    3  A    between atoms: C_8  and  C_9
REMARK    4  A    between atoms: N_18  and  C_19
REMARK    5  A    between atoms: C_19  and  C_20
REMARK                            x       y       z     vdW  Elec       q    Type
REMARK                         _______ _______ _______ _____ _____    ______ ____
ROOT
ATOM      1  C   UNL     1      -0.894  10.350  19.196  0.00  0.00    +0.000 C 
ATOM      2  C   UNL     1      -0.148  10.635  20.497  0.00  0.00    +0.000 C 
ATOM      3  C   UNL     1       1.305  10.617  20.068  0.00  0.00    +0.000 C 
ATOM      4  N   UNL     1       1.395   9.506  19.117  0.00  0.00    +0.000 NA
ATOM      5  C   UNL     1       0.146   9.624  18.317  0.00  0.00    +0.000 C 
ENDROOT
BRANCH   1   7
ATOM      6  O   UNL     1      -0.811  12.389  17.867  0.00  0.00    +0.000 OA
ATOM      7  C   UNL     1      -1.480  11.628  18.559  0.00  0.00    +0.000 C 
BRANCH   7   8
ATOM      8  C   UNL     1      -2.958  11.872  18.697  0.00  0.00    +0.000 A 
ATOM      9  C   UNL     1      -3.755  11.416  17.617  0.00  0.00    +0.000 A 
ATOM     10  C   UNL     1      -5.134  11.570  17.617  0.00  0.00    +0.000 A 
ATOM     11  C   UNL     1      -5.743  12.198  18.695  0.00  0.00    +0.000 A 
ATOM     12  C   UNL     1      -4.972  12.653  19.765  0.00  0.00    +0.000 A 
ATOM     13  C   UNL     1      -3.559  12.520  19.809  0.00  0.00    +0.000 A 
BRANCH  13  14
ATOM     14  C   UNL     1      -2.851  13.025  21.023  0.00  0.00    +0.000 A 
ATOM     15  C   UNL     1      -1.986  14.129  20.991  0.00  0.00    +0.000 A 
ATOM     16  C   UNL     1      -1.311  14.579  22.133  0.00  0.00    +0.000 A 
ATOM     17  C   UNL     1      -1.450  13.904  23.339  0.00  0.00    +0.000 A 
ATOM     18  C   UNL     1      -2.273  12.787  23.405  0.00  0.00    +0.000 A 
ATOM     19  C   UNL     1      -2.973  12.365  22.266  0.00  0.00    +0.000 A 
ENDBRANCH  13  14
ENDBRANCH   7   8
ENDBRANCH   1   7
BRANCH   4  20
ATOM     20  C   UNL     1       1.479   8.191  19.783  0.00  0.00    +0.000 C 
BRANCH  20  21
ATOM     21  C   UNL     1       2.491   7.233  19.184  0.00  0.00    +0.000 A 
ATOM     22  C   UNL     1       2.618   5.943  19.715  0.00  0.00    +0.000 A 
ATOM     23  C   UNL     1       3.384   4.978  19.062  0.00  0.00    +0.000 A 
ATOM     24  C   UNL     1       4.029   5.286  17.862  0.00  0.00    +0.000 A 
ATOM     25  C   UNL     1       4.597   4.279  17.072  0.00  0.00    +0.000 A 
ATOM     26  C   UNL     1       5.208   4.605  15.869  0.00  0.00    +0.000 A 
ATOM     27  F   UNL     1       5.604   3.626  15.045  0.00  0.00    +0.000 F 
ATOM     28  C   UNL     1       5.382   5.929  15.492  0.00  0.00    +0.000 A 
ATOM     29  C   UNL     1       4.812   6.943  16.265  0.00  0.00    +0.000 A 
ATOM     30  C   UNL     1       4.057   6.627  17.408  0.00  0.00    +0.000 A 
ATOM     31  C   UNL     1       3.275   7.589  18.076  0.00  0.00    +0.000 A 
ENDBRANCH  20  21
ENDBRANCH   4  20
TORSDOF 5
ENDMDL
