MODEL 1
REMARK VINA RESULT:      -9.1      0.000      0.000
REMARK  Name = 
REMARK  10 active torsions:
REMARK  status: ('A' for Active; 'I' for Inactive)
REMARK    1  A    between atoms: C_1  and  O_2
REMARK    2  A    between atoms: O_2  and  C_3
REMARK    3  A    between atoms: C_8  and  C_9
REMARK    4  A    between atoms: C_9  and  C_11
REMARK    5  A    between atoms: C_11  and  O_12
REMARK    6  A    between atoms: O_12  and  C_13
REMARK    7  A    between atoms: C_13  and  C_15
REMARK    8  A    between atoms: C_15  and  O_16
REMARK    9  A    between atoms: O_16  and  C_17
REMARK   10  A    between atoms: C_21  and  C_22
REMARK                            x       y       z     vdW  Elec       q    Type
REMARK                         _______ _______ _______ _____ _____    ______ ____
ROOT
ATOM      1  O   UNL     1       1.227   4.538  20.453  0.00  0.00    +0.000 OA
ENDROOT
BRANCH   1   2
ATOM      2  C   UNL     1       1.489   3.296  20.951  0.00  0.00    +0.000 C 
ATOM      3  O   UNL     1       1.573   3.014  22.137  0.00  0.00    +0.000 OA
BRANCH   2   4
ATOM      4  C   UNL     1       1.466   2.277  19.820  0.00  0.00    +0.000 C 
BRANCH   4   5
ATOM      5  O   UNL     1       2.751   1.794  19.468  0.00  0.00    +0.000 OA
BRANCH   5   6
ATOM      6  C   UNL     1       3.559   2.680  18.804  0.00  0.00    +0.000 A 
ATOM      7  C   UNL     1       3.215   2.940  17.477  0.00  0.00    +0.000 A 
ATOM      8  C   UNL     1       3.964   3.840  16.697  0.00  0.00    +0.000 A 
ATOM      9  C   UNL     1       5.072   4.506  17.232  0.00  0.00    +0.000 A 
ATOM     10  C   UNL     1       5.904   5.479  16.507  0.00  0.00    +0.000 A 
ATOM     11  C   UNL     1       5.652   5.864  15.079  0.00  0.00    +0.000 C 
ATOM     12  C   UNL     1       6.931   6.047  17.162  0.00  0.00    +0.000 A 
ATOM     13  C   UNL     1       7.279   5.752  18.556  0.00  0.00    +0.000 A 
ATOM     14  O   UNL     1       8.226   6.307  19.101  0.00  0.00    +0.000 OA
ATOM     15  O   UNL     1       6.493   4.822  19.207  0.00  0.00    +0.000 OA
ATOM     16  C   UNL     1       5.399   4.219  18.559  0.00  0.00    +0.000 A 
ATOM     17  C   UNL     1       4.670   3.320  19.341  0.00  0.00    +0.000 A 
ENDBRANCH   5   6
ENDBRANCH   4   5
ENDBRANCH   2   4
ENDBRANCH   1   2
BRANCH   1  18
ATOM     18  C   UNL     1       2.147   5.549  20.864  0.00  0.00    +0.000 C 
BRANCH  18  19
ATOM     19  C   UNL     1       2.316   6.705  19.882  0.00  0.00    +0.000 C 
ATOM     20  O   UNL     1       3.041   6.613  18.892  0.00  0.00    +0.000 OA
BRANCH  19  26
ATOM     21  C   UNL     1      -1.238  11.668  22.245  0.00  0.00    +0.000 A 
ATOM     22  C   UNL     1      -1.093  10.658  23.199  0.00  0.00    +0.000 A 
ATOM     23  C   UNL     1      -0.366   9.509  22.902  0.00  0.00    +0.000 A 
ATOM     24  C   UNL     1       0.229   9.331  21.648  0.00  0.00    +0.000 A 
ATOM     25  C   UNL     1       0.955   8.164  21.354  0.00  0.00    +0.000 A 
ATOM     26  C   UNL     1       1.563   7.982  20.105  0.00  0.00    +0.000 A 
ATOM     27  C   UNL     1       1.412   8.969  19.127  0.00  0.00    +0.000 A 
ATOM     28  C   UNL     1       0.683  10.136  19.408  0.00  0.00    +0.000 A 
ATOM     29  C   UNL     1       0.087  10.337  20.669  0.00  0.00    +0.000 A 
ATOM     30  C   UNL     1      -0.649  11.501  20.985  0.00  0.00    +0.000 A 
BRANCH  21  32
ATOM     31  C   UNL     1      -3.337  12.694  22.627  0.00  0.00    +0.000 C 
ATOM     32  O   UNL     1      -1.929  12.836  22.445  0.00  0.00    +0.000 OA
ENDBRANCH  21  32
ENDBRANCH  19  26
ENDBRANCH  18  19
ENDBRANCH   1  18
TORSDOF 8
ENDMDL
MODEL 2
REMARK VINA RESULT:      -8.6      1.539      7.841
REMARK  Name = 
REMARK  10 active torsions:
REMARK  status: ('A' for Active; 'I' for Inactive)
REMARK    1  A    between atoms: C_1  and  O_2
REMARK    2  A    between atoms: O_2  and  C_3
REMARK    3  A    between atoms: C_8  and  C_9
REMARK    4  A    between atoms: C_9  and  C_11
REMARK    5  A    between atoms: C_11  and  O_12
REMARK    6  A    between atoms: O_12  and  C_13
REMARK    7  A    between atoms: C_13  and  C_15
REMARK    8  A    between atoms: C_15  and  O_16
REMARK    9  A    between atoms: O_16  and  C_17
REMARK   10  A    between atoms: C_21  and  C_22
REMARK                            x       y       z     vdW  Elec       q    Type
REMARK                         _______ _______ _______ _____ _____    ______ ____
ROOT
ATOM      1  O   UNL     1       2.566   3.589  20.848  0.00  0.00    +0.000 OA
ENDROOT
BRANCH   1   2
ATOM      2  C   UNL     1       1.769   4.646  20.521  0.00  0.00    +0.000 C 
ATOM      3  O   UNL     1       0.550   4.612  20.436  0.00  0.00    +0.000 OA
BRANCH   2   4
ATOM      4  C   UNL     1       2.603   5.919  20.473  0.00  0.00    +0.000 C 
BRANCH   4   5
ATOM      5  O   UNL     1       2.402   6.682  19.295  0.00  0.00    +0.000 OA
BRANCH   5   6
ATOM      6  C   UNL     1       1.832   7.915  19.476  0.00  0.00    +0.000 A 
ATOM      7  C   UNL     1       1.761   8.725  18.342  0.00  0.00    +0.000 A 
ATOM      8  C   UNL     1       1.188  10.008  18.402  0.00  0.00    +0.000 A 
ATOM      9  C   UNL     1       0.664  10.507  19.600  0.00  0.00    +0.000 A 
ATOM     10  C   UNL     1       0.026  11.822  19.761  0.00  0.00    +0.000 A 
ATOM     11  C   UNL     1      -0.127  12.798  18.630  0.00  0.00    +0.000 C 
ATOM     12  C   UNL     1      -0.442  12.157  20.975  0.00  0.00    +0.000 A 
ATOM     13  C   UNL     1      -0.350  11.291  22.157  0.00  0.00    +0.000 A 
ATOM     14  O   UNL     1      -0.800  11.650  23.237  0.00  0.00    +0.000 OA
ATOM     15  O   UNL     1       0.269  10.069  21.982  0.00  0.00    +0.000 OA
ATOM     16  C   UNL     1       0.757   9.679  20.721  0.00  0.00    +0.000 A 
ATOM     17  C   UNL     1       1.333   8.407  20.677  0.00  0.00    +0.000 A 
ENDBRANCH   5   6
ENDBRANCH   4   5
ENDBRANCH   2   4
ENDBRANCH   1   2
BRANCH   1  18
ATOM     18  C   UNL     1       2.370   2.426  20.043  0.00  0.00    +0.000 C 
BRANCH  18  19
ATOM     19  C   UNL     1       3.396   2.233  18.930  0.00  0.00    +0.000 C 
ATOM     20  O   UNL     1       3.646   1.122  18.465  0.00  0.00    +0.000 OA
BRANCH  19  26
ATOM     21  C   UNL     1       7.441   7.218  17.651  0.00  0.00    +0.000 A 
ATOM     22  C   UNL     1       7.853   6.519  18.787  0.00  0.00    +0.000 A 
ATOM     23  C   UNL     1       7.132   5.415  19.234  0.00  0.00    +0.000 A 
ATOM     24  C   UNL     1       5.980   4.983  18.568  0.00  0.00    +0.000 A 
ATOM     25  C   UNL     1       5.254   3.871  19.029  0.00  0.00    +0.000 A 
ATOM     26  C   UNL     1       4.106   3.425  18.362  0.00  0.00    +0.000 A 
ATOM     27  C   UNL     1       3.661   4.124  17.236  0.00  0.00    +0.000 A 
ATOM     28  C   UNL     1       4.376   5.240  16.770  0.00  0.00    +0.000 A 
ATOM     29  C   UNL     1       5.544   5.681  17.421  0.00  0.00    +0.000 A 
ATOM     30  C   UNL     1       6.288   6.797  16.975  0.00  0.00    +0.000 A 
BRANCH  21  32
ATOM     31  C   UNL     1       8.243   9.415  18.023  0.00  0.00    +0.000 C 
ATOM     32  O   UNL     1       8.086   8.311  17.132  0.00  0.00    +0.000 OA
ENDBRANCH  21  32
ENDBRANCH  19  26
ENDBRANCH  18  19
ENDBRANCH   1  18
TORSDOF 8
ENDMDL
MODEL 3
REMARK VINA RESULT:      -8.5      1.304      1.838
REMARK  Name = 
REMARK  10 active torsions:
REMARK  status: ('A' for Active; 'I' for Inactive)
REMARK    1  A    between atoms: C_1  and  O_2
REMARK    2  A    between atoms: O_2  and  C_3
REMARK    3  A    between atoms: C_8  and  C_9
REMARK    4  A    between atoms: C_9  and  C_11
REMARK    5  A    between atoms: C_11  and  O_12
REMARK    6  A    between atoms: O_12  and  C_13
REMARK    7  A    between atoms: C_13  and  C_15
REMARK    8  A    between atoms: C_15  and  O_16
REMARK    9  A    between atoms: O_16  and  C_17
REMARK   10  A    between atoms: C_21  and  C_22
REMARK                            x       y       z     vdW  Elec       q    Type
REMARK                         _______ _______ _______ _____ _____    ______ ____
ROOT
ATOM      1  O   UNL     1       1.385   4.565  19.220  0.00  0.00    +0.000 OA
ENDROOT
BRANCH   1   2
ATOM      2  C   UNL     1       1.171   3.317  19.729  0.00  0.00    +0.000 C 
ATOM      3  O   UNL     1       0.690   3.075  20.826  0.00  0.00    +0.000 OA
BRANCH   2   4
ATOM      4  C   UNL     1       1.436   2.274  18.652  0.00  0.00    +0.000 C 
BRANCH   4   5
ATOM      5  O   UNL     1       2.753   1.751  18.682  0.00  0.00    +0.000 OA
BRANCH   5   6
ATOM      6  C   UNL     1       3.754   2.643  18.397  0.00  0.00    +0.000 A 
ATOM      7  C   UNL     1       4.440   3.160  19.496  0.00  0.00    +0.000 A 
ATOM      8  C   UNL     1       5.493   4.077  19.329  0.00  0.00    +0.000 A 
ATOM      9  C   UNL     1       5.889   4.492  18.052  0.00  0.00    +0.000 A 
ATOM     10  C   UNL     1       6.989   5.427  17.771  0.00  0.00    +0.000 A 
ATOM     11  C   UNL     1       7.820   6.057  18.851  0.00  0.00    +0.000 C 
ATOM     12  C   UNL     1       7.260   5.720  16.488  0.00  0.00    +0.000 A 
ATOM     13  C   UNL     1       6.519   5.171  15.346  0.00  0.00    +0.000 A 
ATOM     14  O   UNL     1       6.816   5.473  14.198  0.00  0.00    +0.000 OA
ATOM     15  O   UNL     1       5.480   4.310  15.639  0.00  0.00    +0.000 OA
ATOM     16  C   UNL     1       5.178   3.966  16.971  0.00  0.00    +0.000 A 
ATOM     17  C   UNL     1       4.124   3.063  17.125  0.00  0.00    +0.000 A 
ENDBRANCH   5   6
ENDBRANCH   4   5
ENDBRANCH   2   4
ENDBRANCH   1   2
BRANCH   1  18
ATOM     18  C   UNL     1       2.012   5.475  20.123  0.00  0.00    +0.000 C 
BRANCH  18  19
ATOM     19  C   UNL     1       2.435   6.805  19.507  0.00  0.00    +0.000 C 
ATOM     20  O   UNL     1       3.370   6.883  18.712  0.00  0.00    +0.000 OA
BRANCH  19  26
ATOM     21  C   UNL     1      -1.084  11.531  22.359  0.00  0.00    +0.000 A 
ATOM     22  C   UNL     1      -0.910  10.447  23.222  0.00  0.00    +0.000 A 
ATOM     23  C   UNL     1      -0.185   9.332  22.814  0.00  0.00    +0.000 A 
ATOM     24  C   UNL     1       0.379   9.262  21.535  0.00  0.00    +0.000 A 
ATOM     25  C   UNL     1       1.104   8.129  21.128  0.00  0.00    +0.000 A 
ATOM     26  C   UNL     1       1.681   8.055  19.853  0.00  0.00    +0.000 A 
ATOM     27  C   UNL     1       1.500   9.117  18.964  0.00  0.00    +0.000 A 
ATOM     28  C   UNL     1       0.772  10.252  19.359  0.00  0.00    +0.000 A 
ATOM     29  C   UNL     1       0.207  10.345  20.646  0.00  0.00    +0.000 A 
ATOM     30  C   UNL     1      -0.526  11.473  21.075  0.00  0.00    +0.000 A 
BRANCH  21  32
ATOM     31  C   UNL     1      -3.185  12.515  22.835  0.00  0.00    +0.000 C 
ATOM     32  O   UNL     1      -1.776  12.673  22.671  0.00  0.00    +0.000 OA
ENDBRANCH  21  32
ENDBRANCH  19  26
ENDBRANCH  18  19
ENDBRANCH   1  18
TORSDOF 8
ENDMDL
MODEL 4
REMARK VINA RESULT:      -8.4      1.012      1.048
REMARK  Name = 
REMARK  10 active torsions:
REMARK  status: ('A' for Active; 'I' for Inactive)
REMARK    1  A    between atoms: C_1  and  O_2
REMARK    2  A    between atoms: O_2  and  C_3
REMARK    3  A    between atoms: C_8  and  C_9
REMARK    4  A    between atoms: C_9  and  C_11
REMARK    5  A    between atoms: C_11  and  O_12
REMARK    6  A    between atoms: O_12  and  C_13
REMARK    7  A    between atoms: C_13  and  C_15
REMARK    8  A    between atoms: C_15  and  O_16
REMARK    9  A    between atoms: O_16  and  C_17
REMARK   10  A    between atoms: C_21  and  C_22
REMARK                            x       y       z     vdW  Elec       q    Type
REMARK                         _______ _______ _______ _____ _____    ______ ____
ROOT
ATOM      1  O   UNL     1       1.917   5.373  20.319  0.00  0.00    +0.000 OA
ENDROOT
BRANCH   1   2
ATOM      2  C   UNL     1       1.487   4.088  20.479  0.00  0.00    +0.000 C 
ATOM      3  O   UNL     1       0.480   3.612  19.974  0.00  0.00    +0.000 OA
BRANCH   2   4
ATOM      4  C   UNL     1       2.548   3.282  21.216  0.00  0.00    +0.000 C 
BRANCH   4   5
ATOM      5  O   UNL     1       3.332   2.466  20.362  0.00  0.00    +0.000 OA
BRANCH   5   6
ATOM      6  C   UNL     1       4.043   3.127  19.395  0.00  0.00    +0.000 A 
ATOM      7  C   UNL     1       3.774   2.751  18.079  0.00  0.00    +0.000 A 
ATOM      8  C   UNL     1       4.435   3.366  17.000  0.00  0.00    +0.000 A 
ATOM      9  C   UNL     1       5.377   4.378  17.215  0.00  0.00    +0.000 A 
ATOM     10  C   UNL     1       6.103   5.096  16.157  0.00  0.00    +0.000 A 
ATOM     11  C   UNL     1       5.914   4.806  14.696  0.00  0.00    +0.000 C 
ATOM     12  C   UNL     1       6.969   6.057  16.521  0.00  0.00    +0.000 A 
ATOM     13  C   UNL     1       7.242   6.430  17.914  0.00  0.00    +0.000 A 
ATOM     14  O   UNL     1       8.041   7.319  18.183  0.00  0.00    +0.000 OA
ATOM     15  O   UNL     1       6.560   5.729  18.888  0.00  0.00    +0.000 OA
ATOM     16  C   UNL     1       5.633   4.728  18.543  0.00  0.00    +0.000 A 
ATOM     17  C   UNL     1       4.991   4.118  19.623  0.00  0.00    +0.000 A 
ENDBRANCH   5   6
ENDBRANCH   4   5
ENDBRANCH   2   4
ENDBRANCH   1   2
BRANCH   1  18
ATOM     18  C   UNL     1       1.961   5.819  18.964  0.00  0.00    +0.000 C 
BRANCH  18  19
ATOM     19  C   UNL     1       2.491   7.237  18.771  0.00  0.00    +0.000 C 
ATOM     20  O   UNL     1       3.512   7.465  18.124  0.00  0.00    +0.000 OA
BRANCH  19  26
ATOM     21  C   UNL     1      -0.875  11.366  22.575  0.00  0.00    +0.000 A 
ATOM     22  C   UNL     1      -0.600  10.176  23.250  0.00  0.00    +0.000 A 
ATOM     23  C   UNL     1       0.112   9.158  22.621  0.00  0.00    +0.000 A 
ATOM     24  C   UNL     1       0.564   9.296  21.304  0.00  0.00    +0.000 A 
ATOM     25  C   UNL     1       1.277   8.262  20.675  0.00  0.00    +0.000 A 
ATOM     26  C   UNL     1       1.741   8.395  19.360  0.00  0.00    +0.000 A 
ATOM     27  C   UNL     1       1.457   9.568  18.656  0.00  0.00    +0.000 A 
ATOM     28  C   UNL     1       0.740  10.606  19.274  0.00  0.00    +0.000 A 
ATOM     29  C   UNL     1       0.289  10.490  20.603  0.00  0.00    +0.000 A 
ATOM     30  C   UNL     1      -0.431  11.516  21.254  0.00  0.00    +0.000 A 
BRANCH  21  32
ATOM     31  C   UNL     1      -2.968  12.227  23.273  0.00  0.00    +0.000 C 
ATOM     32  O   UNL     1      -1.564  12.425  23.109  0.00  0.00    +0.000 OA
ENDBRANCH  21  32
ENDBRANCH  19  26
ENDBRANCH  18  19
ENDBRANCH   1  18
TORSDOF 8
ENDMDL
MODEL 5
REMARK VINA RESULT:      -8.3      1.065      1.773
REMARK  Name = 
REMARK  10 active torsions:
REMARK  status: ('A' for Active; 'I' for Inactive)
REMARK    1  A    between atoms: C_1  and  O_2
REMARK    2  A    between atoms: O_2  and  C_3
REMARK    3  A    between atoms: C_8  and  C_9
REMARK    4  A    between atoms: C_9  and  C_11
REMARK    5  A    between atoms: C_11  and  O_12
REMARK    6  A    between atoms: O_12  and  C_13
REMARK    7  A    between atoms: C_13  and  C_15
REMARK    8  A    between atoms: C_15  and  O_16
REMARK    9  A    between atoms: O_16  and  C_17
REMARK   10  A    between atoms: C_21  and  C_22
REMARK                            x       y       z     vdW  Elec       q    Type
REMARK                         _______ _______ _______ _____ _____    ______ ____
ROOT
ATOM      1  O   UNL     1       2.143   4.585  21.439  0.00  0.00    +0.000 OA
ENDROOT
BRANCH   1   2
ATOM      2  C   UNL     1       1.830   3.257  21.425  0.00  0.00    +0.000 C 
ATOM      3  O   UNL     1       1.622   2.570  22.414  0.00  0.00    +0.000 OA
BRANCH   2   4
ATOM      4  C   UNL     1       1.583   2.807  19.992  0.00  0.00    +0.000 C 
BRANCH   4   5
ATOM      5  O   UNL     1       2.681   2.119  19.418  0.00  0.00    +0.000 OA
BRANCH   5   6
ATOM      6  C   UNL     1       3.586   2.898  18.746  0.00  0.00    +0.000 A 
ATOM      7  C   UNL     1       3.379   3.023  17.372  0.00  0.00    +0.000 A 
ATOM      8  C   UNL     1       4.237   3.805  16.577  0.00  0.00    +0.000 A 
ATOM      9  C   UNL     1       5.320   4.488  17.144  0.00  0.00    +0.000 A 
ATOM     10  C   UNL     1       6.258   5.346  16.405  0.00  0.00    +0.000 A 
ATOM     11  C   UNL     1       6.158   5.579  14.926  0.00  0.00    +0.000 C 
ATOM     12  C   UNL     1       7.243   5.947  17.093  0.00  0.00    +0.000 A 
ATOM     13  C   UNL     1       7.446   5.796  18.538  0.00  0.00    +0.000 A 
ATOM     14  O   UNL     1       8.361   6.374  19.111  0.00  0.00    +0.000 OA
ATOM     15  O   UNL     1       6.562   4.971  19.204  0.00  0.00    +0.000 OA
ATOM     16  C   UNL     1       5.507   4.337  18.520  0.00  0.00    +0.000 A 
ATOM     17  C   UNL     1       4.669   3.555  19.318  0.00  0.00    +0.000 A 
ENDBRANCH   5   6
ENDBRANCH   4   5
ENDBRANCH   2   4
ENDBRANCH   1   2
BRANCH   1  18
ATOM     18  C   UNL     1       1.366   5.388  20.552  0.00  0.00    +0.000 C 
BRANCH  18  19
ATOM     19  C   UNL     1       2.062   6.648  20.046  0.00  0.00    +0.000 C 
ATOM     20  O   UNL     1       3.041   6.594  19.303  0.00  0.00    +0.000 OA
BRANCH  19  26
ATOM     21  C   UNL     1      -0.078  12.831  20.255  0.00  0.00    +0.000 A 
ATOM     22  C   UNL     1       0.263  12.464  18.952  0.00  0.00    +0.000 A 
ATOM     23  C   UNL     1       0.740  11.184  18.683  0.00  0.00    +0.000 A 
ATOM     24  C   UNL     1       0.895  10.239  19.704  0.00  0.00    +0.000 A 
ATOM     25  C   UNL     1       1.383   8.951  19.425  0.00  0.00    +0.000 A 
ATOM     26  C   UNL     1       1.532   7.995  20.438  0.00  0.00    +0.000 A 
ATOM     27  C   UNL     1       1.220   8.348  21.754  0.00  0.00    +0.000 A 
ATOM     28  C   UNL     1       0.737   9.634  22.045  0.00  0.00    +0.000 A 
ATOM     29  C   UNL     1       0.562  10.594  21.028  0.00  0.00    +0.000 A 
ATOM     30  C   UNL     1       0.075  11.895  21.287  0.00  0.00    +0.000 A 
BRANCH  21  32
ATOM     31  C   UNL     1      -0.400  14.405  21.995  0.00  0.00    +0.000 C 
ATOM     32  O   UNL     1      -0.559  14.063  20.618  0.00  0.00    +0.000 OA
ENDBRANCH  21  32
ENDBRANCH  19  26
ENDBRANCH  18  19
ENDBRANCH   1  18
TORSDOF 8
ENDMDL
MODEL 6
REMARK VINA RESULT:      -8.2      1.872      2.571
REMARK  Name = 
REMARK  10 active torsions:
REMARK  status: ('A' for Active; 'I' for Inactive)
REMARK    1  A    between atoms: C_1  and  O_2
REMARK    2  A    between atoms: O_2  and  C_3
REMARK    3  A    between atoms: C_8  and  C_9
REMARK    4  A    between atoms: C_9  and  C_11
REMARK    5  A    between atoms: C_11  and  O_12
REMARK    6  A    between atoms: O_12  and  C_13
REMARK    7  A    between atoms: C_13  and  C_15
REMARK    8  A    between atoms: C_15  and  O_16
REMARK    9  A    between atoms: O_16  and  C_17
REMARK   10  A    between atoms: C_21  and  C_22
REMARK                            x       y       z     vdW  Elec       q    Type
REMARK                         _______ _______ _______ _____ _____    ______ ____
ROOT
ATOM      1  O   UNL     1       0.794   3.733  18.848  0.00  0.00    +0.000 OA
ENDROOT
BRANCH   1   2
ATOM      2  C   UNL     1       1.060   2.414  18.623  0.00  0.00    +0.000 C 
ATOM      3  O   UNL     1       0.241   1.509  18.679  0.00  0.00    +0.000 OA
BRANCH   2   4
ATOM      4  C   UNL     1       2.481   2.263  18.099  0.00  0.00    +0.000 C 
BRANCH   4   5
ATOM      5  O   UNL     1       2.808   3.187  17.074  0.00  0.00    +0.000 OA
BRANCH   5   6
ATOM      6  C   UNL     1       3.907   3.970  17.309  0.00  0.00    +0.000 A 
ATOM      7  C   UNL     1       4.196   4.921  16.330  0.00  0.00    +0.000 A 
ATOM      8  C   UNL     1       5.295   5.789  16.464  0.00  0.00    +0.000 A 
ATOM      9  C   UNL     1       6.126   5.729  17.589  0.00  0.00    +0.000 A 
ATOM     10  C   UNL     1       7.283   6.605  17.832  0.00  0.00    +0.000 A 
ATOM     11  C   UNL     1       7.711   7.677  16.873  0.00  0.00    +0.000 C 
ATOM     12  C   UNL     1       7.979   6.434  18.969  0.00  0.00    +0.000 A 
ATOM     13  C   UNL     1       7.661   5.421  19.982  0.00  0.00    +0.000 A 
ATOM     14  O   UNL     1       8.331   5.317  21.001  0.00  0.00    +0.000 OA
ATOM     15  O   UNL     1       6.581   4.601  19.720  0.00  0.00    +0.000 OA
ATOM     16  C   UNL     1       5.819   4.762  18.548  0.00  0.00    +0.000 A 
ATOM     17  C   UNL     1       4.737   3.887  18.421  0.00  0.00    +0.000 A 
ENDBRANCH   5   6
ENDBRANCH   4   5
ENDBRANCH   2   4
ENDBRANCH   1   2
BRANCH   1  18
ATOM     18  C   UNL     1       0.932   4.143  20.209  0.00  0.00    +0.000 C 
BRANCH  18  19
ATOM     19  C   UNL     1       2.051   5.148  20.468  0.00  0.00    +0.000 C 
ATOM     20  O   UNL     1       3.052   4.849  21.118  0.00  0.00    +0.000 OA
BRANCH  19  26
ATOM     21  C   UNL     1       0.926  11.496  19.336  0.00  0.00    +0.000 A 
ATOM     22  C   UNL     1       0.476  11.127  20.605  0.00  0.00    +0.000 A 
ATOM     23  C   UNL     1       0.622   9.816  21.050  0.00  0.00    +0.000 A 
ATOM     24  C   UNL     1       1.212   8.838  20.243  0.00  0.00    +0.000 A 
ATOM     25  C   UNL     1       1.350   7.515  20.697  0.00  0.00    +0.000 A 
ATOM     26  C   UNL     1       1.950   6.532  19.900  0.00  0.00    +0.000 A 
ATOM     27  C   UNL     1       2.386   6.872  18.617  0.00  0.00    +0.000 A 
ATOM     28  C   UNL     1       2.248   8.190  18.150  0.00  0.00    +0.000 A 
ATOM     29  C   UNL     1       1.667   9.190  18.954  0.00  0.00    +0.000 A 
ATOM     30  C   UNL     1       1.518  10.525  18.516  0.00  0.00    +0.000 A 
BRANCH  21  32
ATOM     31  C   UNL     1      -0.490  13.201  18.501  0.00  0.00    +0.000 C 
ATOM     32  O   UNL     1       0.832  12.760  18.811  0.00  0.00    +0.000 OA
ENDBRANCH  21  32
ENDBRANCH  19  26
ENDBRANCH  18  19
ENDBRANCH   1  18
TORSDOF 8
ENDMDL
MODEL 7
REMARK VINA RESULT:      -8.2      2.073      2.949
REMARK  Name = 
REMARK  10 active torsions:
REMARK  status: ('A' for Active; 'I' for Inactive)
REMARK    1  A    between atoms: C_1  and  O_2
REMARK    2  A    between atoms: O_2  and  C_3
REMARK    3  A    between atoms: C_8  and  C_9
REMARK    4  A    between atoms: C_9  and  C_11
REMARK    5  A    between atoms: C_11  and  O_12
REMARK    6  A    between atoms: O_12  and  C_13
REMARK    7  A    between atoms: C_13  and  C_15
REMARK    8  A    between atoms: C_15  and  O_16
REMARK    9  A    between atoms: O_16  and  C_17
REMARK   10  A    between atoms: C_21  and  C_22
REMARK                            x       y       z     vdW  Elec       q    Type
REMARK                         _______ _______ _______ _____ _____    ______ ____
ROOT
ATOM      1  O   UNL     1       3.295   6.457  19.426  0.00  0.00    +0.000 OA
ENDROOT
BRANCH   1   2
ATOM      2  C   UNL     1       3.187   5.205  19.957  0.00  0.00    +0.000 C 
ATOM      3  O   UNL     1       2.317   4.840  20.733  0.00  0.00    +0.000 OA
BRANCH   2   4
ATOM      4  C   UNL     1       4.192   4.278  19.286  0.00  0.00    +0.000 C 
BRANCH   4   5
ATOM      5  O   UNL     1       5.325   4.953  18.767  0.00  0.00    +0.000 OA
BRANCH   5   6
ATOM      6  C   UNL     1       5.588   4.739  17.440  0.00  0.00    +0.000 A 
ATOM      7  C   UNL     1       4.724   3.864  16.781  0.00  0.00    +0.000 A 
ATOM      8  C   UNL     1       4.888   3.573  15.415  0.00  0.00    +0.000 A 
ATOM      9  C   UNL     1       5.921   4.159  14.673  0.00  0.00    +0.000 A 
ATOM     10  C   UNL     1       6.163   3.937  13.240  0.00  0.00    +0.000 A 
ATOM     11  C   UNL     1       5.312   3.029  12.400  0.00  0.00    +0.000 C 
ATOM     12  C   UNL     1       7.190   4.583  12.663  0.00  0.00    +0.000 A 
ATOM     13  C   UNL     1       8.092   5.494  13.377  0.00  0.00    +0.000 A 
ATOM     14  O   UNL     1       9.010   6.058  12.794  0.00  0.00    +0.000 OA
ATOM     15  O   UNL     1       7.853   5.670  14.725  0.00  0.00    +0.000 OA
ATOM     16  C   UNL     1       6.777   5.023  15.361  0.00  0.00    +0.000 A 
ATOM     17  C   UNL     1       6.630   5.312  16.719  0.00  0.00    +0.000 A 
ENDBRANCH   5   6
ENDBRANCH   4   5
ENDBRANCH   2   4
ENDBRANCH   1   2
BRANCH   1  18
ATOM     18  C   UNL     1       2.183   6.861  18.626  0.00  0.00    +0.000 C 
BRANCH  18  19
ATOM     19  C   UNL     1       2.189   8.328  18.209  0.00  0.00    +0.000 C 
ATOM     20  O   UNL     1       2.806   8.719  17.219  0.00  0.00    +0.000 OA
BRANCH  19  26
ATOM     21  C   UNL     1      -1.219  11.577  22.757  0.00  0.00    +0.000 A 
ATOM     22  C   UNL     1      -0.849  10.312  23.218  0.00  0.00    +0.000 A 
ATOM     23  C   UNL     1      -0.111   9.455  22.406  0.00  0.00    +0.000 A 
ATOM     24  C   UNL     1       0.271   9.830  21.114  0.00  0.00    +0.000 A 
ATOM     25  C   UNL     1       1.010   8.957  20.298  0.00  0.00    +0.000 A 
ATOM     26  C   UNL     1       1.405   9.328  19.007  0.00  0.00    +0.000 A 
ATOM     27  C   UNL     1       1.025  10.580  18.515  0.00  0.00    +0.000 A 
ATOM     28  C   UNL     1       0.282  11.458  19.319  0.00  0.00    +0.000 A 
ATOM     29  C   UNL     1      -0.101  11.102  20.628  0.00  0.00    +0.000 A 
ATOM     30  C   UNL     1      -0.845  11.964  21.464  0.00  0.00    +0.000 A 
BRANCH  21  32
ATOM     31  C   UNL     1      -3.322  12.185  23.661  0.00  0.00    +0.000 C 
ATOM     32  O   UNL     1      -1.939  12.491  23.482  0.00  0.00    +0.000 OA
ENDBRANCH  21  32
ENDBRANCH  19  26
ENDBRANCH  18  19
ENDBRANCH   1  18
TORSDOF 8
ENDMDL
MODEL 8
REMARK VINA RESULT:      -8.1      1.569      2.521
REMARK  Name = 
REMARK  10 active torsions:
REMARK  status: ('A' for Active; 'I' for Inactive)
REMARK    1  A    between atoms: C_1  and  O_2
REMARK    2  A    between atoms: O_2  and  C_3
REMARK    3  A    between atoms: C_8  and  C_9
REMARK    4  A    between atoms: C_9  and  C_11
REMARK    5  A    between atoms: C_11  and  O_12
REMARK    6  A    between atoms: O_12  and  C_13
REMARK    7  A    between atoms: C_13  and  C_15
REMARK    8  A    between atoms: C_15  and  O_16
REMARK    9  A    between atoms: O_16  and  C_17
REMARK   10  A    between atoms: C_21  and  C_22
REMARK                            x       y       z     vdW  Elec       q    Type
REMARK                         _______ _______ _______ _____ _____    ______ ____
ROOT
ATOM      1  O   UNL     1       0.900   4.417  20.496  0.00  0.00    +0.000 OA
ENDROOT
BRANCH   1   2
ATOM      2  C   UNL     1       1.221   3.091  20.547  0.00  0.00    +0.000 C 
ATOM      3  O   UNL     1       1.240   2.408  21.560  0.00  0.00    +0.000 OA
BRANCH   2   4
ATOM      4  C   UNL     1       1.359   2.544  19.133  0.00  0.00    +0.000 C 
BRANCH   4   5
ATOM      5  O   UNL     1       2.613   1.933  18.882  0.00  0.00    +0.000 OA
BRANCH   5   6
ATOM      6  C   UNL     1       3.633   2.785  18.547  0.00  0.00    +0.000 A 
ATOM      7  C   UNL     1       4.394   3.271  19.610  0.00  0.00    +0.000 A 
ATOM      8  C   UNL     1       5.474   4.146  19.389  0.00  0.00    +0.000 A 
ATOM      9  C   UNL     1       5.821   4.547  18.094  0.00  0.00    +0.000 A 
ATOM     10  C   UNL     1       6.942   5.438  17.758  0.00  0.00    +0.000 A 
ATOM     11  C   UNL     1       7.851   6.032  18.794  0.00  0.00    +0.000 C 
ATOM     12  C   UNL     1       7.159   5.723  16.463  0.00  0.00    +0.000 A 
ATOM     13  C   UNL     1       6.340   5.206  15.360  0.00  0.00    +0.000 A 
ATOM     14  O   UNL     1       6.590   5.498  14.198  0.00  0.00    +0.000 OA
ATOM     15  O   UNL     1       5.283   4.387  15.705  0.00  0.00    +0.000 OA
ATOM     16  C   UNL     1       5.036   4.053  17.050  0.00  0.00    +0.000 A 
ATOM     17  C   UNL     1       3.955   3.192  17.258  0.00  0.00    +0.000 A 
ENDBRANCH   5   6
ENDBRANCH   4   5
ENDBRANCH   2   4
ENDBRANCH   1   2
BRANCH   1  18
ATOM     18  C   UNL     1       1.977   5.300  20.809  0.00  0.00    +0.000 C 
BRANCH  18  19
ATOM     19  C   UNL     1       2.152   6.469  19.844  0.00  0.00    +0.000 C 
ATOM     20  O   UNL     1       2.703   6.332  18.753  0.00  0.00    +0.000 OA
BRANCH  19  26
ATOM     21  C   UNL     1       0.227  12.724  20.013  0.00  0.00    +0.000 A 
ATOM     22  C   UNL     1       0.740  12.392  18.757  0.00  0.00    +0.000 A 
ATOM     23  C   UNL     1       1.204  11.104  18.504  0.00  0.00    +0.000 A 
ATOM     24  C   UNL     1       1.176  10.116  19.494  0.00  0.00    +0.000 A 
ATOM     25  C   UNL     1       1.653   8.820  19.232  0.00  0.00    +0.000 A 
ATOM     26  C   UNL     1       1.620   7.821  20.214  0.00  0.00    +0.000 A 
ATOM     27  C   UNL     1       1.133   8.137  21.486  0.00  0.00    +0.000 A 
ATOM     28  C   UNL     1       0.660   9.431  21.760  0.00  0.00    +0.000 A 
ATOM     29  C   UNL     1       0.668  10.435  20.771  0.00  0.00    +0.000 A 
ATOM     30  C   UNL     1       0.196  11.744  21.014  0.00  0.00    +0.000 A 
BRANCH  21  32
ATOM     31  C   UNL     1      -1.679  14.075  20.400  0.00  0.00    +0.000 C 
ATOM     32  O   UNL     1      -0.257  13.960  20.356  0.00  0.00    +0.000 OA
ENDBRANCH  21  32
ENDBRANCH  19  26
ENDBRANCH  18  19
ENDBRANCH   1  18
TORSDOF 8
ENDMDL
MODEL 9
REMARK VINA RESULT:      -7.9      2.170      3.372
REMARK  Name = 
REMARK  10 active torsions:
REMARK  status: ('A' for Active; 'I' for Inactive)
REMARK    1  A    between atoms: C_1  and  O_2
REMARK    2  A    between atoms: O_2  and  C_3
REMARK    3  A    between atoms: C_8  and  C_9
REMARK    4  A    between atoms: C_9  and  C_11
REMARK    5  A    between atoms: C_11  and  O_12
REMARK    6  A    between atoms: O_12  and  C_13
REMARK    7  A    between atoms: C_13  and  C_15
REMARK    8  A    between atoms: C_15  and  O_16
REMARK    9  A    between atoms: O_16  and  C_17
REMARK   10  A    between atoms: C_21  and  C_22
REMARK                            x       y       z     vdW  Elec       q    Type
REMARK                         _______ _______ _______ _____ _____    ______ ____
ROOT
ATOM      1  O   UNL     1       1.074   2.632  19.324  0.00  0.00    +0.000 OA
ENDROOT
BRANCH   1   2
ATOM      2  C   UNL     1       1.329   3.203  18.111  0.00  0.00    +0.000 C 
ATOM      3  O   UNL     1       0.695   4.124  17.617  0.00  0.00    +0.000 OA
BRANCH   2   4
ATOM      4  C   UNL     1       2.637   2.658  17.556  0.00  0.00    +0.000 C 
BRANCH   4   5
ATOM      5  O   UNL     1       3.211   3.478  16.552  0.00  0.00    +0.000 OA
BRANCH   5   6
ATOM      6  C   UNL     1       4.254   4.270  16.955  0.00  0.00    +0.000 A 
ATOM      7  C   UNL     1       4.468   5.423  16.200  0.00  0.00    +0.000 A 
ATOM      8  C   UNL     1       5.504   6.320  16.523  0.00  0.00    +0.000 A 
ATOM      9  C   UNL     1       6.344   6.084  17.617  0.00  0.00    +0.000 A 
ATOM     10  C   UNL     1       7.437   6.968  18.049  0.00  0.00    +0.000 A 
ATOM     11  C   UNL     1       7.782   8.245  17.340  0.00  0.00    +0.000 C 
ATOM     12  C   UNL     1       8.150   6.613  19.131  0.00  0.00    +0.000 A 
ATOM     13  C   UNL     1       7.911   5.389  19.906  0.00  0.00    +0.000 A 
ATOM     14  O   UNL     1       8.594   5.121  20.887  0.00  0.00    +0.000 OA
ATOM     15  O   UNL     1       6.891   4.569  19.468  0.00  0.00    +0.000 OA
ATOM     16  C   UNL     1       6.112   4.917  18.349  0.00  0.00    +0.000 A 
ATOM     17  C   UNL     1       5.094   4.014  18.032  0.00  0.00    +0.000 A 
ENDBRANCH   5   6
ENDBRANCH   4   5
ENDBRANCH   2   4
ENDBRANCH   1   2
BRANCH   1  18
ATOM     18  C   UNL     1       0.966   3.558  20.405  0.00  0.00    +0.000 C 
BRANCH  18  19
ATOM     19  C   UNL     1       2.105   4.568  20.503  0.00  0.00    +0.000 C 
ATOM     20  O   UNL     1       3.274   4.215  20.655  0.00  0.00    +0.000 OA
BRANCH  19  26
ATOM     21  C   UNL     1       1.584  10.832  18.675  0.00  0.00    +0.000 A 
ATOM     22  C   UNL     1       2.285  10.090  17.722  0.00  0.00    +0.000 A 
ATOM     23  C   UNL     1       2.505   8.729  17.913  0.00  0.00    +0.000 A 
ATOM     24  C   UNL     1       2.042   8.073  19.059  0.00  0.00    +0.000 A 
ATOM     25  C   UNL     1       2.275   6.700  19.248  0.00  0.00    +0.000 A 
ATOM     26  C   UNL     1       1.806   6.033  20.387  0.00  0.00    +0.000 A 
ATOM     27  C   UNL     1       1.124   6.761  21.366  0.00  0.00    +0.000 A 
ATOM     28  C   UNL     1       0.891   8.135  21.190  0.00  0.00    +0.000 A 
ATOM     29  C   UNL     1       1.339   8.809  20.037  0.00  0.00    +0.000 A 
ATOM     30  C   UNL     1       1.117  10.188  19.828  0.00  0.00    +0.000 A 
BRANCH  21  32
ATOM     31  C   UNL     1       2.441  13.040  18.691  0.00  0.00    +0.000 C 
ATOM     32  O   UNL     1       1.313  12.173  18.574  0.00  0.00    +0.000 OA
ENDBRANCH  21  32
ENDBRANCH  19  26
ENDBRANCH  18  19
ENDBRANCH   1  18
TORSDOF 8
ENDMDL
