MODEL 1
REMARK VINA RESULT:      -7.5      0.000      0.000
REMARK  Name = 
REMARK  8 active torsions:
REMARK  status: ('A' for Active; 'I' for Inactive)
REMARK    1  A    between atoms: C_1  and  O_2
REMARK    2  A    between atoms: O_2  and  C_3
REMARK    3  A    between atoms: C_7  and  O_8
REMARK    4  A    between atoms: O_8  and  C_9
REMARK    5  A    between atoms: C_9  and  C_10
REMARK    6  A    between atoms: C_18  and  O_19
REMARK    7  A    between atoms: O_19  and  C_20
REMARK    8  A    between atoms: C_22  and  O_23
REMARK                            x       y       z     vdW  Elec       q    Type
REMARK                         _______ _______ _______ _____ _____    ______ ____
ROOT
ATOM      1  C   UNL     1       5.383   6.564  16.731  0.00  0.00    +0.000 C 
ATOM      2  O   UNL     1       4.982   7.226  15.768  0.00  0.00    +0.000 OA
ATOM      3  N   UNL     1       4.579   6.319  17.837  0.00  0.00    +0.000 N 
ATOM      4  C   UNL     1       3.174   6.715  17.808  0.00  0.00    +0.000 C 
ATOM      5  C   UNL     1       2.269   5.478  17.846  0.00  0.00    +0.000 C 
ATOM      6  C   UNL     1       2.641   4.545  19.027  0.00  0.00    +0.000 C 
ATOM      7  C   UNL     1       4.151   4.236  19.023  0.00  0.00    +0.000 C 
ATOM      8  C   UNL     1       4.951   5.537  19.013  0.00  0.00    +0.000 C 
ATOM      9  C   UNL     1       1.724   3.271  19.100  0.00  0.00    +0.000 C 
ATOM     10  C   UNL     1       0.807   4.048  20.073  0.00  0.00    +0.000 C 
ATOM     11  C   UNL     1       2.010   4.963  20.399  0.00  0.00    +0.000 C 
ENDROOT
BRANCH   9  12
ATOM     12  O   UNL     1       2.338   2.086  19.667  0.00  0.00    +0.000 OA
ATOM     13  C   UNL     1       3.110   1.294  18.772  0.00  0.00    +0.000 C 
ENDBRANCH   9  12
BRANCH  11  14
ATOM     14  O   UNL     1       2.743   4.604  21.591  0.00  0.00    +0.000 OA
ATOM     15  H   UNL     1       2.898   3.643  21.517  0.00  0.00    +0.000 HD
ENDBRANCH  11  14
BRANCH   1  16
ATOM     16  C   UNL     1       6.789   5.951  16.686  0.00  0.00    +0.000 C 
BRANCH  16  17
ATOM     17  O   UNL     1       6.783   4.624  16.181  0.00  0.00    +0.000 OA
BRANCH  17  22
ATOM     18  C   UNL     1       6.078   3.536  12.690  0.00  0.00    +0.000 A 
ATOM     19  C   UNL     1       7.003   4.341  12.026  0.00  0.00    +0.000 A 
ATOM     20  C   UNL     1       7.809   5.225  12.741  0.00  0.00    +0.000 A 
ATOM     21  C   UNL     1       7.700   5.295  14.133  0.00  0.00    +0.000 A 
ATOM     22  C   UNL     1       6.781   4.492  14.811  0.00  0.00    +0.000 A 
ATOM     23  C   UNL     1       5.966   3.624  14.083  0.00  0.00    +0.000 A 
BRANCH  18  25
ATOM     24  C   UNL     1       4.174   3.256  11.293  0.00  0.00    +0.000 C 
ATOM     25  O   UNL     1       5.348   2.703  11.885  0.00  0.00    +0.000 OA
ENDBRANCH  18  25
ENDBRANCH  17  22
ENDBRANCH  16  17
ENDBRANCH   1  16
TORSDOF 6
ENDMDL
MODEL 2
REMARK VINA RESULT:      -7.2      1.896      2.956
REMARK  Name = 
REMARK  8 active torsions:
REMARK  status: ('A' for Active; 'I' for Inactive)
REMARK    1  A    between atoms: C_1  and  O_2
REMARK    2  A    between atoms: O_2  and  C_3
REMARK    3  A    between atoms: C_7  and  O_8
REMARK    4  A    between atoms: O_8  and  C_9
REMARK    5  A    between atoms: C_9  and  C_10
REMARK    6  A    between atoms: C_18  and  O_19
REMARK    7  A    between atoms: O_19  and  C_20
REMARK    8  A    between atoms: C_22  and  O_23
REMARK                            x       y       z     vdW  Elec       q    Type
REMARK                         _______ _______ _______ _____ _____    ______ ____
ROOT
ATOM      1  C   UNL     1       6.769   5.510  15.866  0.00  0.00    +0.000 C 
ATOM      2  O   UNL     1       7.519   6.402  16.275  0.00  0.00    +0.000 OA
ATOM      3  N   UNL     1       6.272   4.527  16.713  0.00  0.00    +0.000 N 
ATOM      4  C   UNL     1       6.504   4.628  18.150  0.00  0.00    +0.000 C 
ATOM      5  C   UNL     1       5.180   4.847  18.891  0.00  0.00    +0.000 C 
ATOM      6  C   UNL     1       4.129   3.780  18.493  0.00  0.00    +0.000 C 
ATOM      7  C   UNL     1       3.999   3.688  16.960  0.00  0.00    +0.000 C 
ATOM      8  C   UNL     1       5.369   3.443  16.332  0.00  0.00    +0.000 C 
ATOM      9  C   UNL     1       2.763   3.970  19.245  0.00  0.00    +0.000 C 
ATOM     10  C   UNL     1       3.275   2.986  20.322  0.00  0.00    +0.000 C 
ATOM     11  C   UNL     1       4.262   2.426  19.272  0.00  0.00    +0.000 C 
ENDROOT
BRANCH   9  12
ATOM     12  O   UNL     1       1.584   3.521  18.529  0.00  0.00    +0.000 OA
ATOM     13  C   UNL     1       0.665   2.731  19.275  0.00  0.00    +0.000 C 
ENDBRANCH   9  12
BRANCH  11  14
ATOM     14  O   UNL     1       3.814   1.234  18.589  0.00  0.00    +0.000 OA
ATOM     15  H   UNL     1       3.065   0.901  19.119  0.00  0.00    +0.000 HD
ENDBRANCH  11  14
BRANCH   1  16
ATOM     16  C   UNL     1       6.335   5.510  14.395  0.00  0.00    +0.000 C 
BRANCH  16  17
ATOM     17  O   UNL     1       7.087   4.596  13.610  0.00  0.00    +0.000 OA
BRANCH  17  22
ATOM     18  C   UNL     1       6.050   1.819  11.357  0.00  0.00    +0.000 A 
ATOM     19  C   UNL     1       4.728   2.206  11.137  0.00  0.00    +0.000 A 
ATOM     20  C   UNL     1       4.218   3.349  11.751  0.00  0.00    +0.000 A 
ATOM     21  C   UNL     1       5.039   4.120  12.578  0.00  0.00    +0.000 A 
ATOM     22  C   UNL     1       6.366   3.746  12.803  0.00  0.00    +0.000 A 
ATOM     23  C   UNL     1       6.861   2.590  12.199  0.00  0.00    +0.000 A 
BRANCH  18  25
ATOM     24  C   UNL     1       6.079  -0.558  11.296  0.00  0.00    +0.000 C 
ATOM     25  O   UNL     1       6.440   0.685  10.697  0.00  0.00    +0.000 OA
ENDBRANCH  18  25
ENDBRANCH  17  22
ENDBRANCH  16  17
ENDBRANCH   1  16
TORSDOF 6
ENDMDL
MODEL 3
REMARK VINA RESULT:      -7.1      2.844      7.377
REMARK  Name = 
REMARK  8 active torsions:
REMARK  status: ('A' for Active; 'I' for Inactive)
REMARK    1  A    between atoms: C_1  and  O_2
REMARK    2  A    between atoms: O_2  and  C_3
REMARK    3  A    between atoms: C_7  and  O_8
REMARK    4  A    between atoms: O_8  and  C_9
REMARK    5  A    between atoms: C_9  and  C_10
REMARK    6  A    between atoms: C_18  and  O_19
REMARK    7  A    between atoms: O_19  and  C_20
REMARK    8  A    between atoms: C_22  and  O_23
REMARK                            x       y       z     vdW  Elec       q    Type
REMARK                         _______ _______ _______ _____ _____    ______ ____
ROOT
ATOM      1  C   UNL     1       2.074   4.270  18.649  0.00  0.00    +0.000 C 
ATOM      2  O   UNL     1       1.157   4.185  17.826  0.00  0.00    +0.000 OA
ATOM      3  N   UNL     1       3.399   4.049  18.294  0.00  0.00    +0.000 N 
ATOM      4  C   UNL     1       3.747   3.866  16.888  0.00  0.00    +0.000 C 
ATOM      5  C   UNL     1       4.618   5.029  16.398  0.00  0.00    +0.000 C 
ATOM      6  C   UNL     1       5.837   5.251  17.329  0.00  0.00    +0.000 C 
ATOM      7  C   UNL     1       5.387   5.361  18.799  0.00  0.00    +0.000 C 
ATOM      8  C   UNL     1       4.553   4.142  19.185  0.00  0.00    +0.000 C 
ATOM      9  C   UNL     1       6.757   6.430  16.848  0.00  0.00    +0.000 C 
ATOM     10  C   UNL     1       7.603   5.390  16.078  0.00  0.00    +0.000 C 
ATOM     11  C   UNL     1       7.052   4.306  17.034  0.00  0.00    +0.000 C 
ENDROOT
BRANCH   9  12
ATOM     12  O   UNL     1       7.473   7.136  17.893  0.00  0.00    +0.000 OA
ATOM     13  C   UNL     1       7.797   8.494  17.620  0.00  0.00    +0.000 C 
ENDBRANCH   9  12
BRANCH  11  14
ATOM     14  O   UNL     1       7.913   3.982  18.147  0.00  0.00    +0.000 OA
ATOM     15  H   UNL     1       7.840   3.015  18.255  0.00  0.00    +0.000 HD
ENDBRANCH  11  14
BRANCH   1  16
ATOM     16  C   UNL     1       1.751   4.677  20.092  0.00  0.00    +0.000 C 
BRANCH  16  17
ATOM     17  O   UNL     1       2.502   5.806  20.515  0.00  0.00    +0.000 OA
BRANCH  17  22
ATOM     18  C   UNL     1       0.835   9.128  20.297  0.00  0.00    +0.000 A 
ATOM     19  C   UNL     1       1.178   9.453  18.985  0.00  0.00    +0.000 A 
ATOM     20  C   UNL     1       1.961   8.584  18.227  0.00  0.00    +0.000 A 
ATOM     21  C   UNL     1       2.391   7.374  18.779  0.00  0.00    +0.000 A 
ATOM     22  C   UNL     1       2.049   7.034  20.090  0.00  0.00    +0.000 A 
ATOM     23  C   UNL     1       1.281   7.920  20.846  0.00  0.00    +0.000 A 
BRANCH  18  25
ATOM     24  C   UNL     1       0.118  11.391  20.445  0.00  0.00    +0.000 C 
ATOM     25  O   UNL     1       0.058  10.055  20.940  0.00  0.00    +0.000 OA
ENDBRANCH  18  25
ENDBRANCH  17  22
ENDBRANCH  16  17
ENDBRANCH   1  16
TORSDOF 6
ENDMDL
MODEL 4
REMARK VINA RESULT:      -7.0      4.015      6.213
REMARK  Name = 
REMARK  8 active torsions:
REMARK  status: ('A' for Active; 'I' for Inactive)
REMARK    1  A    between atoms: C_1  and  O_2
REMARK    2  A    between atoms: O_2  and  C_3
REMARK    3  A    between atoms: C_7  and  O_8
REMARK    4  A    between atoms: O_8  and  C_9
REMARK    5  A    between atoms: C_9  and  C_10
REMARK    6  A    between atoms: C_18  and  O_19
REMARK    7  A    between atoms: O_19  and  C_20
REMARK    8  A    between atoms: C_22  and  O_23
REMARK                            x       y       z     vdW  Elec       q    Type
REMARK                         _______ _______ _______ _____ _____    ______ ____
ROOT
ATOM      1  C   UNL     1       6.986   6.447  16.642  0.00  0.00    +0.000 C 
ATOM      2  O   UNL     1       7.720   6.016  15.748  0.00  0.00    +0.000 OA
ATOM      3  N   UNL     1       5.676   6.008  16.789  0.00  0.00    +0.000 N 
ATOM      4  C   UNL     1       5.192   4.898  15.973  0.00  0.00    +0.000 C 
ATOM      5  C   UNL     1       4.880   3.683  16.854  0.00  0.00    +0.000 C 
ATOM      6  C   UNL     1       3.941   4.064  18.026  0.00  0.00    +0.000 C 
ATOM      7  C   UNL     1       4.488   5.287  18.789  0.00  0.00    +0.000 C 
ATOM      8  C   UNL     1       4.735   6.440  17.819  0.00  0.00    +0.000 C 
ATOM      9  C   UNL     1       3.593   2.837  18.944  0.00  0.00    +0.000 C 
ATOM     10  C   UNL     1       2.332   2.610  18.078  0.00  0.00    +0.000 C 
ATOM     11  C   UNL     1       2.420   4.093  17.647  0.00  0.00    +0.000 C 
ENDROOT
BRANCH   9  12
ATOM     12  O   UNL     1       3.321   3.148  20.334  0.00  0.00    +0.000 OA
ATOM     13  C   UNL     1       2.149   2.561  20.887  0.00  0.00    +0.000 C 
ENDBRANCH   9  12
BRANCH  11  14
ATOM     14  O   UNL     1       1.578   4.995  18.397  0.00  0.00    +0.000 OA
ATOM     15  H   UNL     1       0.805   5.161  17.825  0.00  0.00    +0.000 HD
ENDBRANCH  11  14
BRANCH   1  16
ATOM     16  C   UNL     1       7.545   7.459  17.650  0.00  0.00    +0.000 C 
BRANCH  16  17
ATOM     17  O   UNL     1       7.337   8.802  17.238  0.00  0.00    +0.000 OA
BRANCH  17  22
ATOM     18  C   UNL     1       9.033  11.981  18.177  0.00  0.00    +0.000 A 
ATOM     19  C   UNL     1       9.778  11.513  19.259  0.00  0.00    +0.000 A 
ATOM     20  C   UNL     1       9.682  10.181  19.656  0.00  0.00    +0.000 A 
ATOM     21  C   UNL     1       8.847   9.305  18.956  0.00  0.00    +0.000 A 
ATOM     22  C   UNL     1       8.099   9.760  17.868  0.00  0.00    +0.000 A 
ATOM     23  C   UNL     1       8.188  11.100  17.491  0.00  0.00    +0.000 A 
BRANCH  18  25
ATOM     24  C   UNL     1       9.632  14.151  18.945  0.00  0.00    +0.000 C 
ATOM     25  O   UNL     1       9.214  13.305  17.876  0.00  0.00    +0.000 OA
ENDBRANCH  18  25
ENDBRANCH  17  22
ENDBRANCH  16  17
ENDBRANCH   1  16
TORSDOF 6
ENDMDL
MODEL 5
REMARK VINA RESULT:      -6.9      4.249      6.477
REMARK  Name = 
REMARK  8 active torsions:
REMARK  status: ('A' for Active; 'I' for Inactive)
REMARK    1  A    between atoms: C_1  and  O_2
REMARK    2  A    between atoms: O_2  and  C_3
REMARK    3  A    between atoms: C_7  and  O_8
REMARK    4  A    between atoms: O_8  and  C_9
REMARK    5  A    between atoms: C_9  and  C_10
REMARK    6  A    between atoms: C_18  and  O_19
REMARK    7  A    between atoms: O_19  and  C_20
REMARK    8  A    between atoms: C_22  and  O_23
REMARK                            x       y       z     vdW  Elec       q    Type
REMARK                         _______ _______ _______ _____ _____    ______ ____
ROOT
ATOM      1  C   UNL     1       6.739   6.856  16.803  0.00  0.00    +0.000 C 
ATOM      2  O   UNL     1       7.689   6.448  16.126  0.00  0.00    +0.000 OA
ATOM      3  N   UNL     1       5.502   6.225  16.783  0.00  0.00    +0.000 N 
ATOM      4  C   UNL     1       5.350   4.959  16.073  0.00  0.00    +0.000 C 
ATOM      5  C   UNL     1       5.045   3.826  17.060  0.00  0.00    +0.000 C 
ATOM      6  C   UNL     1       3.850   4.185  17.978  0.00  0.00    +0.000 C 
ATOM      7  C   UNL     1       4.058   5.566  18.630  0.00  0.00    +0.000 C 
ATOM      8  C   UNL     1       4.326   6.618  17.556  0.00  0.00    +0.000 C 
ATOM      9  C   UNL     1       3.505   3.038  18.995  0.00  0.00    +0.000 C 
ATOM     10  C   UNL     1       2.484   2.501  17.967  0.00  0.00    +0.000 C 
ATOM     11  C   UNL     1       2.445   3.913  17.339  0.00  0.00    +0.000 C 
ENDROOT
BRANCH   9  12
ATOM     12  O   UNL     1       2.925   3.468  20.253  0.00  0.00    +0.000 OA
ATOM     13  C   UNL     1       1.907   2.630  20.789  0.00  0.00    +0.000 C 
ENDBRANCH   9  12
BRANCH  11  14
ATOM     14  O   UNL     1       1.353   4.747  17.784  0.00  0.00    +0.000 OA
ATOM     15  H   UNL     1       1.452   5.585  17.293  0.00  0.00    +0.000 HD
ENDBRANCH  11  14
BRANCH   1  16
ATOM     16  C   UNL     1       6.942   8.063  17.728  0.00  0.00    +0.000 C 
BRANCH  16  17
ATOM     17  O   UNL     1       8.311   8.288  18.030  0.00  0.00    +0.000 OA
BRANCH  17  22
ATOM     18  C   UNL     1       9.606  11.280  19.829  0.00  0.00    +0.000 A 
ATOM     19  C   UNL     1       9.182  12.264  18.937  0.00  0.00    +0.000 A 
ATOM     20  C   UNL     1       8.507  11.912  17.769  0.00  0.00    +0.000 A 
ATOM     21  C   UNL     1       8.240  10.567  17.498  0.00  0.00    +0.000 A 
ATOM     22  C   UNL     1       8.656   9.572  18.385  0.00  0.00    +0.000 A 
ATOM     23  C   UNL     1       9.347   9.934  19.542  0.00  0.00    +0.000 A 
BRANCH  18  25
ATOM     24  C   UNL     1       9.907  13.058  21.378  0.00  0.00    +0.000 C 
ATOM     25  O   UNL     1      10.252  11.745  20.943  0.00  0.00    +0.000 OA
ENDBRANCH  18  25
ENDBRANCH  17  22
ENDBRANCH  16  17
ENDBRANCH   1  16
TORSDOF 6
ENDMDL
MODEL 6
REMARK VINA RESULT:      -6.9      1.448      2.592
REMARK  Name = 
REMARK  8 active torsions:
REMARK  status: ('A' for Active; 'I' for Inactive)
REMARK    1  A    between atoms: C_1  and  O_2
REMARK    2  A    between atoms: O_2  and  C_3
REMARK    3  A    between atoms: C_7  and  O_8
REMARK    4  A    between atoms: O_8  and  C_9
REMARK    5  A    between atoms: C_9  and  C_10
REMARK    6  A    between atoms: C_18  and  O_19
REMARK    7  A    between atoms: O_19  and  C_20
REMARK    8  A    between atoms: C_22  and  O_23
REMARK                            x       y       z     vdW  Elec       q    Type
REMARK                         _______ _______ _______ _____ _____    ______ ____
ROOT
ATOM      1  C   UNL     1       6.379   4.639  17.421  0.00  0.00    +0.000 C 
ATOM      2  O   UNL     1       7.434   4.255  17.936  0.00  0.00    +0.000 OA
ATOM      3  N   UNL     1       5.147   4.132  17.813  0.00  0.00    +0.000 N 
ATOM      4  C   UNL     1       5.068   3.239  18.965  0.00  0.00    +0.000 C 
ATOM      5  C   UNL     1       4.286   3.905  20.103  0.00  0.00    +0.000 C 
ATOM      6  C   UNL     1       2.912   4.429  19.612  0.00  0.00    +0.000 C 
ATOM      7  C   UNL     1       3.080   5.301  18.353  0.00  0.00    +0.000 C 
ATOM      8  C   UNL     1       3.846   4.530  17.280  0.00  0.00    +0.000 C 
ATOM      9  C   UNL     1       2.081   5.108  20.760  0.00  0.00    +0.000 C 
ATOM     10  C   UNL     1       1.408   3.740  21.014  0.00  0.00    +0.000 C 
ATOM     11  C   UNL     1       1.787   3.339  19.570  0.00  0.00    +0.000 C 
ENDROOT
BRANCH   9  12
ATOM     12  O   UNL     1       1.173   6.158  20.341  0.00  0.00    +0.000 OA
ATOM     13  C   UNL     1       1.458   7.462  20.832  0.00  0.00    +0.000 C 
ENDBRANCH   9  12
BRANCH  11  14
ATOM     14  O   UNL     1       0.740   3.520  18.592  0.00  0.00    +0.000 OA
ATOM     15  H   UNL     1       0.574   2.631  18.225  0.00  0.00    +0.000 HD
ENDBRANCH  11  14
BRANCH   1  16
ATOM     16  C   UNL     1       6.422   5.740  16.354  0.00  0.00    +0.000 C 
BRANCH  16  17
ATOM     17  O   UNL     1       7.525   5.593  15.471  0.00  0.00    +0.000 OA
BRANCH  17  22
ATOM     18  C   UNL     1       6.111   3.624  12.645  0.00  0.00    +0.000 A 
ATOM     19  C   UNL     1       6.904   4.129  11.616  0.00  0.00    +0.000 A 
ATOM     20  C   UNL     1       7.857   5.112  11.879  0.00  0.00    +0.000 A 
ATOM     21  C   UNL     1       8.030   5.581  13.184  0.00  0.00    +0.000 A 
ATOM     22  C   UNL     1       7.246   5.080  14.225  0.00  0.00    +0.000 A 
ATOM     23  C   UNL     1       6.282   4.110  13.947  0.00  0.00    +0.000 A 
BRANCH  18  25
ATOM     24  C   UNL     1       4.223   3.045  11.320  0.00  0.00    +0.000 C 
ATOM     25  O   UNL     1       5.215   2.659  12.268  0.00  0.00    +0.000 OA
ENDBRANCH  18  25
ENDBRANCH  17  22
ENDBRANCH  16  17
ENDBRANCH   1  16
TORSDOF 6
ENDMDL
MODEL 7
REMARK VINA RESULT:      -6.9      5.137      7.937
REMARK  Name = 
REMARK  8 active torsions:
REMARK  status: ('A' for Active; 'I' for Inactive)
REMARK    1  A    between atoms: C_1  and  O_2
REMARK    2  A    between atoms: O_2  and  C_3
REMARK    3  A    between atoms: C_7  and  O_8
REMARK    4  A    between atoms: O_8  and  C_9
REMARK    5  A    between atoms: C_9  and  C_10
REMARK    6  A    between atoms: C_18  and  O_19
REMARK    7  A    between atoms: O_19  and  C_20
REMARK    8  A    between atoms: C_22  and  O_23
REMARK                            x       y       z     vdW  Elec       q    Type
REMARK                         _______ _______ _______ _____ _____    ______ ____
ROOT
ATOM      1  C   UNL     1       1.297   8.455  20.642  0.00  0.00    +0.000 C 
ATOM      2  O   UNL     1       1.247   8.186  21.847  0.00  0.00    +0.000 OA
ATOM      3  N   UNL     1       0.586   9.517  20.099  0.00  0.00    +0.000 N 
ATOM      4  C   UNL     1      -0.118  10.441  20.983  0.00  0.00    +0.000 C 
ATOM      5  C   UNL     1       0.514  11.836  20.911  0.00  0.00    +0.000 C 
ATOM      6  C   UNL     1       0.630  12.326  19.445  0.00  0.00    +0.000 C 
ATOM      7  C   UNL     1       1.319  11.263  18.567  0.00  0.00    +0.000 C 
ATOM      8  C   UNL     1       0.592   9.927  18.696  0.00  0.00    +0.000 C 
ATOM      9  C   UNL     1       1.265  13.760  19.338  0.00  0.00    +0.000 C 
ATOM     10  C   UNL     1      -0.167  14.342  19.362  0.00  0.00    +0.000 C 
ATOM     11  C   UNL     1      -0.682  12.967  18.876  0.00  0.00    +0.000 C 
ENDROOT
BRANCH   9  12
ATOM     12  O   UNL     1       2.004  14.030  18.120  0.00  0.00    +0.000 OA
ATOM     13  C   UNL     1       2.858  15.168  18.147  0.00  0.00    +0.000 C 
ENDBRANCH   9  12
BRANCH  11  14
ATOM     14  O   UNL     1      -0.894  12.865  17.451  0.00  0.00    +0.000 OA
ATOM     15  H   UNL     1      -1.725  12.363  17.350  0.00  0.00    +0.000 HD
ENDBRANCH  11  14
BRANCH   1  16
ATOM     16  C   UNL     1       2.207   7.626  19.726  0.00  0.00    +0.000 C 
BRANCH  16  17
ATOM     17  O   UNL     1       2.047   6.229  19.928  0.00  0.00    +0.000 OA
BRANCH  17  22
ATOM     18  C   UNL     1       5.022   4.445  18.577  0.00  0.00    +0.000 A 
ATOM     19  C   UNL     1       4.396   3.726  17.559  0.00  0.00    +0.000 A 
ATOM     20  C   UNL     1       3.019   3.834  17.366  0.00  0.00    +0.000 A 
ATOM     21  C   UNL     1       2.266   4.679  18.186  0.00  0.00    +0.000 A 
ATOM     22  C   UNL     1       2.882   5.408  19.205  0.00  0.00    +0.000 A 
ATOM     23  C   UNL     1       4.257   5.278  19.402  0.00  0.00    +0.000 A 
BRANCH  18  25
ATOM     24  C   UNL     1       7.195   5.256  18.050  0.00  0.00    +0.000 C 
ATOM     25  O   UNL     1       6.377   4.264  18.666  0.00  0.00    +0.000 OA
ENDBRANCH  18  25
ENDBRANCH  17  22
ENDBRANCH  16  17
ENDBRANCH   1  16
TORSDOF 6
ENDMDL
MODEL 8
REMARK VINA RESULT:      -6.8      1.783      2.646
REMARK  Name = 
REMARK  8 active torsions:
REMARK  status: ('A' for Active; 'I' for Inactive)
REMARK    1  A    between atoms: C_1  and  O_2
REMARK    2  A    between atoms: O_2  and  C_3
REMARK    3  A    between atoms: C_7  and  O_8
REMARK    4  A    between atoms: O_8  and  C_9
REMARK    5  A    between atoms: C_9  and  C_10
REMARK    6  A    between atoms: C_18  and  O_19
REMARK    7  A    between atoms: O_19  and  C_20
REMARK    8  A    between atoms: C_22  and  O_23
REMARK                            x       y       z     vdW  Elec       q    Type
REMARK                         _______ _______ _______ _____ _____    ______ ____
ROOT
ATOM      1  C   UNL     1       6.655   5.618  16.064  0.00  0.00    +0.000 C 
ATOM      2  O   UNL     1       7.323   6.564  16.492  0.00  0.00    +0.000 OA
ATOM      3  N   UNL     1       6.185   4.615  16.903  0.00  0.00    +0.000 N 
ATOM      4  C   UNL     1       6.343   4.750  18.348  0.00  0.00    +0.000 C 
ATOM      5  C   UNL     1       4.975   4.888  19.024  0.00  0.00    +0.000 C 
ATOM      6  C   UNL     1       4.017   3.748  18.596  0.00  0.00    +0.000 C 
ATOM      7  C   UNL     1       3.964   3.628  17.061  0.00  0.00    +0.000 C 
ATOM      8  C   UNL     1       5.375   3.467  16.499  0.00  0.00    +0.000 C 
ATOM      9  C   UNL     1       2.607   3.855  19.282  0.00  0.00    +0.000 C 
ATOM     10  C   UNL     1       3.133   2.922  20.396  0.00  0.00    +0.000 C 
ATOM     11  C   UNL     1       4.203   2.416  19.401  0.00  0.00    +0.000 C 
ENDROOT
BRANCH   9  12
ATOM     12  O   UNL     1       1.496   3.318  18.521  0.00  0.00    +0.000 OA
ATOM     13  C   UNL     1       0.611   2.459  19.231  0.00  0.00    +0.000 C 
ENDBRANCH   9  12
BRANCH  11  14
ATOM     14  O   UNL     1       3.868   1.188  18.718  0.00  0.00    +0.000 OA
ATOM     15  H   UNL     1       4.184   1.309  17.803  0.00  0.00    +0.000 HD
ENDBRANCH  11  14
BRANCH   1  16
ATOM     16  C   UNL     1       6.290   5.570  14.575  0.00  0.00    +0.000 C 
BRANCH  16  17
ATOM     17  O   UNL     1       7.141   4.705  13.838  0.00  0.00    +0.000 OA
BRANCH  17  22
ATOM     18  C   UNL     1       4.657   3.056  11.608  0.00  0.00    +0.000 A 
ATOM     19  C   UNL     1       5.508   2.150  10.975  0.00  0.00    +0.000 A 
ATOM     20  C   UNL     1       6.866   2.126  11.285  0.00  0.00    +0.000 A 
ATOM     21  C   UNL     1       7.377   3.003  12.246  0.00  0.00    +0.000 A 
ATOM     22  C   UNL     1       6.535   3.912  12.890  0.00  0.00    +0.000 A 
ATOM     23  C   UNL     1       5.180   3.941  12.559  0.00  0.00    +0.000 A 
BRANCH  18  25
ATOM     24  C   UNL     1       3.017   3.530   9.952  0.00  0.00    +0.000 C 
ATOM     25  O   UNL     1       3.343   2.982  11.228  0.00  0.00    +0.000 OA
ENDBRANCH  18  25
ENDBRANCH  17  22
ENDBRANCH  16  17
ENDBRANCH   1  16
TORSDOF 6
ENDMDL
MODEL 9
REMARK VINA RESULT:      -6.8      5.223      8.335
REMARK  Name = 
REMARK  8 active torsions:
REMARK  status: ('A' for Active; 'I' for Inactive)
REMARK    1  A    between atoms: C_1  and  O_2
REMARK    2  A    between atoms: O_2  and  C_3
REMARK    3  A    between atoms: C_7  and  O_8
REMARK    4  A    between atoms: O_8  and  C_9
REMARK    5  A    between atoms: C_9  and  C_10
REMARK    6  A    between atoms: C_18  and  O_19
REMARK    7  A    between atoms: O_19  and  C_20
REMARK    8  A    between atoms: C_22  and  O_23
REMARK                            x       y       z     vdW  Elec       q    Type
REMARK                         _______ _______ _______ _____ _____    ______ ____
ROOT
ATOM      1  C   UNL     1       0.906   8.713  21.074  0.00  0.00    +0.000 C 
ATOM      2  O   UNL     1       0.818   8.577  22.298  0.00  0.00    +0.000 OA
ATOM      3  N   UNL     1       0.286   9.763  20.408  0.00  0.00    +0.000 N 
ATOM      4  C   UNL     1      -0.357  10.825  21.176  0.00  0.00    +0.000 C 
ATOM      5  C   UNL     1       0.381  12.153  20.973  0.00  0.00    +0.000 C 
ATOM      6  C   UNL     1       0.555  12.477  19.468  0.00  0.00    +0.000 C 
ATOM      7  C   UNL     1       1.173  11.279  18.720  0.00  0.00    +0.000 C 
ATOM      8  C   UNL     1       0.344  10.021  18.971  0.00  0.00    +0.000 C 
ATOM      9  C   UNL     1       1.299  13.839  19.227  0.00  0.00    +0.000 C 
ATOM     10  C   UNL     1      -0.084  14.526  19.159  0.00  0.00    +0.000 C 
ATOM     11  C   UNL     1      -0.696  13.150  18.807  0.00  0.00    +0.000 C 
ENDROOT
BRANCH   9  12
ATOM     12  O   UNL     1       2.075  13.924  18.004  0.00  0.00    +0.000 OA
ATOM     13  C   UNL     1       3.428  14.337  18.150  0.00  0.00    +0.000 C 
ENDBRANCH   9  12
BRANCH  11  14
ATOM     14  O   UNL     1      -0.895  12.915  17.396  0.00  0.00    +0.000 OA
ATOM     15  H   UNL     1      -1.474  13.641  17.093  0.00  0.00    +0.000 HD
ENDBRANCH  11  14
BRANCH   1  16
ATOM     16  C   UNL     1       1.762   7.727  20.269  0.00  0.00    +0.000 C 
BRANCH  16  17
ATOM     17  O   UNL     1       1.865   6.460  20.903  0.00  0.00    +0.000 OA
BRANCH  17  22
ATOM     18  C   UNL     1       2.467   4.095  18.091  0.00  0.00    +0.000 A 
ATOM     19  C   UNL     1       1.643   3.051  18.511  0.00  0.00    +0.000 A 
ATOM     20  C   UNL     1       0.938   3.149  19.709  0.00  0.00    +0.000 A 
ATOM     21  C   UNL     1       1.045   4.306  20.486  0.00  0.00    +0.000 A 
ATOM     22  C   UNL     1       1.862   5.361  20.074  0.00  0.00    +0.000 A 
ATOM     23  C   UNL     1       2.578   5.244  18.883  0.00  0.00    +0.000 A 
BRANCH  18  25
ATOM     24  C   UNL     1       4.527   3.968  16.909  0.00  0.00    +0.000 C 
ATOM     25  O   UNL     1       3.103   3.888  16.896  0.00  0.00    +0.000 OA
ENDBRANCH  18  25
ENDBRANCH  17  22
ENDBRANCH  16  17
ENDBRANCH   1  16
TORSDOF 6
ENDMDL
