MODEL 1
REMARK VINA RESULT:      -8.5      0.000      0.000
REMARK  Name = 
REMARK  7 active torsions:
REMARK  status: ('A' for Active; 'I' for Inactive)
REMARK    1  A    between atoms: C_2  and  C_15
REMARK    2  A    between atoms: N_3  and  C_4
REMARK    3  A    between atoms: C_7  and  O_8
REMARK    4  A    between atoms: O_8  and  C_9
REMARK    5  A    between atoms: C_18  and  N_19
REMARK    6  A    between atoms: C_21  and  O_22
REMARK    7  A    between atoms: C_26  and  C_27
REMARK                            x       y       z     vdW  Elec       q    Type
REMARK                         _______ _______ _______ _____ _____    ______ ____
ROOT
ATOM      1  C   UNL     1       2.169   7.986  18.432  0.00  0.00    +0.000 A 
ATOM      2  C   UNL     1       3.274   8.274  17.654  0.00  0.00    +0.000 A 
ATOM      3  N   UNL     1       4.121   7.323  17.158  0.00  0.00    +0.000 NA
ATOM      4  C   UNL     1       3.903   6.012  17.461  0.00  0.00    +0.000 A 
ATOM      5  C   UNL     1       2.792   5.632  18.250  0.00  0.00    +0.000 A 
ATOM      6  C   UNL     1       1.932   6.640  18.713  0.00  0.00    +0.000 A 
ENDROOT
BRANCH   4   7
ATOM      7  N   UNL     1       4.816   5.076  17.002  0.00  0.00    +0.000 N 
ATOM      8  C   UNL     1       6.095   4.857  17.680  0.00  0.00    +0.000 C 
ATOM      9  C   UNL     1       7.140   4.800  16.554  0.00  0.00    +0.000 C 
ATOM     10  C   UNL     1       6.360   4.278  15.362  0.00  0.00    +0.000 C 
ATOM     11  F   UNL     1       6.320   2.915  15.416  0.00  0.00    +0.000 F 
ATOM     12  C   UNL     1       4.950   4.838  15.555  0.00  0.00    +0.000 C 
BRANCH   9  13
ATOM     13  O   UNL     1       7.687   6.092  16.266  0.00  0.00    +0.000 OA
ATOM     14  H   UNL     1       8.647   5.972  16.141  0.00  0.00    +0.000 HD
ENDBRANCH   9  13
ENDBRANCH   4   7
BRANCH   5  15
ATOM     15  C   UNL     1       2.533   4.259  18.700  0.00  0.00    +0.000 A 
ATOM     16  C   UNL     1       2.086   3.139  18.026  0.00  0.00    +0.000 A 
ATOM     17  C   UNL     1       1.951   2.141  19.004  0.00  0.00    +0.000 A 
ATOM     18  N   UNL     1       2.349   2.555  20.207  0.00  0.00    +0.000 NA
ATOM     19  N   UNL     1       2.738   3.826  19.988  0.00  0.00    +0.000 N 
ATOM     20  H   UNL     1       3.112   4.351  20.771  0.00  0.00    +0.000 HD
ENDBRANCH   5  15
BRANCH   1  22
ATOM     21  O   UNL     1       0.645   9.708  18.363  0.00  0.00    +0.000 OA
ATOM     22  C   UNL     1       1.291   8.974  19.103  0.00  0.00    +0.000 C 
ATOM     23  N   UNL     1       1.297   9.038  20.490  0.00  0.00    +0.000 N 
ATOM     24  H   UNL     1       2.017   8.541  20.995  0.00  0.00    +0.000 HD
BRANCH  23  25
ATOM     25  C   UNL     1       0.505   9.949  21.248  0.00  0.00    +0.000 A 
ATOM     26  C   UNL     1       0.432  11.316  20.971  0.00  0.00    +0.000 A 
ATOM     27  C   UNL     1      -0.336  12.174  21.766  0.00  0.00    +0.000 A 
ATOM     28  C   UNL     1      -1.073  11.682  22.839  0.00  0.00    +0.000 A 
ATOM     29  C   UNL     1      -0.989  10.324  23.142  0.00  0.00    +0.000 A 
ATOM     30  C   UNL     1      -0.230   9.459  22.332  0.00  0.00    +0.000 A 
BRANCH  28  31
ATOM     31  O   UNL     1      -1.726  12.628  23.565  0.00  0.00    +0.000 OA
BRANCH  31  32
ATOM     32  C   UNL     1      -3.146  12.682  23.536  0.00  0.00    +0.000 C 
ATOM     33  F   UNL     1      -3.749  11.877  24.436  0.00  0.00    +0.000 F 
ATOM     34  F   UNL     1      -3.541  13.953  23.762  0.00  0.00    +0.000 F 
ATOM     35  F   UNL     1      -3.567  12.320  22.305  0.00  0.00    +0.000 F 
ENDBRANCH  31  32
ENDBRANCH  28  31
ENDBRANCH  23  25
ENDBRANCH   1  22
TORSDOF 7
ENDMDL
MODEL 2
REMARK VINA RESULT:      -8.4      1.269      1.456
REMARK  Name = 
REMARK  7 active torsions:
REMARK  status: ('A' for Active; 'I' for Inactive)
REMARK    1  A    between atoms: C_2  and  C_15
REMARK    2  A    between atoms: N_3  and  C_4
REMARK    3  A    between atoms: C_7  and  O_8
REMARK    4  A    between atoms: O_8  and  C_9
REMARK    5  A    between atoms: C_18  and  N_19
REMARK    6  A    between atoms: C_21  and  O_22
REMARK    7  A    between atoms: C_26  and  C_27
REMARK                            x       y       z     vdW  Elec       q    Type
REMARK                         _______ _______ _______ _____ _____    ______ ____
ROOT
ATOM      1  C   UNL     1       2.545   6.945  19.055  0.00  0.00    +0.000 A 
ATOM      2  C   UNL     1       3.200   7.522  17.984  0.00  0.00    +0.000 A 
ATOM      3  N   UNL     1       4.000   6.828  17.121  0.00  0.00    +0.000 NA
ATOM      4  C   UNL     1       4.209   5.498  17.328  0.00  0.00    +0.000 A 
ATOM      5  C   UNL     1       3.575   4.829  18.401  0.00  0.00    +0.000 A 
ATOM      6  C   UNL     1       2.736   5.575  19.244  0.00  0.00    +0.000 A 
ENDROOT
BRANCH   4   7
ATOM      7  N   UNL     1       5.080   4.833  16.478  0.00  0.00    +0.000 N 
ATOM      8  C   UNL     1       6.439   4.483  16.898  0.00  0.00    +0.000 C 
ATOM      9  C   UNL     1       7.336   4.878  15.714  0.00  0.00    +0.000 C 
ATOM     10  C   UNL     1       6.427   4.740  14.507  0.00  0.00    +0.000 C 
ATOM     11  F   UNL     1       6.427   3.440  14.094  0.00  0.00    +0.000 F 
ATOM     12  C   UNL     1       5.039   5.108  15.033  0.00  0.00    +0.000 C 
BRANCH   9  13
ATOM     13  O   UNL     1       7.811   6.225  15.830  0.00  0.00    +0.000 OA
ATOM     14  H   UNL     1       7.033   6.807  15.757  0.00  0.00    +0.000 HD
ENDBRANCH   9  13
ENDBRANCH   4   7
BRANCH   5  15
ATOM     15  C   UNL     1       3.811   3.424  18.752  0.00  0.00    +0.000 A 
ATOM     16  C   UNL     1       3.204   2.255  18.333  0.00  0.00    +0.000 A 
ATOM     17  C   UNL     1       3.803   1.231  19.083  0.00  0.00    +0.000 A 
ATOM     18  N   UNL     1       4.776   1.685  19.872  0.00  0.00    +0.000 NA
ATOM     19  N   UNL     1       4.792   3.008  19.621  0.00  0.00    +0.000 N 
ATOM     20  H   UNL     1       5.483   3.575  20.099  0.00  0.00    +0.000 HD
ENDBRANCH   5  15
BRANCH   1  22
ATOM     21  O   UNL     1       1.462   7.005  21.084  0.00  0.00    +0.000 OA
ATOM     22  C   UNL     1       1.770   7.662  20.096  0.00  0.00    +0.000 C 
ATOM     23  N   UNL     1       1.408   8.983  19.866  0.00  0.00    +0.000 N 
ATOM     24  H   UNL     1       1.525   9.363  18.938  0.00  0.00    +0.000 HD
BRANCH  23  25
ATOM     25  C   UNL     1       0.658   9.773  20.785  0.00  0.00    +0.000 A 
ATOM     26  C   UNL     1       0.513  11.157  20.667  0.00  0.00    +0.000 A 
ATOM     27  C   UNL     1      -0.209  11.891  21.614  0.00  0.00    +0.000 A 
ATOM     28  C   UNL     1      -0.829  11.256  22.686  0.00  0.00    +0.000 A 
ATOM     29  C   UNL     1      -0.671   9.879  22.830  0.00  0.00    +0.000 A 
ATOM     30  C   UNL     1       0.040   9.139  21.868  0.00  0.00    +0.000 A 
BRANCH  28  31
ATOM     31  O   UNL     1      -1.445  12.090  23.565  0.00  0.00    +0.000 OA
BRANCH  31  32
ATOM     32  C   UNL     1      -2.801  12.461  23.351  0.00  0.00    +0.000 C 
ATOM     33  F   UNL     1      -3.266  12.173  22.116  0.00  0.00    +0.000 F 
ATOM     34  F   UNL     1      -3.575  11.831  24.259  0.00  0.00    +0.000 F 
ATOM     35  F   UNL     1      -2.920  13.792  23.542  0.00  0.00    +0.000 F 
ENDBRANCH  31  32
ENDBRANCH  28  31
ENDBRANCH  23  25
ENDBRANCH   1  22
TORSDOF 7
ENDMDL
MODEL 3
REMARK VINA RESULT:      -8.4      0.255      1.105
REMARK  Name = 
REMARK  7 active torsions:
REMARK  status: ('A' for Active; 'I' for Inactive)
REMARK    1  A    between atoms: C_2  and  C_15
REMARK    2  A    between atoms: N_3  and  C_4
REMARK    3  A    between atoms: C_7  and  O_8
REMARK    4  A    between atoms: O_8  and  C_9
REMARK    5  A    between atoms: C_18  and  N_19
REMARK    6  A    between atoms: C_21  and  O_22
REMARK    7  A    between atoms: C_26  and  C_27
REMARK                            x       y       z     vdW  Elec       q    Type
REMARK                         _______ _______ _______ _____ _____    ______ ____
ROOT
ATOM      1  C   UNL     1       2.150   8.015  18.442  0.00  0.00    +0.000 A 
ATOM      2  C   UNL     1       3.256   8.318  17.671  0.00  0.00    +0.000 A 
ATOM      3  N   UNL     1       4.107   7.378  17.163  0.00  0.00    +0.000 NA
ATOM      4  C   UNL     1       3.894   6.062  17.448  0.00  0.00    +0.000 A 
ATOM      5  C   UNL     1       2.784   5.666  18.229  0.00  0.00    +0.000 A 
ATOM      6  C   UNL     1       1.918   6.665  18.705  0.00  0.00    +0.000 A 
ENDROOT
BRANCH   4   7
ATOM      7  N   UNL     1       4.812   5.136  16.976  0.00  0.00    +0.000 N 
ATOM      8  C   UNL     1       6.083   4.900  17.665  0.00  0.00    +0.000 C 
ATOM      9  C   UNL     1       7.141   4.868  16.551  0.00  0.00    +0.000 C 
ATOM     10  C   UNL     1       6.375   4.376  15.337  0.00  0.00    +0.000 C 
ATOM     11  F   UNL     1       6.333   3.013  15.357  0.00  0.00    +0.000 F 
ATOM     12  C   UNL     1       4.964   4.933  15.526  0.00  0.00    +0.000 C 
BRANCH   9  13
ATOM     13  O   UNL     1       7.693   6.167  16.301  0.00  0.00    +0.000 OA
ATOM     14  H   UNL     1       7.895   6.560  17.170  0.00  0.00    +0.000 HD
ENDBRANCH   9  13
ENDBRANCH   4   7
BRANCH   5  15
ATOM     15  C   UNL     1       2.529   4.287  18.659  0.00  0.00    +0.000 A 
ATOM     16  C   UNL     1       1.644   3.329  18.203  0.00  0.00    +0.000 A 
ATOM     17  C   UNL     1       1.801   2.231  19.065  0.00  0.00    +0.000 A 
ATOM     18  N   UNL     1       2.765   2.429  19.964  0.00  0.00    +0.000 NA
ATOM     19  N   UNL     1       3.220   3.662  19.670  0.00  0.00    +0.000 N 
ATOM     20  H   UNL     1       3.991   4.028  20.218  0.00  0.00    +0.000 HD
ENDBRANCH   5  15
BRANCH   1  22
ATOM     21  O   UNL     1       0.528   9.646  18.400  0.00  0.00    +0.000 OA
ATOM     22  C   UNL     1       1.267   8.990  19.125  0.00  0.00    +0.000 C 
ATOM     23  N   UNL     1       1.369   9.131  20.504  0.00  0.00    +0.000 N 
ATOM     24  H   UNL     1       2.151   8.702  20.978  0.00  0.00    +0.000 HD
BRANCH  23  25
ATOM     25  C   UNL     1       0.582  10.038  21.271  0.00  0.00    +0.000 A 
ATOM     26  C   UNL     1      -0.181   9.651  22.374  0.00  0.00    +0.000 A 
ATOM     27  C   UNL     1      -0.961  10.576  23.075  0.00  0.00    +0.000 A 
ATOM     28  C   UNL     1      -0.975  11.919  22.708  0.00  0.00    +0.000 A 
ATOM     29  C   UNL     1      -0.238  12.315  21.593  0.00  0.00    +0.000 A 
ATOM     30  C   UNL     1       0.560  11.387  20.900  0.00  0.00    +0.000 A 
BRANCH  28  31
ATOM     31  O   UNL     1      -1.821  12.699  23.431  0.00  0.00    +0.000 OA
BRANCH  31  32
ATOM     32  C   UNL     1      -3.213  12.681  23.144  0.00  0.00    +0.000 C 
ATOM     33  F   UNL     1      -3.517  12.255  21.898  0.00  0.00    +0.000 F 
ATOM     34  F   UNL     1      -3.834  11.881  24.035  0.00  0.00    +0.000 F 
ATOM     35  F   UNL     1      -3.699  13.933  23.286  0.00  0.00    +0.000 F 
ENDBRANCH  31  32
ENDBRANCH  28  31
ENDBRANCH  23  25
ENDBRANCH   1  22
TORSDOF 7
ENDMDL
MODEL 4
REMARK VINA RESULT:      -8.1      1.147      1.449
REMARK  Name = 
REMARK  7 active torsions:
REMARK  status: ('A' for Active; 'I' for Inactive)
REMARK    1  A    between atoms: C_2  and  C_15
REMARK    2  A    between atoms: N_3  and  C_4
REMARK    3  A    between atoms: C_7  and  O_8
REMARK    4  A    between atoms: O_8  and  C_9
REMARK    5  A    between atoms: C_18  and  N_19
REMARK    6  A    between atoms: C_21  and  O_22
REMARK    7  A    between atoms: C_26  and  C_27
REMARK                            x       y       z     vdW  Elec       q    Type
REMARK                         _______ _______ _______ _____ _____    ______ ____
ROOT
ATOM      1  C   UNL     1       2.362   7.674  18.689  0.00  0.00    +0.000 A 
ATOM      2  C   UNL     1       3.304   8.106  17.775  0.00  0.00    +0.000 A 
ATOM      3  N   UNL     1       4.120   7.265  17.072  0.00  0.00    +0.000 NA
ATOM      4  C   UNL     1       4.045   5.923  17.294  0.00  0.00    +0.000 A 
ATOM      5  C   UNL     1       3.107   5.397  18.212  0.00  0.00    +0.000 A 
ATOM      6  C   UNL     1       2.267   6.296  18.889  0.00  0.00    +0.000 A 
ENDROOT
BRANCH   4   7
ATOM      7  N   UNL     1       4.932   5.099  16.618  0.00  0.00    +0.000 N 
ATOM      8  C   UNL     1       6.235   4.747  17.188  0.00  0.00    +0.000 C 
ATOM      9  C   UNL     1       7.235   4.919  16.034  0.00  0.00    +0.000 C 
ATOM     10  C   UNL     1       6.407   4.651  14.792  0.00  0.00    +0.000 C 
ATOM     11  F   UNL     1       6.357   3.306  14.569  0.00  0.00    +0.000 F 
ATOM     12  C   UNL     1       5.010   5.160  15.149  0.00  0.00    +0.000 C 
BRANCH   9  13
ATOM     13  O   UNL     1       7.782   6.243  15.994  0.00  0.00    +0.000 OA
ATOM     14  H   UNL     1       7.109   6.839  16.373  0.00  0.00    +0.000 HD
ENDBRANCH   9  13
ENDBRANCH   4   7
BRANCH   5  15
ATOM     15  C   UNL     1       3.018   3.979  18.579  0.00  0.00    +0.000 A 
ATOM     16  C   UNL     1       2.224   2.953  18.104  0.00  0.00    +0.000 A 
ATOM     17  C   UNL     1       2.531   1.840  18.903  0.00  0.00    +0.000 A 
ATOM     18  N   UNL     1       3.502   2.098  19.779  0.00  0.00    +0.000 NA
ATOM     19  N   UNL     1       3.810   3.386  19.533  0.00  0.00    +0.000 N 
ATOM     20  H   UNL     1       4.558   3.808  20.074  0.00  0.00    +0.000 HD
ENDBRANCH   5  15
BRANCH   1  22
ATOM     21  O   UNL     1       1.281   8.079  20.679  0.00  0.00    +0.000 OA
ATOM     22  C   UNL     1       1.541   8.536  19.571  0.00  0.00    +0.000 C 
ATOM     23  N   UNL     1       1.086   9.753  19.079  0.00  0.00    +0.000 N 
ATOM     24  H   UNL     1       1.174   9.939  18.090  0.00  0.00    +0.000 HD
BRANCH  23  25
ATOM     25  C   UNL     1       0.283  10.663  19.826  0.00  0.00    +0.000 A 
ATOM     26  C   UNL     1       0.729  11.314  20.978  0.00  0.00    +0.000 A 
ATOM     27  C   UNL     1      -0.110  12.174  21.693  0.00  0.00    +0.000 A 
ATOM     28  C   UNL     1      -1.407  12.428  21.259  0.00  0.00    +0.000 A 
ATOM     29  C   UNL     1      -1.875  11.766  20.125  0.00  0.00    +0.000 A 
ATOM     30  C   UNL     1      -1.025  10.914  19.396  0.00  0.00    +0.000 A 
BRANCH  28  31
ATOM     31  O   UNL     1      -2.136  13.233  22.077  0.00  0.00    +0.000 OA
BRANCH  31  32
ATOM     32  C   UNL     1      -3.121  12.663  22.929  0.00  0.00    +0.000 C 
ATOM     33  F   UNL     1      -4.302  12.413  22.321  0.00  0.00    +0.000 F 
ATOM     34  F   UNL     1      -2.646  11.506  23.435  0.00  0.00    +0.000 F 
ATOM     35  F   UNL     1      -3.350  13.512  23.953  0.00  0.00    +0.000 F 
ENDBRANCH  31  32
ENDBRANCH  28  31
ENDBRANCH  23  25
ENDBRANCH   1  22
TORSDOF 7
ENDMDL
MODEL 5
REMARK VINA RESULT:      -8.0      1.160      1.381
REMARK  Name = 
REMARK  7 active torsions:
REMARK  status: ('A' for Active; 'I' for Inactive)
REMARK    1  A    between atoms: C_2  and  C_15
REMARK    2  A    between atoms: N_3  and  C_4
REMARK    3  A    between atoms: C_7  and  O_8
REMARK    4  A    between atoms: O_8  and  C_9
REMARK    5  A    between atoms: C_18  and  N_19
REMARK    6  A    between atoms: C_21  and  O_22
REMARK    7  A    between atoms: C_26  and  C_27
REMARK                            x       y       z     vdW  Elec       q    Type
REMARK                         _______ _______ _______ _____ _____    ______ ____
ROOT
ATOM      1  C   UNL     1       2.351   7.622  18.677  0.00  0.00    +0.000 A 
ATOM      2  C   UNL     1       3.274   8.083  17.758  0.00  0.00    +0.000 A 
ATOM      3  N   UNL     1       4.109   7.268  17.048  0.00  0.00    +0.000 NA
ATOM      4  C   UNL     1       4.074   5.923  17.267  0.00  0.00    +0.000 A 
ATOM      5  C   UNL     1       3.158   5.368  18.191  0.00  0.00    +0.000 A 
ATOM      6  C   UNL     1       2.297   6.242  18.875  0.00  0.00    +0.000 A 
ENDROOT
BRANCH   4   7
ATOM      7  N   UNL     1       4.980   5.126  16.583  0.00  0.00    +0.000 N 
ATOM      8  C   UNL     1       6.284   4.785  17.157  0.00  0.00    +0.000 C 
ATOM      9  C   UNL     1       7.290   4.995  16.015  0.00  0.00    +0.000 C 
ATOM     10  C   UNL     1       6.476   4.737  14.761  0.00  0.00    +0.000 C 
ATOM     11  F   UNL     1       6.450   3.395  14.513  0.00  0.00    +0.000 F 
ATOM     12  C   UNL     1       5.068   5.217  15.116  0.00  0.00    +0.000 C 
BRANCH   9  13
ATOM     13  O   UNL     1       7.815   6.328  16.004  0.00  0.00    +0.000 OA
ATOM     14  H   UNL     1       7.726   6.660  15.091  0.00  0.00    +0.000 HD
ENDBRANCH   9  13
ENDBRANCH   4   7
BRANCH   5  15
ATOM     15  C   UNL     1       3.113   3.948  18.555  0.00  0.00    +0.000 A 
ATOM     16  C   UNL     1       2.393   2.888  18.038  0.00  0.00    +0.000 A 
ATOM     17  C   UNL     1       2.704   1.789  18.854  0.00  0.00    +0.000 A 
ATOM     18  N   UNL     1       3.612   2.090  19.783  0.00  0.00    +0.000 NA
ATOM     19  N   UNL     1       3.876   3.390  19.553  0.00  0.00    +0.000 N 
ATOM     20  H   UNL     1       4.572   3.845  20.133  0.00  0.00    +0.000 HD
ENDBRANCH   5  15
BRANCH   1  22
ATOM     21  O   UNL     1       1.275   7.993  20.677  0.00  0.00    +0.000 OA
ATOM     22  C   UNL     1       1.511   8.458  19.567  0.00  0.00    +0.000 C 
ATOM     23  N   UNL     1       1.016   9.661  19.080  0.00  0.00    +0.000 N 
ATOM     24  H   UNL     1       1.090   9.851  18.091  0.00  0.00    +0.000 HD
BRANCH  23  25
ATOM     25  C   UNL     1       0.192  10.546  19.835  0.00  0.00    +0.000 A 
ATOM     26  C   UNL     1      -1.131  10.840  19.496  0.00  0.00    +0.000 A 
ATOM     27  C   UNL     1      -1.888  11.740  20.253  0.00  0.00    +0.000 A 
ATOM     28  C   UNL     1      -1.351  12.347  21.385  0.00  0.00    +0.000 A 
ATOM     29  C   UNL     1      -0.024  12.082  21.720  0.00  0.00    +0.000 A 
ATOM     30  C   UNL     1       0.731  11.163  20.968  0.00  0.00    +0.000 A 
BRANCH  28  31
ATOM     31  O   UNL     1      -2.170  13.246  21.993  0.00  0.00    +0.000 OA
BRANCH  31  32
ATOM     32  C   UNL     1      -3.119  12.796  22.951  0.00  0.00    +0.000 C 
ATOM     33  F   UNL     1      -3.301  13.640  23.990  0.00  0.00    +0.000 F 
ATOM     34  F   UNL     1      -4.306  12.609  22.336  0.00  0.00    +0.000 F 
ATOM     35  F   UNL     1      -2.706  11.609  23.445  0.00  0.00    +0.000 F 
ENDBRANCH  31  32
ENDBRANCH  28  31
ENDBRANCH  23  25
ENDBRANCH   1  22
TORSDOF 7
ENDMDL
MODEL 6
REMARK VINA RESULT:      -8.0      1.232      1.642
REMARK  Name = 
REMARK  7 active torsions:
REMARK  status: ('A' for Active; 'I' for Inactive)
REMARK    1  A    between atoms: C_2  and  C_15
REMARK    2  A    between atoms: N_3  and  C_4
REMARK    3  A    between atoms: C_7  and  O_8
REMARK    4  A    between atoms: O_8  and  C_9
REMARK    5  A    between atoms: C_18  and  N_19
REMARK    6  A    between atoms: C_21  and  O_22
REMARK    7  A    between atoms: C_26  and  C_27
REMARK                            x       y       z     vdW  Elec       q    Type
REMARK                         _______ _______ _______ _____ _____    ______ ____
ROOT
ATOM      1  C   UNL     1       2.461   7.062  19.051  0.00  0.00    +0.000 A 
ATOM      2  C   UNL     1       3.222   7.682  18.078  0.00  0.00    +0.000 A 
ATOM      3  N   UNL     1       4.052   7.013  17.224  0.00  0.00    +0.000 NA
ATOM      4  C   UNL     1       4.182   5.661  17.342  0.00  0.00    +0.000 A 
ATOM      5  C   UNL     1       3.438   4.949  18.312  0.00  0.00    +0.000 A 
ATOM      6  C   UNL     1       2.573   5.675  19.148  0.00  0.00    +0.000 A 
ENDROOT
BRANCH   4   7
ATOM      7  N   UNL     1       5.083   5.017  16.509  0.00  0.00    +0.000 N 
ATOM      8  C   UNL     1       6.415   4.628  16.978  0.00  0.00    +0.000 C 
ATOM      9  C   UNL     1       7.374   5.054  15.855  0.00  0.00    +0.000 C 
ATOM     10  C   UNL     1       6.522   4.978  14.602  0.00  0.00    +0.000 C 
ATOM     11  F   UNL     1       6.523   3.695  14.137  0.00  0.00    +0.000 F 
ATOM     12  C   UNL     1       5.116   5.349  15.075  0.00  0.00    +0.000 C 
BRANCH   9  13
ATOM     13  O   UNL     1       7.863   6.387  16.047  0.00  0.00    +0.000 OA
ATOM     14  H   UNL     1       8.805   6.312  16.285  0.00  0.00    +0.000 HD
ENDBRANCH   9  13
ENDBRANCH   4   7
BRANCH   5  15
ATOM     15  C   UNL     1       3.582   3.512  18.569  0.00  0.00    +0.000 A 
ATOM     16  C   UNL     1       3.040   2.406  17.943  0.00  0.00    +0.000 A 
ATOM     17  C   UNL     1       3.474   1.300  18.692  0.00  0.00    +0.000 A 
ATOM     18  N   UNL     1       4.295   1.651  19.681  0.00  0.00    +0.000 NA
ATOM     19  N   UNL     1       4.380   2.989  19.559  0.00  0.00    +0.000 N 
ATOM     20  H   UNL     1       4.983   3.489  20.203  0.00  0.00    +0.000 HD
ENDBRANCH   5  15
BRANCH   1  22
ATOM     21  O   UNL     1       1.326   7.057  21.052  0.00  0.00    +0.000 OA
ATOM     22  C   UNL     1       1.644   7.740  20.086  0.00  0.00    +0.000 C 
ATOM     23  N   UNL     1       1.259   9.058  19.873  0.00  0.00    +0.000 N 
ATOM     24  H   UNL     1       1.390   9.460  18.956  0.00  0.00    +0.000 HD
BRANCH  23  25
ATOM     25  C   UNL     1       0.467   9.812  20.787  0.00  0.00    +0.000 A 
ATOM     26  C   UNL     1       0.255   9.432  22.114  0.00  0.00    +0.000 A 
ATOM     27  C   UNL     1      -0.557  10.192  22.963  0.00  0.00    +0.000 A 
ATOM     28  C   UNL     1      -1.154  11.366  22.514  0.00  0.00    +0.000 A 
ATOM     29  C   UNL     1      -0.973  11.743  21.185  0.00  0.00    +0.000 A 
ATOM     30  C   UNL     1      -0.142  10.988  20.337  0.00  0.00    +0.000 A 
BRANCH  28  31
ATOM     31  O   UNL     1      -1.966  11.975  23.419  0.00  0.00    +0.000 OA
BRANCH  31  32
ATOM     32  C   UNL     1      -3.010  12.827  22.965  0.00  0.00    +0.000 C 
ATOM     33  F   UNL     1      -2.580  13.965  22.377  0.00  0.00    +0.000 F 
ATOM     34  F   UNL     1      -3.776  12.150  22.084  0.00  0.00    +0.000 F 
ATOM     35  F   UNL     1      -3.778  13.168  24.022  0.00  0.00    +0.000 F 
ENDBRANCH  31  32
ENDBRANCH  28  31
ENDBRANCH  23  25
ENDBRANCH   1  22
TORSDOF 7
ENDMDL
MODEL 7
REMARK VINA RESULT:      -7.9      1.497      1.754
REMARK  Name = 
REMARK  7 active torsions:
REMARK  status: ('A' for Active; 'I' for Inactive)
REMARK    1  A    between atoms: C_2  and  C_15
REMARK    2  A    between atoms: N_3  and  C_4
REMARK    3  A    between atoms: C_7  and  O_8
REMARK    4  A    between atoms: O_8  and  C_9
REMARK    5  A    between atoms: C_18  and  N_19
REMARK    6  A    between atoms: C_21  and  O_22
REMARK    7  A    between atoms: C_26  and  C_27
REMARK                            x       y       z     vdW  Elec       q    Type
REMARK                         _______ _______ _______ _____ _____    ______ ____
ROOT
ATOM      1  C   UNL     1       2.186   7.917  18.496  0.00  0.00    +0.000 A 
ATOM      2  C   UNL     1       3.261   8.230  17.686  0.00  0.00    +0.000 A 
ATOM      3  N   UNL     1       4.105   7.297  17.153  0.00  0.00    +0.000 NA
ATOM      4  C   UNL     1       3.919   5.980  17.450  0.00  0.00    +0.000 A 
ATOM      5  C   UNL     1       2.841   5.575  18.272  0.00  0.00    +0.000 A 
ATOM      6  C   UNL     1       1.980   6.565  18.772  0.00  0.00    +0.000 A 
ENDROOT
BRANCH   4   7
ATOM      7  N   UNL     1       4.830   5.063  16.952  0.00  0.00    +0.000 N 
ATOM      8  C   UNL     1       6.120   4.833  17.607  0.00  0.00    +0.000 C 
ATOM      9  C   UNL     1       7.150   4.814  16.465  0.00  0.00    +0.000 C 
ATOM     10  C   UNL     1       6.357   4.321  15.270  0.00  0.00    +0.000 C 
ATOM     11  F   UNL     1       6.325   2.957  15.285  0.00  0.00    +0.000 F 
ATOM     12  C   UNL     1       4.946   4.867  15.497  0.00  0.00    +0.000 C 
BRANCH   9  13
ATOM     13  O   UNL     1       7.685   6.118  16.207  0.00  0.00    +0.000 OA
ATOM     14  H   UNL     1       7.070   6.761  16.606  0.00  0.00    +0.000 HD
ENDBRANCH   9  13
ENDBRANCH   4   7
BRANCH   5  15
ATOM     15  C   UNL     1       2.618   4.195  18.716  0.00  0.00    +0.000 A 
ATOM     16  C   UNL     1       1.829   3.180  18.209  0.00  0.00    +0.000 A 
ATOM     17  C   UNL     1       1.960   2.114  19.113  0.00  0.00    +0.000 A 
ATOM     18  N   UNL     1       2.825   2.384  20.091  0.00  0.00    +0.000 NA
ATOM     19  N   UNL     1       3.242   3.632  19.804  0.00  0.00    +0.000 N 
ATOM     20  H   UNL     1       3.939   4.052  20.409  0.00  0.00    +0.000 HD
ENDBRANCH   5  15
BRANCH   1  22
ATOM     21  O   UNL     1       1.152   8.683  20.403  0.00  0.00    +0.000 OA
ATOM     22  C   UNL     1       1.315   8.885  19.205  0.00  0.00    +0.000 C 
ATOM     23  N   UNL     1       0.714   9.902  18.474  0.00  0.00    +0.000 N 
ATOM     24  H   UNL     1       0.741   9.854  17.465  0.00  0.00    +0.000 HD
BRANCH  23  25
ATOM     25  C   UNL     1      -0.149  10.884  19.039  0.00  0.00    +0.000 A 
ATOM     26  C   UNL     1       0.282  11.853  19.948  0.00  0.00    +0.000 A 
ATOM     27  C   UNL     1      -0.612  12.777  20.499  0.00  0.00    +0.000 A 
ATOM     28  C   UNL     1      -1.955  12.774  20.132  0.00  0.00    +0.000 A 
ATOM     29  C   UNL     1      -2.404  11.797  19.245  0.00  0.00    +0.000 A 
ATOM     30  C   UNL     1      -1.500  10.879  18.679  0.00  0.00    +0.000 A 
BRANCH  28  31
ATOM     31  O   UNL     1      -2.727  13.682  20.786  0.00  0.00    +0.000 OA
BRANCH  31  32
ATOM     32  C   UNL     1      -3.659  13.239  21.763  0.00  0.00    +0.000 C 
ATOM     33  F   UNL     1      -3.980  14.171  22.686  0.00  0.00    +0.000 F 
ATOM     34  F   UNL     1      -4.788  12.840  21.142  0.00  0.00    +0.000 F 
ATOM     35  F   UNL     1      -3.133  12.176  22.410  0.00  0.00    +0.000 F 
ENDBRANCH  31  32
ENDBRANCH  28  31
ENDBRANCH  23  25
ENDBRANCH   1  22
TORSDOF 7
ENDMDL
MODEL 8
REMARK VINA RESULT:      -7.9      0.914      1.058
REMARK  Name = 
REMARK  7 active torsions:
REMARK  status: ('A' for Active; 'I' for Inactive)
REMARK    1  A    between atoms: C_2  and  C_15
REMARK    2  A    between atoms: N_3  and  C_4
REMARK    3  A    between atoms: C_7  and  O_8
REMARK    4  A    between atoms: O_8  and  C_9
REMARK    5  A    between atoms: C_18  and  N_19
REMARK    6  A    between atoms: C_21  and  O_22
REMARK    7  A    between atoms: C_26  and  C_27
REMARK                            x       y       z     vdW  Elec       q    Type
REMARK                         _______ _______ _______ _____ _____    ______ ____
ROOT
ATOM      1  C   UNL     1       1.944   8.331  18.792  0.00  0.00    +0.000 A 
ATOM      2  C   UNL     1       2.877   8.576  17.803  0.00  0.00    +0.000 A 
ATOM      3  N   UNL     1       3.779   7.648  17.365  0.00  0.00    +0.000 NA
ATOM      4  C   UNL     1       3.802   6.415  17.944  0.00  0.00    +0.000 A 
ATOM      5  C   UNL     1       2.879   6.082  18.963  0.00  0.00    +0.000 A 
ATOM      6  C   UNL     1       1.950   7.057  19.360  0.00  0.00    +0.000 A 
ENDROOT
BRANCH   4   7
ATOM      7  N   UNL     1       4.772   5.516  17.528  0.00  0.00    +0.000 N 
ATOM      8  C   UNL     1       6.091   5.466  18.163  0.00  0.00    +0.000 C 
ATOM      9  C   UNL     1       7.092   5.388  16.999  0.00  0.00    +0.000 C 
ATOM     10  C   UNL     1       6.313   4.696  15.896  0.00  0.00    +0.000 C 
ATOM     11  F   UNL     1       6.389   3.346  16.073  0.00  0.00    +0.000 F 
ATOM     12  C   UNL     1       4.869   5.157  16.104  0.00  0.00    +0.000 C 
BRANCH   9  13
ATOM     13  O   UNL     1       7.516   6.688  16.572  0.00  0.00    +0.000 OA
ATOM     14  H   UNL     1       8.099   6.556  15.801  0.00  0.00    +0.000 HD
ENDBRANCH   9  13
ENDBRANCH   4   7
BRANCH   5  15
ATOM     15  C   UNL     1       2.890   4.814  19.703  0.00  0.00    +0.000 A 
ATOM     16  C   UNL     1       3.195   3.524  19.314  0.00  0.00    +0.000 A 
ATOM     17  C   UNL     1       2.941   2.723  20.438  0.00  0.00    +0.000 A 
ATOM     18  N   UNL     1       2.572   3.442  21.498  0.00  0.00    +0.000 NA
ATOM     19  N   UNL     1       2.592   4.708  21.040  0.00  0.00    +0.000 N 
ATOM     20  H   UNL     1       2.365   5.453  21.690  0.00  0.00    +0.000 HD
ENDBRANCH   5  15
BRANCH   1  22
ATOM     21  O   UNL     1       0.247   9.876  18.629  0.00  0.00    +0.000 OA
ATOM     22  C   UNL     1       1.029   9.329  19.397  0.00  0.00    +0.000 C 
ATOM     23  N   UNL     1       1.150   9.609  20.752  0.00  0.00    +0.000 N 
ATOM     24  H   UNL     1       1.961   9.265  21.248  0.00  0.00    +0.000 HD
BRANCH  23  25
ATOM     25  C   UNL     1       0.337  10.552  21.445  0.00  0.00    +0.000 A 
ATOM     26  C   UNL     1       0.363  11.924  21.187  0.00  0.00    +0.000 A 
ATOM     27  C   UNL     1      -0.433  12.812  21.917  0.00  0.00    +0.000 A 
ATOM     28  C   UNL     1      -1.297  12.348  22.905  0.00  0.00    +0.000 A 
ATOM     29  C   UNL     1      -1.313  10.984  23.191  0.00  0.00    +0.000 A 
ATOM     30  C   UNL     1      -0.525  10.089  22.444  0.00  0.00    +0.000 A 
BRANCH  28  31
ATOM     31  O   UNL     1      -1.966  13.319  23.580  0.00  0.00    +0.000 OA
BRANCH  31  32
ATOM     32  C   UNL     1      -3.365  13.478  23.381  0.00  0.00    +0.000 C 
ATOM     33  F   UNL     1      -3.886  12.666  22.435  0.00  0.00    +0.000 F 
ATOM     34  F   UNL     1      -4.003  13.246  24.547  0.00  0.00    +0.000 F 
ATOM     35  F   UNL     1      -3.606  14.755  23.013  0.00  0.00    +0.000 F 
ENDBRANCH  31  32
ENDBRANCH  28  31
ENDBRANCH  23  25
ENDBRANCH   1  22
TORSDOF 7
ENDMDL
MODEL 9
REMARK VINA RESULT:      -7.8      3.008     10.582
REMARK  Name = 
REMARK  7 active torsions:
REMARK  status: ('A' for Active; 'I' for Inactive)
REMARK    1  A    between atoms: C_2  and  C_15
REMARK    2  A    between atoms: N_3  and  C_4
REMARK    3  A    between atoms: C_7  and  O_8
REMARK    4  A    between atoms: O_8  and  C_9
REMARK    5  A    between atoms: C_18  and  N_19
REMARK    6  A    between atoms: C_21  and  O_22
REMARK    7  A    between atoms: C_26  and  C_27
REMARK                            x       y       z     vdW  Elec       q    Type
REMARK                         _______ _______ _______ _____ _____    ______ ____
ROOT
ATOM      1  C   UNL     1       0.863   9.739  18.882  0.00  0.00    +0.000 A 
ATOM      2  C   UNL     1       1.075  10.436  20.056  0.00  0.00    +0.000 A 
ATOM      3  N   UNL     1       0.182  11.326  20.582  0.00  0.00    +0.000 NA
ATOM      4  C   UNL     1      -0.975  11.586  19.911  0.00  0.00    +0.000 A 
ATOM      5  C   UNL     1      -1.271  10.914  18.701  0.00  0.00    +0.000 A 
ATOM      6  C   UNL     1      -0.338   9.984  18.215  0.00  0.00    +0.000 A 
ENDROOT
BRANCH   4   7
ATOM      7  N   UNL     1      -1.831  12.544  20.431  0.00  0.00    +0.000 N 
ATOM      8  C   UNL     1      -1.565  13.975  20.272  0.00  0.00    +0.000 C 
ATOM      9  C   UNL     1      -1.820  14.585  21.659  0.00  0.00    +0.000 C 
ATOM     10  C   UNL     1      -2.855  13.664  22.276  0.00  0.00    +0.000 C 
ATOM     11  F   UNL     1      -4.098  14.047  21.862  0.00  0.00    +0.000 F 
ATOM     12  C   UNL     1      -2.528  12.285  21.702  0.00  0.00    +0.000 C 
BRANCH   9  13
ATOM     13  O   UNL     1      -0.631  14.608  22.460  0.00  0.00    +0.000 OA
ATOM     14  H   UNL     1      -0.215  13.731  22.373  0.00  0.00    +0.000 HD
ENDBRANCH   9  13
ENDBRANCH   4   7
BRANCH   5  15
ATOM     15  C   UNL     1      -2.446  11.195  17.868  0.00  0.00    +0.000 A 
ATOM     16  C   UNL     1      -3.779  11.365  18.185  0.00  0.00    +0.000 A 
ATOM     17  C   UNL     1      -4.441  11.524  16.957  0.00  0.00    +0.000 A 
ATOM     18  N   UNL     1      -3.596  11.532  15.926  0.00  0.00    +0.000 NA
ATOM     19  N   UNL     1      -2.391  11.376  16.507  0.00  0.00    +0.000 N 
ATOM     20  H   UNL     1      -1.571  11.376  15.910  0.00  0.00    +0.000 HD
ENDBRANCH   5  15
BRANCH   1  22
ATOM     21  O   UNL     1       2.276   9.273  17.127  0.00  0.00    +0.000 OA
ATOM     22  C   UNL     1       1.842   8.862  18.197  0.00  0.00    +0.000 C 
ATOM     23  N   UNL     1       2.156   7.637  18.773  0.00  0.00    +0.000 N 
ATOM     24  H   UNL     1       1.589   7.301  19.538  0.00  0.00    +0.000 HD
BRANCH  23  25
ATOM     25  C   UNL     1       3.074   6.705  18.207  0.00  0.00    +0.000 A 
ATOM     26  C   UNL     1       4.396   7.024  17.891  0.00  0.00    +0.000 A 
ATOM     27  C   UNL     1       5.248   6.080  17.307  0.00  0.00    +0.000 A 
ATOM     28  C   UNL     1       4.807   4.785  17.051  0.00  0.00    +0.000 A 
ATOM     29  C   UNL     1       3.482   4.460  17.337  0.00  0.00    +0.000 A 
ATOM     30  C   UNL     1       2.631   5.405  17.940  0.00  0.00    +0.000 A 
BRANCH  28  31
ATOM     31  O   UNL     1       5.713   3.987  16.426  0.00  0.00    +0.000 OA
BRANCH  31  32
ATOM     32  C   UNL     1       6.154   4.316  15.116  0.00  0.00    +0.000 C 
ATOM     33  F   UNL     1       7.350   4.943  15.074  0.00  0.00    +0.000 F 
ATOM     34  F   UNL     1       6.235   3.186  14.384  0.00  0.00    +0.000 F 
ATOM     35  F   UNL     1       5.239   5.127  14.543  0.00  0.00    +0.000 F 
ENDBRANCH  31  32
ENDBRANCH  28  31
ENDBRANCH  23  25
ENDBRANCH   1  22
TORSDOF 7
ENDMDL
