MODEL 1
REMARK VINA RESULT:      -8.0      0.000      0.000
REMARK  Name = 
REMARK  2 active torsions:
REMARK  status: ('A' for Active; 'I' for Inactive)
REMARK    1  A    between atoms: C_7  and  C_8
REMARK    2  A    between atoms: C_17  and  O_18
REMARK                            x       y       z     vdW  Elec       q    Type
REMARK                         _______ _______ _______ _____ _____    ______ ____
ROOT
ATOM      1  O   UNL     1       2.639   2.060  17.850  0.00  0.00    +0.000 OA
ATOM      2  C   UNL     1       2.230   2.600  18.857  0.00  0.00    +0.000 C 
ATOM      3  N   UNL     1       1.833   1.988  20.021  0.00  0.00    +0.000 N 
ATOM      4  C   UNL     1       1.342   2.920  20.994  0.00  0.00    +0.000 C 
ATOM      5  C   UNL     1       1.569   4.214  20.279  0.00  0.00    +0.000 C 
ATOM      6  C   UNL     1       2.081   4.039  19.062  0.00  0.00    +0.000 C 
ATOM      7  C   UNL     1       2.539   5.127  18.174  0.00  0.00    +0.000 C 
ATOM      8  C   UNL     1       2.204   6.490  18.766  0.00  0.00    +0.000 C 
ATOM      9  C   UNL     1       2.399   7.695  18.196  0.00  0.00    +0.000 C 
ATOM     10  C   UNL     1       2.183   9.026  18.863  0.00  0.00    +0.000 C 
ATOM     11  O   UNL     1       1.554   9.052  20.129  0.00  0.00    +0.000 OA
ATOM     12  C   UNL     1       1.372   7.843  20.810  0.00  0.00    +0.000 C 
ATOM     13  C   UNL     1       1.638   6.491  20.155  0.00  0.00    +0.000 C 
ATOM     14  N   UNL     1       1.349   5.431  20.859  0.00  0.00    +0.000 NA
ATOM     15  H   UNL     1       1.878   0.984  20.133  0.00  0.00    +0.000 HD
ENDROOT
BRANCH   7  16
ATOM     16  C   UNL     1       4.043   5.003  17.916  0.00  0.00    +0.000 A 
ATOM     17  C   UNL     1       4.964   5.161  18.966  0.00  0.00    +0.000 A 
ATOM     18  C   UNL     1       6.330   5.044  18.728  0.00  0.00    +0.000 A 
ATOM     19  C   UNL     1       6.796   4.800  17.435  0.00  0.00    +0.000 A 
ATOM     20  F   UNL     1       8.116   4.704  17.234  0.00  0.00    +0.000 F 
ATOM     21  C   UNL     1       5.899   4.657  16.382  0.00  0.00    +0.000 A 
ATOM     22 BR   UNL     1       6.515   4.359  14.619  0.00  0.00    +0.000 Br
ATOM     23  C   UNL     1       4.529   4.748  16.618  0.00  0.00    +0.000 A 
ENDBRANCH   7  16
BRANCH   9  24
ATOM     24  O   UNL     1       2.879   7.842  16.902  0.00  0.00    +0.000 OA
ATOM     25  H   UNL     1       3.847   7.782  16.876  0.00  0.00    +0.000 HD
ENDBRANCH   9  24
TORSDOF 2
ENDMDL
MODEL 2
REMARK VINA RESULT:      -8.0      3.501      5.682
REMARK  Name = 
REMARK  2 active torsions:
REMARK  status: ('A' for Active; 'I' for Inactive)
REMARK    1  A    between atoms: C_7  and  C_8
REMARK    2  A    between atoms: C_17  and  O_18
REMARK                            x       y       z     vdW  Elec       q    Type
REMARK                         _______ _______ _______ _____ _____    ______ ____
ROOT
ATOM      1  O   UNL     1       5.891   7.568  16.761  0.00  0.00    +0.000 OA
ATOM      2  C   UNL     1       6.120   6.673  17.550  0.00  0.00    +0.000 C 
ATOM      3  N   UNL     1       7.284   6.464  18.249  0.00  0.00    +0.000 N 
ATOM      4  C   UNL     1       7.239   5.273  19.048  0.00  0.00    +0.000 C 
ATOM      5  C   UNL     1       5.837   4.820  18.795  0.00  0.00    +0.000 C 
ATOM      6  C   UNL     1       5.191   5.617  17.946  0.00  0.00    +0.000 C 
ATOM      7  C   UNL     1       3.757   5.506  17.608  0.00  0.00    +0.000 C 
ATOM      8  C   UNL     1       3.144   4.261  18.237  0.00  0.00    +0.000 C 
ATOM      9  C   UNL     1       1.888   3.803  18.076  0.00  0.00    +0.000 C 
ATOM     10  C   UNL     1       1.274   2.646  18.817  0.00  0.00    +0.000 C 
ATOM     11  O   UNL     1       2.113   1.842  19.625  0.00  0.00    +0.000 OA
ATOM     12  C   UNL     1       3.413   2.286  19.887  0.00  0.00    +0.000 C 
ATOM     13  C   UNL     1       4.024   3.488  19.175  0.00  0.00    +0.000 C 
ATOM     14  N   UNL     1       5.274   3.754  19.436  0.00  0.00    +0.000 NA
ATOM     15  H   UNL     1       8.071   7.091  18.166  0.00  0.00    +0.000 HD
ENDROOT
BRANCH   7  16
ATOM     16  C   UNL     1       3.008   6.765  18.057  0.00  0.00    +0.000 A 
ATOM     17  C   UNL     1       2.823   7.840  17.172  0.00  0.00    +0.000 A 
ATOM     18  C   UNL     1       2.140   8.981  17.584  0.00  0.00    +0.000 A 
ATOM     19  C   UNL     1       1.661   9.075  18.891  0.00  0.00    +0.000 A 
ATOM     20  F   UNL     1       1.018  10.190  19.262  0.00  0.00    +0.000 F 
ATOM     21  C   UNL     1       1.850   8.027  19.784  0.00  0.00    +0.000 A 
ATOM     22 BR   UNL     1       1.237   8.152  21.569  0.00  0.00    +0.000 Br
ATOM     23  C   UNL     1       2.512   6.872  19.372  0.00  0.00    +0.000 A 
ENDBRANCH   7  16
BRANCH   9  24
ATOM     24  O   UNL     1       0.980   4.396  17.210  0.00  0.00    +0.000 OA
ATOM     25  H   UNL     1       1.363   4.521  16.328  0.00  0.00    +0.000 HD
ENDBRANCH   9  24
TORSDOF 2
ENDMDL
MODEL 3
REMARK VINA RESULT:      -7.6      1.132      1.509
REMARK  Name = 
REMARK  2 active torsions:
REMARK  status: ('A' for Active; 'I' for Inactive)
REMARK    1  A    between atoms: C_7  and  C_8
REMARK    2  A    between atoms: C_17  and  O_18
REMARK                            x       y       z     vdW  Elec       q    Type
REMARK                         _______ _______ _______ _____ _____    ______ ____
ROOT
ATOM      1  O   UNL     1       2.512   2.043  17.416  0.00  0.00    +0.000 OA
ATOM      2  C   UNL     1       2.179   2.523  18.480  0.00  0.00    +0.000 C 
ATOM      3  N   UNL     1       1.847   1.843  19.627  0.00  0.00    +0.000 N 
ATOM      4  C   UNL     1       1.437   2.719  20.686  0.00  0.00    +0.000 C 
ATOM      5  C   UNL     1       1.641   4.053  20.041  0.00  0.00    +0.000 C 
ATOM      6  C   UNL     1       2.070   3.948  18.784  0.00  0.00    +0.000 C 
ATOM      7  C   UNL     1       2.489   5.084  17.938  0.00  0.00    +0.000 C 
ATOM      8  C   UNL     1       2.219   6.411  18.635  0.00  0.00    +0.000 C 
ATOM      9  C   UNL     1       2.399   7.647  18.130  0.00  0.00    +0.000 C 
ATOM     10  C   UNL     1       2.251   8.936  18.892  0.00  0.00    +0.000 C 
ATOM     11  O   UNL     1       1.706   8.890  20.197  0.00  0.00    +0.000 OA
ATOM     12  C   UNL     1       1.547   7.642  20.810  0.00  0.00    +0.000 C 
ATOM     13  C   UNL     1       1.744   6.332  20.056  0.00  0.00    +0.000 C 
ATOM     14  N   UNL     1       1.481   5.233  20.709  0.00  0.00    +0.000 NA
ATOM     15  H   UNL     1       1.880   0.834  19.672  0.00  0.00    +0.000 HD
ENDROOT
BRANCH   7  16
ATOM     16  C   UNL     1       3.972   4.955  17.575  0.00  0.00    +0.000 A 
ATOM     17  C   UNL     1       4.359   4.451  16.321  0.00  0.00    +0.000 A 
ATOM     18  C   UNL     1       5.708   4.338  15.994  0.00  0.00    +0.000 A 
ATOM     19  C   UNL     1       6.684   4.695  16.924  0.00  0.00    +0.000 A 
ATOM     20  F   UNL     1       7.974   4.564  16.586  0.00  0.00    +0.000 F 
ATOM     21  C   UNL     1       6.318   5.181  18.174  0.00  0.00    +0.000 A 
ATOM     22 BR   UNL     1       7.630   5.639  19.459  0.00  0.00    +0.000 Br
ATOM     23  C   UNL     1       4.970   5.319  18.500  0.00  0.00    +0.000 A 
ENDBRANCH   7  16
BRANCH   9  24
ATOM     24  O   UNL     1       2.798   7.869  16.819  0.00  0.00    +0.000 OA
ATOM     25  H   UNL     1       3.524   8.510  16.776  0.00  0.00    +0.000 HD
ENDBRANCH   9  24
TORSDOF 2
ENDMDL
MODEL 4
REMARK VINA RESULT:      -7.3      3.412      5.729
REMARK  Name = 
REMARK  2 active torsions:
REMARK  status: ('A' for Active; 'I' for Inactive)
REMARK    1  A    between atoms: C_7  and  C_8
REMARK    2  A    between atoms: C_17  and  O_18
REMARK                            x       y       z     vdW  Elec       q    Type
REMARK                         _______ _______ _______ _____ _____    ______ ____
ROOT
ATOM      1  O   UNL     1       5.595   7.905  17.086  0.00  0.00    +0.000 OA
ATOM      2  C   UNL     1       5.971   6.867  17.592  0.00  0.00    +0.000 C 
ATOM      3  N   UNL     1       7.227   6.588  18.073  0.00  0.00    +0.000 N 
ATOM      4  C   UNL     1       7.348   5.239  18.547  0.00  0.00    +0.000 C 
ATOM      5  C   UNL     1       5.948   4.750  18.357  0.00  0.00    +0.000 C 
ATOM      6  C   UNL     1       5.156   5.675  17.819  0.00  0.00    +0.000 C 
ATOM      7  C   UNL     1       3.696   5.535  17.637  0.00  0.00    +0.000 C 
ATOM      8  C   UNL     1       3.235   4.130  18.002  0.00  0.00    +0.000 C 
ATOM      9  C   UNL     1       1.992   3.625  17.883  0.00  0.00    +0.000 C 
ATOM     10  C   UNL     1       1.540   2.278  18.378  0.00  0.00    +0.000 C 
ATOM     11  O   UNL     1       2.517   1.372  18.853  0.00  0.00    +0.000 OA
ATOM     12  C   UNL     1       3.819   1.841  19.060  0.00  0.00    +0.000 C 
ATOM     13  C   UNL     1       4.269   3.226  18.605  0.00  0.00    +0.000 C 
ATOM     14  N   UNL     1       5.529   3.519  18.773  0.00  0.00    +0.000 NA
ATOM     15  H   UNL     1       7.966   7.278  18.056  0.00  0.00    +0.000 HD
ENDROOT
BRANCH   7  16
ATOM     16  C   UNL     1       2.956   6.583  18.474  0.00  0.00    +0.000 A 
ATOM     17  C   UNL     1       2.632   6.327  19.817  0.00  0.00    +0.000 A 
ATOM     18  C   UNL     1       1.962   7.284  20.574  0.00  0.00    +0.000 A 
ATOM     19  C   UNL     1       1.580   8.493  19.992  0.00  0.00    +0.000 A 
ATOM     20  F   UNL     1       0.925   9.390  20.742  0.00  0.00    +0.000 F 
ATOM     21  C   UNL     1       1.878   8.756  18.660  0.00  0.00    +0.000 A 
ATOM     22 BR   UNL     1       1.338  10.376  17.847  0.00  0.00    +0.000 Br
ATOM     23  C   UNL     1       2.570   7.813  17.903  0.00  0.00    +0.000 A 
ENDBRANCH   7  16
BRANCH   9  24
ATOM     24  O   UNL     1       0.947   4.336  17.308  0.00  0.00    +0.000 OA
ATOM     25  H   UNL     1       0.587   4.993  17.924  0.00  0.00    +0.000 HD
ENDBRANCH   9  24
TORSDOF 2
ENDMDL
MODEL 5
REMARK VINA RESULT:      -7.1      1.520      1.799
REMARK  Name = 
REMARK  2 active torsions:
REMARK  status: ('A' for Active; 'I' for Inactive)
REMARK    1  A    between atoms: C_7  and  C_8
REMARK    2  A    between atoms: C_17  and  O_18
REMARK                            x       y       z     vdW  Elec       q    Type
REMARK                         _______ _______ _______ _____ _____    ______ ____
ROOT
ATOM      1  O   UNL     1       3.281   2.872  17.293  0.00  0.00    +0.000 OA
ATOM      2  C   UNL     1       2.887   3.169  18.403  0.00  0.00    +0.000 C 
ATOM      3  N   UNL     1       2.743   2.331  19.482  0.00  0.00    +0.000 N 
ATOM      4  C   UNL     1       2.189   2.996  20.625  0.00  0.00    +0.000 C 
ATOM      5  C   UNL     1       2.085   4.396  20.111  0.00  0.00    +0.000 C 
ATOM      6  C   UNL     1       2.487   4.503  18.845  0.00  0.00    +0.000 C 
ATOM      7  C   UNL     1       2.628   5.776  18.109  0.00  0.00    +0.000 C 
ATOM      8  C   UNL     1       2.103   6.943  18.935  0.00  0.00    +0.000 C 
ATOM      9  C   UNL     1       2.001   8.230  18.551  0.00  0.00    +0.000 C 
ATOM     10  C   UNL     1       1.606   9.381  19.435  0.00  0.00    +0.000 C 
ATOM     11  O   UNL     1       1.124   9.098  20.735  0.00  0.00    +0.000 OA
ATOM     12  C   UNL     1       1.253   7.795  21.226  0.00  0.00    +0.000 C 
ATOM     13  C   UNL     1       1.701   6.632  20.346  0.00  0.00    +0.000 C 
ATOM     14  N   UNL     1       1.699   5.448  20.892  0.00  0.00    +0.000 NA
ATOM     15  H   UNL     1       2.992   1.352  19.429  0.00  0.00    +0.000 HD
ENDROOT
BRANCH   7  16
ATOM     16  C   UNL     1       4.092   6.002  17.719  0.00  0.00    +0.000 A 
ATOM     17  C   UNL     1       4.432   6.391  16.412  0.00  0.00    +0.000 A 
ATOM     18  C   UNL     1       5.763   6.598  16.063  0.00  0.00    +0.000 A 
ATOM     19  C   UNL     1       6.773   6.390  17.003  0.00  0.00    +0.000 A 
ATOM     20  F   UNL     1       8.046   6.585  16.635  0.00  0.00    +0.000 F 
ATOM     21  C   UNL     1       6.455   5.989  18.296  0.00  0.00    +0.000 A 
ATOM     22 BR   UNL     1       7.814   5.670  19.573  0.00  0.00    +0.000 Br
ATOM     23  C   UNL     1       5.123   5.803  18.660  0.00  0.00    +0.000 A 
ENDBRANCH   7  16
BRANCH   9  24
ATOM     24  O   UNL     1       2.302   8.653  17.263  0.00  0.00    +0.000 OA
ATOM     25  H   UNL     1       1.584   9.189  16.892  0.00  0.00    +0.000 HD
ENDBRANCH   9  24
TORSDOF 2
ENDMDL
MODEL 6
REMARK VINA RESULT:      -7.0      3.512      4.918
REMARK  Name = 
REMARK  2 active torsions:
REMARK  status: ('A' for Active; 'I' for Inactive)
REMARK    1  A    between atoms: C_7  and  C_8
REMARK    2  A    between atoms: C_17  and  O_18
REMARK                            x       y       z     vdW  Elec       q    Type
REMARK                         _______ _______ _______ _____ _____    ______ ____
ROOT
ATOM      1  O   UNL     1       5.635   4.195  18.174  0.00  0.00    +0.000 OA
ATOM      2  C   UNL     1       5.317   5.146  17.489  0.00  0.00    +0.000 C 
ATOM      3  N   UNL     1       5.750   5.430  16.217  0.00  0.00    +0.000 N 
ATOM      4  C   UNL     1       5.225   6.670  15.721  0.00  0.00    +0.000 C 
ATOM      5  C   UNL     1       4.336   7.070  16.854  0.00  0.00    +0.000 C 
ATOM      6  C   UNL     1       4.379   6.201  17.864  0.00  0.00    +0.000 C 
ATOM      7  C   UNL     1       3.513   6.253  19.060  0.00  0.00    +0.000 C 
ATOM      8  C   UNL     1       2.668   7.522  19.065  0.00  0.00    +0.000 C 
ATOM      9  C   UNL     1       1.830   7.936  20.034  0.00  0.00    +0.000 C 
ATOM     10  C   UNL     1       0.909   9.123  19.950  0.00  0.00    +0.000 C 
ATOM     11  O   UNL     1       1.039  10.000  18.847  0.00  0.00    +0.000 OA
ATOM     12  C   UNL     1       1.846   9.608  17.773  0.00  0.00    +0.000 C 
ATOM     13  C   UNL     1       2.744   8.377  17.835  0.00  0.00    +0.000 C 
ATOM     14  N   UNL     1       3.517   8.161  16.807  0.00  0.00    +0.000 NA
ATOM     15  H   UNL     1       6.388   4.819  15.726  0.00  0.00    +0.000 HD
ENDROOT
BRANCH   7  16
ATOM     16  C   UNL     1       2.622   5.009  19.122  0.00  0.00    +0.000 A 
ATOM     17  C   UNL     1       1.920   4.574  17.986  0.00  0.00    +0.000 A 
ATOM     18  C   UNL     1       1.115   3.440  18.047  0.00  0.00    +0.000 A 
ATOM     19  C   UNL     1       0.975   2.746  19.249  0.00  0.00    +0.000 A 
ATOM     20  F   UNL     1       0.184   1.666  19.281  0.00  0.00    +0.000 F 
ATOM     21  C   UNL     1       1.650   3.172  20.387  0.00  0.00    +0.000 A 
ATOM     22 BR   UNL     1       1.445   2.262  22.033  0.00  0.00    +0.000 Br
ATOM     23  C   UNL     1       2.477   4.292  20.328  0.00  0.00    +0.000 A 
ENDBRANCH   7  16
BRANCH   9  24
ATOM     24  O   UNL     1       1.690   7.264  21.241  0.00  0.00    +0.000 OA
ATOM     25  H   UNL     1       0.892   6.712  21.246  0.00  0.00    +0.000 HD
ENDBRANCH   9  24
TORSDOF 2
ENDMDL
MODEL 7
REMARK VINA RESULT:      -6.7      3.457      5.234
REMARK  Name = 
REMARK  2 active torsions:
REMARK  status: ('A' for Active; 'I' for Inactive)
REMARK    1  A    between atoms: C_7  and  C_8
REMARK    2  A    between atoms: C_17  and  O_18
REMARK                            x       y       z     vdW  Elec       q    Type
REMARK                         _______ _______ _______ _____ _____    ______ ____
ROOT
ATOM      1  O   UNL     1       1.258   4.614  21.127  0.00  0.00    +0.000 OA
ATOM      2  C   UNL     1       1.435   3.960  20.120  0.00  0.00    +0.000 C 
ATOM      3  N   UNL     1       0.669   2.913  19.667  0.00  0.00    +0.000 N 
ATOM      4  C   UNL     1       1.200   2.320  18.473  0.00  0.00    +0.000 C 
ATOM      5  C   UNL     1       2.370   3.213  18.214  0.00  0.00    +0.000 C 
ATOM      6  C   UNL     1       2.507   4.154  19.146  0.00  0.00    +0.000 C 
ATOM      7  C   UNL     1       3.484   5.262  19.090  0.00  0.00    +0.000 C 
ATOM      8  C   UNL     1       4.424   5.099  17.903  0.00  0.00    +0.000 C 
ATOM      9  C   UNL     1       5.481   5.873  17.591  0.00  0.00    +0.000 C 
ATOM     10  C   UNL     1       6.308   5.767  16.338  0.00  0.00    +0.000 C 
ATOM     11  O   UNL     1       6.094   4.660  15.482  0.00  0.00    +0.000 OA
ATOM     12  C   UNL     1       4.979   3.846  15.708  0.00  0.00    +0.000 C 
ATOM     13  C   UNL     1       4.109   3.983  16.952  0.00  0.00    +0.000 C 
ATOM     14  N   UNL     1       3.150   3.110  17.097  0.00  0.00    +0.000 NA
ATOM     15  H   UNL     1      -0.158   2.610  20.161  0.00  0.00    +0.000 HD
ENDROOT
BRANCH   7  16
ATOM     16  C   UNL     1       2.755   6.607  19.024  0.00  0.00    +0.000 A 
ATOM     17  C   UNL     1       2.596   7.275  17.798  0.00  0.00    +0.000 A 
ATOM     18  C   UNL     1       1.929   8.496  17.743  0.00  0.00    +0.000 A 
ATOM     19  C   UNL     1       1.443   9.080  18.912  0.00  0.00    +0.000 A 
ATOM     20  F   UNL     1       0.817  10.262  18.830  0.00  0.00    +0.000 F 
ATOM     21  C   UNL     1       1.606   8.441  20.136  0.00  0.00    +0.000 A 
ATOM     22 BR   UNL     1       0.982   9.235  21.736  0.00  0.00    +0.000 Br
ATOM     23  C   UNL     1       2.250   7.207  20.196  0.00  0.00    +0.000 A 
ENDBRANCH   7  16
BRANCH   9  24
ATOM     24  O   UNL     1       5.910   6.916  18.400  0.00  0.00    +0.000 OA
ATOM     25  H   UNL     1       6.878   6.984  18.405  0.00  0.00    +0.000 HD
ENDBRANCH   9  24
TORSDOF 2
ENDMDL
MODEL 8
REMARK VINA RESULT:      -6.6      9.869     11.957
REMARK  Name = 
REMARK  2 active torsions:
REMARK  status: ('A' for Active; 'I' for Inactive)
REMARK    1  A    between atoms: C_7  and  C_8
REMARK    2  A    between atoms: C_17  and  O_18
REMARK                            x       y       z     vdW  Elec       q    Type
REMARK                         _______ _______ _______ _____ _____    ______ ____
ROOT
ATOM      1  O   UNL     1      -7.005   9.346  19.137  0.00  0.00    +0.000 OA
ATOM      2  C   UNL     1      -7.270  10.220  19.938  0.00  0.00    +0.000 C 
ATOM      3  N   UNL     1      -7.595  10.058  21.263  0.00  0.00    +0.000 N 
ATOM      4  C   UNL     1      -7.915  11.299  21.907  0.00  0.00    +0.000 C 
ATOM      5  C   UNL     1      -7.661  12.265  20.794  0.00  0.00    +0.000 C 
ATOM      6  C   UNL     1      -7.288  11.656  19.669  0.00  0.00    +0.000 C 
ATOM      7  C   UNL     1      -6.839  12.349  18.444  0.00  0.00    +0.000 C 
ATOM      8  C   UNL     1      -7.009  13.857  18.578  0.00  0.00    +0.000 C 
ATOM      9  C   UNL     1      -6.780  14.788  17.632  0.00  0.00    +0.000 C 
ATOM     10  C   UNL     1      -6.826  16.278  17.838  0.00  0.00    +0.000 C 
ATOM     11  O   UNL     1      -7.323  16.773  19.067  0.00  0.00    +0.000 OA
ATOM     12  C   UNL     1      -7.527  15.872  20.117  0.00  0.00    +0.000 C 
ATOM     13  C   UNL     1      -7.432  14.362  19.925  0.00  0.00    +0.000 C 
ATOM     14  N   UNL     1      -7.730  13.619  20.956  0.00  0.00    +0.000 NA
ATOM     15  H   UNL     1      -7.616   9.144  21.695  0.00  0.00    +0.000 HD
ENDROOT
BRANCH   7  16
ATOM     16  C   UNL     1      -5.382  11.992  18.138  0.00  0.00    +0.000 A 
ATOM     17  C   UNL     1      -5.028  11.428  16.900  0.00  0.00    +0.000 A 
ATOM     18  C   UNL     1      -3.702  11.108  16.625  0.00  0.00    +0.000 A 
ATOM     19  C   UNL     1      -2.718  11.317  17.592  0.00  0.00    +0.000 A 
ATOM     20  F   UNL     1      -1.452  10.988  17.304  0.00  0.00    +0.000 F 
ATOM     21  C   UNL     1      -3.053  11.860  18.827  0.00  0.00    +0.000 A 
ATOM     22 BR   UNL     1      -1.736  12.120  20.161  0.00  0.00    +0.000 Br
ATOM     23  C   UNL     1      -4.375  12.205  19.101  0.00  0.00    +0.000 A 
ENDBRANCH   7  16
BRANCH   9  24
ATOM     24  O   UNL     1      -6.421  14.462  16.332  0.00  0.00    +0.000 OA
ATOM     25  H   UNL     1      -5.665  13.855  16.316  0.00  0.00    +0.000 HD
ENDBRANCH   9  24
TORSDOF 2
ENDMDL
MODEL 9
REMARK VINA RESULT:      -6.1      9.963     11.976
REMARK  Name = 
REMARK  2 active torsions:
REMARK  status: ('A' for Active; 'I' for Inactive)
REMARK    1  A    between atoms: C_7  and  C_8
REMARK    2  A    between atoms: C_17  and  O_18
REMARK                            x       y       z     vdW  Elec       q    Type
REMARK                         _______ _______ _______ _____ _____    ______ ____
ROOT
ATOM      1  O   UNL     1       5.574  14.300  18.307  0.00  0.00    +0.000 OA
ATOM      2  C   UNL     1       5.942  15.415  18.618  0.00  0.00    +0.000 C 
ATOM      3  N   UNL     1       5.231  16.354  19.326  0.00  0.00    +0.000 N 
ATOM      4  C   UNL     1       5.941  17.593  19.462  0.00  0.00    +0.000 C 
ATOM      5  C   UNL     1       7.234  17.249  18.795  0.00  0.00    +0.000 C 
ATOM      6  C   UNL     1       7.244  16.006  18.317  0.00  0.00    +0.000 C 
ATOM      7  C   UNL     1       8.423  15.336  17.730  0.00  0.00    +0.000 C 
ATOM      8  C   UNL     1       9.590  16.306  17.597  0.00  0.00    +0.000 C 
ATOM      9  C   UNL     1      10.788  16.064  17.033  0.00  0.00    +0.000 C 
ATOM     10  C   UNL     1      11.967  17.000  17.040  0.00  0.00    +0.000 C 
ATOM     11  O   UNL     1      11.776  18.320  17.512  0.00  0.00    +0.000 OA
ATOM     12  C   UNL     1      10.578  18.630  18.164  0.00  0.00    +0.000 C 
ATOM     13  C   UNL     1       9.398  17.664  18.204  0.00  0.00    +0.000 C 
ATOM     14  N   UNL     1       8.303  18.098  18.765  0.00  0.00    +0.000 NA
ATOM     15  H   UNL     1       4.303  16.161  19.677  0.00  0.00    +0.000 HD
ENDROOT
BRANCH   7  16
ATOM     16  C   UNL     1       8.819  14.123  18.577  0.00  0.00    +0.000 A 
ATOM     17  C   UNL     1       9.386  14.296  19.851  0.00  0.00    +0.000 A 
ATOM     18  C   UNL     1       9.742  13.190  20.618  0.00  0.00    +0.000 A 
ATOM     19  C   UNL     1       9.566  11.902  20.112  0.00  0.00    +0.000 A 
ATOM     20  F   UNL     1       9.928  10.858  20.869  0.00  0.00    +0.000 F 
ATOM     21  C   UNL     1       9.020  11.714  18.847  0.00  0.00    +0.000 A 
ATOM     22 BR   UNL     1       8.805   9.976  18.133  0.00  0.00    +0.000 Br
ATOM     23  C   UNL     1       8.639  12.815  18.083  0.00  0.00    +0.000 A 
ENDBRANCH   7  16
BRANCH   9  24
ATOM     24  O   UNL     1      11.090  14.865  16.401  0.00  0.00    +0.000 OA
ATOM     25  H   UNL     1      10.469  14.166  16.657  0.00  0.00    +0.000 HD
ENDBRANCH   9  24
TORSDOF 2
ENDMDL
