MODEL 1
REMARK VINA RESULT:      -8.0      0.000      0.000
REMARK  Name = 
REMARK  12 active torsions:
REMARK  status: ('A' for Active; 'I' for Inactive)
REMARK    1  A    between atoms: C_2  and  C_3
REMARK    2  A    between atoms: C_7  and  N_8
REMARK    3  A    between atoms: N_8  and  C_9
REMARK    4  A    between atoms: C_13  and  C_14
REMARK    5  A    between atoms: C_14  and  O_16
REMARK    6  A    between atoms: N_24  and  C_25
REMARK    7  A    between atoms: C_25  and  C_26
REMARK    8  A    between atoms: C_26  and  C_27
REMARK    9  A    between atoms: C_27  and  O_28
REMARK   10  A    between atoms: O_28  and  C_29
REMARK   11  A    between atoms: C_29  and  C_30
REMARK   12  A    between atoms: C_29  and  C_31
REMARK                            x       y       z     vdW  Elec       q    Type
REMARK                         _______ _______ _______ _____ _____    ______ ____
ROOT
ATOM      1  C   UNL     1      -0.635  10.488  19.046  0.00  0.00    +0.000 A 
ATOM      2  N   UNL     1      -0.924  10.040  17.797  0.00  0.00    +0.000 NA
ATOM      3  C   UNL     1      -2.031  10.436  17.189  0.00  0.00    +0.000 A 
ATOM      4  C   UNL     1      -2.239   9.967  15.901  0.00  0.00    +0.000 A 
ATOM      5  C   UNL     1      -3.375  10.325  15.176  0.00  0.00    +0.000 A 
ATOM      6  C   UNL     1      -4.302  11.195  15.749  0.00  0.00    +0.000 A 
ATOM      7  C   UNL     1      -4.100  11.672  17.044  0.00  0.00    +0.000 A 
ATOM      8  C   UNL     1      -2.955  11.296  17.797  0.00  0.00    +0.000 A 
ATOM      9  C   UNL     1      -2.645  11.733  19.123  0.00  0.00    +0.000 A 
ATOM     10  C   UNL     1      -3.442  12.583  19.879  0.00  0.00    +0.000 A 
ATOM     11  N   UNL     1      -3.150  13.014  21.120  0.00  0.00    +0.000 NA
ATOM     12  C   UNL     1      -2.003  12.602  21.654  0.00  0.00    +0.000 A 
ATOM     13  N   UNL     1      -1.621  13.081  22.890  0.00  0.00    +0.000 N 
ATOM     14  N   UNL     1      -1.154  11.774  21.030  0.00  0.00    +0.000 NA
ATOM     15  C   UNL     1      -1.473  11.343  19.779  0.00  0.00    +0.000 A 
ATOM     16  H   UNL     1      -0.808  12.595  23.239  0.00  0.00    +0.000 HD
ENDROOT
BRANCH   1  17
ATOM     17  N   UNL     1       0.610  10.094  19.585  0.00  0.00    +0.000 N 
ATOM     18  H   UNL     1       1.077  10.825  20.108  0.00  0.00    +0.000 HD
BRANCH  17  23
ATOM     19  C   UNL     1       2.216   6.726  19.660  0.00  0.00    +0.000 A 
ATOM     20  C   UNL     1       3.014   6.786  18.521  0.00  0.00    +0.000 A 
ATOM     21  C   UNL     1       3.010   7.940  17.733  0.00  0.00    +0.000 A 
ATOM     22  C   UNL     1       2.198   9.029  18.079  0.00  0.00    +0.000 A 
ATOM     23  C   UNL     1       1.383   8.980  19.214  0.00  0.00    +0.000 A 
ATOM     24  C   UNL     1       1.418   7.819  20.003  0.00  0.00    +0.000 A 
BRANCH  19  26
ATOM     25  C   UNL     1       2.229   4.573  21.170  0.00  0.00    +0.000 C 
ATOM     26  C   UNL     1       2.200   5.561  20.490  0.00  0.00    +0.000 C 
ENDBRANCH  19  26
ENDBRANCH  17  23
ENDBRANCH   1  17
BRANCH   5  27
ATOM     27  C   UNL     1      -3.605   9.854  13.788  0.00  0.00    +0.000 C 
ATOM     28  O   UNL     1      -4.715   9.562  13.375  0.00  0.00    +0.000 OA
BRANCH  27  29
ATOM     29  O   UNL     1      -2.487   9.735  13.045  0.00  0.00    +0.000 OA
ATOM     30  H   UNL     1      -2.615   9.649  12.082  0.00  0.00    +0.000 HD
ENDBRANCH  27  29
ENDBRANCH   5  27
BRANCH  13  31
ATOM     31  C   UNL     1      -2.664  13.448  23.838  0.00  0.00    +0.000 C 
BRANCH  31  32
ATOM     32  C   UNL     1      -3.635  12.292  24.094  0.00  0.00    +0.000 C 
BRANCH  32  33
ATOM     33  C   UNL     1      -5.071  12.794  24.257  0.00  0.00    +0.000 C 
BRANCH  33  34
ATOM     34  O   UNL     1      -5.855  12.373  23.143  0.00  0.00    +0.000 OA
BRANCH  34  35
ATOM     35  C   UNL     1      -7.271  12.444  23.350  0.00  0.00    +0.000 C 
ATOM     36  C   UNL     1      -7.644  13.550  24.334  0.00  0.00    +0.000 C 
ATOM     37  C   UNL     1      -7.907  12.733  21.992  0.00  0.00    +0.000 C 
ENDBRANCH  34  35
ENDBRANCH  33  34
ENDBRANCH  32  33
ENDBRANCH  31  32
ENDBRANCH  13  31
TORSDOF 10
ENDMDL
MODEL 2
REMARK VINA RESULT:      -7.6      4.185      9.277
REMARK  Name = 
REMARK  12 active torsions:
REMARK  status: ('A' for Active; 'I' for Inactive)
REMARK    1  A    between atoms: C_2  and  C_3
REMARK    2  A    between atoms: C_7  and  N_8
REMARK    3  A    between atoms: N_8  and  C_9
REMARK    4  A    between atoms: C_13  and  C_14
REMARK    5  A    between atoms: C_14  and  O_16
REMARK    6  A    between atoms: N_24  and  C_25
REMARK    7  A    between atoms: C_25  and  C_26
REMARK    8  A    between atoms: C_26  and  C_27
REMARK    9  A    between atoms: C_27  and  O_28
REMARK   10  A    between atoms: O_28  and  C_29
REMARK   11  A    between atoms: C_29  and  C_30
REMARK   12  A    between atoms: C_29  and  C_31
REMARK                            x       y       z     vdW  Elec       q    Type
REMARK                         _______ _______ _______ _____ _____    ______ ____
ROOT
ATOM      1  C   UNL     1       1.616   7.362  20.790  0.00  0.00    +0.000 A 
ATOM      2  N   UNL     1       0.798   8.212  21.463  0.00  0.00    +0.000 NA
ATOM      3  C   UNL     1       0.403   9.342  20.896  0.00  0.00    +0.000 A 
ATOM      4  C   UNL     1      -0.462  10.139  21.628  0.00  0.00    +0.000 A 
ATOM      5  C   UNL     1      -0.935  11.349  21.121  0.00  0.00    +0.000 A 
ATOM      6  C   UNL     1      -0.551  11.746  19.840  0.00  0.00    +0.000 A 
ATOM      7  C   UNL     1       0.319  10.949  19.097  0.00  0.00    +0.000 A 
ATOM      8  C   UNL     1       0.821   9.724  19.615  0.00  0.00    +0.000 A 
ATOM      9  C   UNL     1       1.705   8.828  18.936  0.00  0.00    +0.000 A 
ATOM     10  C   UNL     1       2.221   9.042  17.665  0.00  0.00    +0.000 A 
ATOM     11  N   UNL     1       3.039   8.197  17.011  0.00  0.00    +0.000 NA
ATOM     12  C   UNL     1       3.364   7.065  17.629  0.00  0.00    +0.000 A 
ATOM     13  N   UNL     1       4.134   6.130  16.967  0.00  0.00    +0.000 N 
ATOM     14  N   UNL     1       2.940   6.747  18.860  0.00  0.00    +0.000 NA
ATOM     15  C   UNL     1       2.121   7.621  19.506  0.00  0.00    +0.000 A 
ATOM     16  H   UNL     1       4.421   5.385  17.585  0.00  0.00    +0.000 HD
ENDROOT
BRANCH   1  17
ATOM     17  N   UNL     1       1.913   6.136  21.428  0.00  0.00    +0.000 N 
ATOM     18  H   UNL     1       2.420   6.242  22.298  0.00  0.00    +0.000 HD
BRANCH  17  23
ATOM     19  C   UNL     1       2.998   2.756  20.276  0.00  0.00    +0.000 A 
ATOM     20  C   UNL     1       1.851   2.317  19.621  0.00  0.00    +0.000 A 
ATOM     21  C   UNL     1       0.724   3.142  19.571  0.00  0.00    +0.000 A 
ATOM     22  C   UNL     1       0.742   4.401  20.187  0.00  0.00    +0.000 A 
ATOM     23  C   UNL     1       1.883   4.852  20.857  0.00  0.00    +0.000 A 
ATOM     24  C   UNL     1       3.011   4.016  20.878  0.00  0.00    +0.000 A 
BRANCH  19  26
ATOM     25  C   UNL     1       5.161   1.269  20.442  0.00  0.00    +0.000 C 
ATOM     26  C   UNL     1       4.170   1.938  20.343  0.00  0.00    +0.000 C 
ENDBRANCH  19  26
ENDBRANCH  17  23
ENDBRANCH   1  17
BRANCH   5  27
ATOM     27  C   UNL     1      -1.880  12.205  21.878  0.00  0.00    +0.000 C 
ATOM     28  O   UNL     1      -1.736  12.444  23.065  0.00  0.00    +0.000 OA
BRANCH  27  29
ATOM     29  O   UNL     1      -2.926  12.657  21.158  0.00  0.00    +0.000 OA
ATOM     30  H   UNL     1      -3.813  12.420  21.488  0.00  0.00    +0.000 HD
ENDBRANCH  27  29
ENDBRANCH   5  27
BRANCH  13  31
ATOM     31  C   UNL     1       5.085   6.602  15.970  0.00  0.00    +0.000 C 
BRANCH  31  32
ATOM     32  C   UNL     1       5.710   5.445  15.187  0.00  0.00    +0.000 C 
BRANCH  32  33
ATOM     33  C   UNL     1       6.393   4.442  16.120  0.00  0.00    +0.000 C 
BRANCH  33  34
ATOM     34  O   UNL     1       7.571   5.027  16.671  0.00  0.00    +0.000 OA
BRANCH  34  35
ATOM     35  C   UNL     1       7.646   4.982  18.101  0.00  0.00    +0.000 C 
ATOM     36  C   UNL     1       7.867   6.370  18.700  0.00  0.00    +0.000 C 
ATOM     37  C   UNL     1       6.319   4.416  18.601  0.00  0.00    +0.000 C 
ENDBRANCH  34  35
ENDBRANCH  33  34
ENDBRANCH  32  33
ENDBRANCH  31  32
ENDBRANCH  13  31
TORSDOF 10
ENDMDL
MODEL 3
REMARK VINA RESULT:      -7.6      2.528      5.896
REMARK  Name = 
REMARK  12 active torsions:
REMARK  status: ('A' for Active; 'I' for Inactive)
REMARK    1  A    between atoms: C_2  and  C_3
REMARK    2  A    between atoms: C_7  and  N_8
REMARK    3  A    between atoms: N_8  and  C_9
REMARK    4  A    between atoms: C_13  and  C_14
REMARK    5  A    between atoms: C_14  and  O_16
REMARK    6  A    between atoms: N_24  and  C_25
REMARK    7  A    between atoms: C_25  and  C_26
REMARK    8  A    between atoms: C_26  and  C_27
REMARK    9  A    between atoms: C_27  and  O_28
REMARK   10  A    between atoms: O_28  and  C_29
REMARK   11  A    between atoms: C_29  and  C_30
REMARK   12  A    between atoms: C_29  and  C_31
REMARK                            x       y       z     vdW  Elec       q    Type
REMARK                         _______ _______ _______ _____ _____    ______ ____
ROOT
ATOM      1  C   UNL     1      -0.412  10.883  18.654  0.00  0.00    +0.000 A 
ATOM      2  N   UNL     1       0.389   9.968  18.050  0.00  0.00    +0.000 NA
ATOM      3  C   UNL     1       1.033   9.067  18.775  0.00  0.00    +0.000 A 
ATOM      4  C   UNL     1       1.801   8.141  18.085  0.00  0.00    +0.000 A 
ATOM      5  C   UNL     1       2.517   7.152  18.757  0.00  0.00    +0.000 A 
ATOM      6  C   UNL     1       2.434   7.076  20.147  0.00  0.00    +0.000 A 
ATOM      7  C   UNL     1       1.663   8.003  20.849  0.00  0.00    +0.000 A 
ATOM      8  C   UNL     1       0.945   9.026  20.172  0.00  0.00    +0.000 A 
ATOM      9  C   UNL     1       0.119  10.017  20.790  0.00  0.00    +0.000 A 
ATOM     10  C   UNL     1      -0.085  10.132  22.159  0.00  0.00    +0.000 A 
ATOM     11  N   UNL     1      -0.874  11.048  22.749  0.00  0.00    +0.000 NA
ATOM     12  C   UNL     1      -1.517  11.899  21.953  0.00  0.00    +0.000 A 
ATOM     13  N   UNL     1      -2.400  12.805  22.505  0.00  0.00    +0.000 N 
ATOM     14  N   UNL     1      -1.396  11.898  20.619  0.00  0.00    +0.000 NA
ATOM     15  C   UNL     1      -0.585  10.968  20.045  0.00  0.00    +0.000 A 
ATOM     16  H   UNL     1      -2.717  13.475  21.820  0.00  0.00    +0.000 HD
ENDROOT
BRANCH   1  17
ATOM     17  N   UNL     1      -1.136  11.747  17.802  0.00  0.00    +0.000 N 
ATOM     18  H   UNL     1      -0.889  12.724  17.909  0.00  0.00    +0.000 HD
BRANCH  17  23
ATOM     19  C   UNL     1      -4.765  11.385  17.012  0.00  0.00    +0.000 A 
ATOM     20  C   UNL     1      -4.705  10.786  15.757  0.00  0.00    +0.000 A 
ATOM     21  C   UNL     1      -3.463  10.511  15.180  0.00  0.00    +0.000 A 
ATOM     22  C   UNL     1      -2.281  10.848  15.853  0.00  0.00    +0.000 A 
ATOM     23  C   UNL     1      -2.324  11.460  17.109  0.00  0.00    +0.000 A 
ATOM     24  C   UNL     1      -3.582  11.708  17.680  0.00  0.00    +0.000 A 
BRANCH  19  26
ATOM     25  C   UNL     1      -7.051  11.925  18.195  0.00  0.00    +0.000 C 
ATOM     26  C   UNL     1      -6.020  11.676  17.633  0.00  0.00    +0.000 C 
ENDBRANCH  19  26
ENDBRANCH  17  23
ENDBRANCH   1  17
BRANCH   5  27
ATOM     27  C   UNL     1       3.326   6.138  18.037  0.00  0.00    +0.000 C 
ATOM     28  O   UNL     1       2.900   5.023  17.787  0.00  0.00    +0.000 OA
BRANCH  27  29
ATOM     29  O   UNL     1       4.575   6.536  17.726  0.00  0.00    +0.000 OA
ATOM     30  H   UNL     1       4.658   7.412  17.307  0.00  0.00    +0.000 HD
ENDBRANCH  27  29
ENDBRANCH   5  27
BRANCH  13  31
ATOM     31  C   UNL     1      -2.151  13.272  23.861  0.00  0.00    +0.000 C 
BRANCH  31  32
ATOM     32  C   UNL     1      -3.443  13.694  24.565  0.00  0.00    +0.000 C 
BRANCH  32  33
ATOM     33  C   UNL     1      -4.402  12.514  24.729  0.00  0.00    +0.000 C 
BRANCH  33  34
ATOM     34  O   UNL     1      -5.014  12.216  23.476  0.00  0.00    +0.000 OA
BRANCH  34  35
ATOM     35  C   UNL     1      -6.059  13.118  23.093  0.00  0.00    +0.000 C 
ATOM     36  C   UNL     1      -6.406  12.984  21.612  0.00  0.00    +0.000 C 
ATOM     37  C   UNL     1      -7.283  12.770  23.938  0.00  0.00    +0.000 C 
ENDBRANCH  34  35
ENDBRANCH  33  34
ENDBRANCH  32  33
ENDBRANCH  31  32
ENDBRANCH  13  31
TORSDOF 10
ENDMDL
MODEL 4
REMARK VINA RESULT:      -7.5      4.931      8.473
REMARK  Name = 
REMARK  12 active torsions:
REMARK  status: ('A' for Active; 'I' for Inactive)
REMARK    1  A    between atoms: C_2  and  C_3
REMARK    2  A    between atoms: C_7  and  N_8
REMARK    3  A    between atoms: N_8  and  C_9
REMARK    4  A    between atoms: C_13  and  C_14
REMARK    5  A    between atoms: C_14  and  O_16
REMARK    6  A    between atoms: N_24  and  C_25
REMARK    7  A    between atoms: C_25  and  C_26
REMARK    8  A    between atoms: C_26  and  C_27
REMARK    9  A    between atoms: C_27  and  O_28
REMARK   10  A    between atoms: O_28  and  C_29
REMARK   11  A    between atoms: C_29  and  C_30
REMARK   12  A    between atoms: C_29  and  C_31
REMARK                            x       y       z     vdW  Elec       q    Type
REMARK                         _______ _______ _______ _____ _____    ______ ____
ROOT
ATOM      1  C   UNL     1       2.594   7.951  17.824  0.00  0.00    +0.000 A 
ATOM      2  N   UNL     1       2.178   9.215  17.557  0.00  0.00    +0.000 NA
ATOM      3  C   UNL     1       1.496   9.895  18.467  0.00  0.00    +0.000 A 
ATOM      4  C   UNL     1       1.138  11.193  18.138  0.00  0.00    +0.000 A 
ATOM      5  C   UNL     1       0.419  11.992  19.026  0.00  0.00    +0.000 A 
ATOM      6  C   UNL     1       0.081  11.482  20.279  0.00  0.00    +0.000 A 
ATOM      7  C   UNL     1       0.438  10.177  20.618  0.00  0.00    +0.000 A 
ATOM      8  C   UNL     1       1.154   9.350  19.711  0.00  0.00    +0.000 A 
ATOM      9  C   UNL     1       1.579   8.007  19.959  0.00  0.00    +0.000 A 
ATOM     10  C   UNL     1       1.330   7.306  21.132  0.00  0.00    +0.000 A 
ATOM     11  N   UNL     1       1.741   6.049  21.382  0.00  0.00    +0.000 NA
ATOM     12  C   UNL     1       2.451   5.441  20.435  0.00  0.00    +0.000 A 
ATOM     13  N   UNL     1       2.963   4.183  20.677  0.00  0.00    +0.000 N 
ATOM     14  N   UNL     1       2.748   6.007  19.257  0.00  0.00    +0.000 NA
ATOM     15  C   UNL     1       2.315   7.275  19.022  0.00  0.00    +0.000 A 
ATOM     16  H   UNL     1       3.363   3.781  19.842  0.00  0.00    +0.000 HD
ENDROOT
BRANCH   1  17
ATOM     17  N   UNL     1       3.396   7.331  16.839  0.00  0.00    +0.000 N 
ATOM     18  H   UNL     1       2.864   6.908  16.087  0.00  0.00    +0.000 HD
BRANCH  17  23
ATOM     19  C   UNL     1       7.067   7.518  17.484  0.00  0.00    +0.000 A 
ATOM     20  C   UNL     1       7.474   6.251  17.076  0.00  0.00    +0.000 A 
ATOM     21  C   UNL     1       6.528   5.342  16.595  0.00  0.00    +0.000 A 
ATOM     22  C   UNL     1       5.174   5.697  16.535  0.00  0.00    +0.000 A 
ATOM     23  C   UNL     1       4.748   6.962  16.951  0.00  0.00    +0.000 A 
ATOM     24  C   UNL     1       5.717   7.867  17.411  0.00  0.00    +0.000 A 
BRANCH  19  26
ATOM     25  C   UNL     1       8.766   9.304  18.401  0.00  0.00    +0.000 C 
ATOM     26  C   UNL     1       8.011   8.474  17.977  0.00  0.00    +0.000 C 
ENDBRANCH  19  26
ENDBRANCH  17  23
ENDBRANCH   1  17
BRANCH   5  27
ATOM     27  C   UNL     1       0.046  13.391  18.703  0.00  0.00    +0.000 C 
ATOM     28  O   UNL     1       0.315  14.324  19.442  0.00  0.00    +0.000 OA
BRANCH  27  29
ATOM     29  O   UNL     1      -0.649  13.535  17.557  0.00  0.00    +0.000 OA
ATOM     30  H   UNL     1      -1.447  12.983  17.462  0.00  0.00    +0.000 HD
ENDBRANCH  27  29
ENDBRANCH   5  27
BRANCH  13  31
ATOM     31  C   UNL     1       2.236   3.306  21.584  0.00  0.00    +0.000 C 
BRANCH  31  32
ATOM     32  C   UNL     1       0.997   2.701  20.920  0.00  0.00    +0.000 C 
BRANCH  32  33
ATOM     33  C   UNL     1       1.118   2.710  19.395  0.00  0.00    +0.000 C 
BRANCH  33  34
ATOM     34  O   UNL     1       2.116   1.776  18.988  0.00  0.00    +0.000 OA
BRANCH  34  35
ATOM     35  C   UNL     1       2.811   2.131  17.786  0.00  0.00    +0.000 C 
ATOM     36  C   UNL     1       2.229   3.390  17.147  0.00  0.00    +0.000 C 
ATOM     37  C   UNL     1       4.268   2.379  18.169  0.00  0.00    +0.000 C 
ENDBRANCH  34  35
ENDBRANCH  33  34
ENDBRANCH  32  33
ENDBRANCH  31  32
ENDBRANCH  13  31
TORSDOF 10
ENDMDL
MODEL 5
REMARK VINA RESULT:      -7.4      2.548      5.924
REMARK  Name = 
REMARK  12 active torsions:
REMARK  status: ('A' for Active; 'I' for Inactive)
REMARK    1  A    between atoms: C_2  and  C_3
REMARK    2  A    between atoms: C_7  and  N_8
REMARK    3  A    between atoms: N_8  and  C_9
REMARK    4  A    between atoms: C_13  and  C_14
REMARK    5  A    between atoms: C_14  and  O_16
REMARK    6  A    between atoms: N_24  and  C_25
REMARK    7  A    between atoms: C_25  and  C_26
REMARK    8  A    between atoms: C_26  and  C_27
REMARK    9  A    between atoms: C_27  and  O_28
REMARK   10  A    between atoms: O_28  and  C_29
REMARK   11  A    between atoms: C_29  and  C_30
REMARK   12  A    between atoms: C_29  and  C_31
REMARK                            x       y       z     vdW  Elec       q    Type
REMARK                         _______ _______ _______ _____ _____    ______ ____
ROOT
ATOM      1  C   UNL     1      -0.321  10.840  18.923  0.00  0.00    +0.000 A 
ATOM      2  N   UNL     1       0.469   9.863  18.407  0.00  0.00    +0.000 NA
ATOM      3  C   UNL     1       1.046   8.982  19.211  0.00  0.00    +0.000 A 
ATOM      4  C   UNL     1       1.807   7.992  18.609  0.00  0.00    +0.000 A 
ATOM      5  C   UNL     1       2.455   7.018  19.367  0.00  0.00    +0.000 A 
ATOM      6  C   UNL     1       2.308   7.025  20.754  0.00  0.00    +0.000 A 
ATOM      7  C   UNL     1       1.543   8.017  21.366  0.00  0.00    +0.000 A 
ATOM      8  C   UNL     1       0.896   9.025  20.602  0.00  0.00    +0.000 A 
ATOM      9  C   UNL     1       0.081  10.079  21.125  0.00  0.00    +0.000 A 
ATOM     10  C   UNL     1      -0.177  10.279  22.475  0.00  0.00    +0.000 A 
ATOM     11  N   UNL     1      -0.956  11.255  22.976  0.00  0.00    +0.000 NA
ATOM     12  C   UNL     1      -1.531  12.082  22.106  0.00  0.00    +0.000 A 
ATOM     13  N   UNL     1      -2.402  13.048  22.565  0.00  0.00    +0.000 N 
ATOM     14  N   UNL     1      -1.351  12.000  20.780  0.00  0.00    +0.000 NA
ATOM     15  C   UNL     1      -0.552  11.010  20.297  0.00  0.00    +0.000 A 
ATOM     16  H   UNL     1      -2.662  13.690  21.830  0.00  0.00    +0.000 HD
ENDROOT
BRANCH   1  17
ATOM     17  N   UNL     1      -0.974  11.679  17.992  0.00  0.00    +0.000 N 
ATOM     18  H   UNL     1      -0.590  12.616  17.950  0.00  0.00    +0.000 HD
BRANCH  17  23
ATOM     19  C   UNL     1      -3.600  10.790  15.494  0.00  0.00    +0.000 A 
ATOM     20  C   UNL     1      -4.754  11.167  16.175  0.00  0.00    +0.000 A 
ATOM     21  C   UNL     1      -4.654  11.707  17.460  0.00  0.00    +0.000 A 
ATOM     22  C   UNL     1      -3.399  11.860  18.067  0.00  0.00    +0.000 A 
ATOM     23  C   UNL     1      -2.232  11.476  17.399  0.00  0.00    +0.000 A 
ATOM     24  C   UNL     1      -2.354  10.954  16.102  0.00  0.00    +0.000 A 
BRANCH  19  26
ATOM     25  C   UNL     1      -3.751   9.738  13.088  0.00  0.00    +0.000 C 
ATOM     26  C   UNL     1      -3.667  10.237  14.176  0.00  0.00    +0.000 C 
ENDBRANCH  19  26
ENDBRANCH  17  23
ENDBRANCH   1  17
BRANCH   5  27
ATOM     27  C   UNL     1       3.255   5.936  18.742  0.00  0.00    +0.000 C 
ATOM     28  O   UNL     1       2.889   5.353  17.735  0.00  0.00    +0.000 OA
BRANCH  27  29
ATOM     29  O   UNL     1       4.388   5.625  19.402  0.00  0.00    +0.000 OA
ATOM     30  H   UNL     1       5.015   6.356  19.555  0.00  0.00    +0.000 HD
ENDBRANCH  27  29
ENDBRANCH   5  27
BRANCH  13  31
ATOM     31  C   UNL     1      -2.194  13.583  23.904  0.00  0.00    +0.000 C 
BRANCH  31  32
ATOM     32  C   UNL     1      -3.516  13.772  24.653  0.00  0.00    +0.000 C 
BRANCH  32  33
ATOM     33  C   UNL     1      -4.329  12.476  24.689  0.00  0.00    +0.000 C 
BRANCH  33  34
ATOM     34  O   UNL     1      -5.244  12.454  23.596  0.00  0.00    +0.000 OA
BRANCH  34  35
ATOM     35  C   UNL     1      -6.479  13.137  23.838  0.00  0.00    +0.000 C 
ATOM     36  C   UNL     1      -6.565  14.446  23.055  0.00  0.00    +0.000 C 
ATOM     37  C   UNL     1      -7.602  12.203  23.395  0.00  0.00    +0.000 C 
ENDBRANCH  34  35
ENDBRANCH  33  34
ENDBRANCH  32  33
ENDBRANCH  31  32
ENDBRANCH  13  31
TORSDOF 10
ENDMDL
MODEL 6
REMARK VINA RESULT:      -7.4      1.196      1.592
REMARK  Name = 
REMARK  12 active torsions:
REMARK  status: ('A' for Active; 'I' for Inactive)
REMARK    1  A    between atoms: C_2  and  C_3
REMARK    2  A    between atoms: C_7  and  N_8
REMARK    3  A    between atoms: N_8  and  C_9
REMARK    4  A    between atoms: C_13  and  C_14
REMARK    5  A    between atoms: C_14  and  O_16
REMARK    6  A    between atoms: N_24  and  C_25
REMARK    7  A    between atoms: C_25  and  C_26
REMARK    8  A    between atoms: C_26  and  C_27
REMARK    9  A    between atoms: C_27  and  O_28
REMARK   10  A    between atoms: O_28  and  C_29
REMARK   11  A    between atoms: C_29  and  C_30
REMARK   12  A    between atoms: C_29  and  C_31
REMARK                            x       y       z     vdW  Elec       q    Type
REMARK                         _______ _______ _______ _____ _____    ______ ____
ROOT
ATOM      1  C   UNL     1      -0.394  10.377  19.141  0.00  0.00    +0.000 A 
ATOM      2  N   UNL     1      -0.741   9.949  17.900  0.00  0.00    +0.000 NA
ATOM      3  C   UNL     1      -1.861  10.375  17.339  0.00  0.00    +0.000 A 
ATOM      4  C   UNL     1      -2.129   9.925  16.055  0.00  0.00    +0.000 A 
ATOM      5  C   UNL     1      -3.283  10.315  15.378  0.00  0.00    +0.000 A 
ATOM      6  C   UNL     1      -4.168  11.200  15.995  0.00  0.00    +0.000 A 
ATOM      7  C   UNL     1      -3.905  11.659  17.285  0.00  0.00    +0.000 A 
ATOM      8  C   UNL     1      -2.741  11.250  17.990  0.00  0.00    +0.000 A 
ATOM      9  C   UNL     1      -2.370  11.666  19.307  0.00  0.00    +0.000 A 
ATOM     10  C   UNL     1      -3.118  12.526  20.101  0.00  0.00    +0.000 A 
ATOM     11  N   UNL     1      -2.769  12.938  21.334  0.00  0.00    +0.000 NA
ATOM     12  C   UNL     1      -1.612  12.495  21.819  0.00  0.00    +0.000 A 
ATOM     13  N   UNL     1      -1.172  12.953  23.044  0.00  0.00    +0.000 N 
ATOM     14  N   UNL     1      -0.806  11.654  21.155  0.00  0.00    +0.000 NA
ATOM     15  C   UNL     1      -1.183  11.244  19.914  0.00  0.00    +0.000 A 
ATOM     16  H   UNL     1      -0.358  12.445  23.357  0.00  0.00    +0.000 HD
ENDROOT
BRANCH   1  17
ATOM     17  N   UNL     1       0.862   9.950  19.627  0.00  0.00    +0.000 N 
ATOM     18  H   UNL     1       1.380  10.675  20.109  0.00  0.00    +0.000 HD
BRANCH  17  23
ATOM     19  C   UNL     1       2.317   6.514  19.692  0.00  0.00    +0.000 A 
ATOM     20  C   UNL     1       3.088   6.529  18.534  0.00  0.00    +0.000 A 
ATOM     21  C   UNL     1       3.116   7.676  17.736  0.00  0.00    +0.000 A 
ATOM     22  C   UNL     1       2.362   8.803  18.092  0.00  0.00    +0.000 A 
ATOM     23  C   UNL     1       1.574   8.799  19.248  0.00  0.00    +0.000 A 
ATOM     24  C   UNL     1       1.577   7.644  20.045  0.00  0.00    +0.000 A 
BRANCH  19  26
ATOM     25  C   UNL     1       2.211   4.362  21.201  0.00  0.00    +0.000 C 
ATOM     26  C   UNL     1       2.269   5.357  20.532  0.00  0.00    +0.000 C 
ENDBRANCH  19  26
ENDBRANCH  17  23
ENDBRANCH   1  17
BRANCH   5  27
ATOM     27  C   UNL     1      -3.577   9.864  13.996  0.00  0.00    +0.000 C 
ATOM     28  O   UNL     1      -2.705   9.734  13.153  0.00  0.00    +0.000 OA
BRANCH  27  29
ATOM     29  O   UNL     1      -4.884   9.654  13.742  0.00  0.00    +0.000 OA
ATOM     30  H   UNL     1      -5.114   8.797  13.337  0.00  0.00    +0.000 HD
ENDBRANCH  27  29
ENDBRANCH   5  27
BRANCH  13  31
ATOM     31  C   UNL     1      -2.169  13.334  24.035  0.00  0.00    +0.000 C 
BRANCH  31  32
ATOM     32  C   UNL     1      -2.040  14.806  24.436  0.00  0.00    +0.000 C 
BRANCH  32  33
ATOM     33  C   UNL     1      -3.397  15.405  24.810  0.00  0.00    +0.000 C 
BRANCH  33  34
ATOM     34  O   UNL     1      -4.419  14.811  24.012  0.00  0.00    +0.000 OA
BRANCH  34  35
ATOM     35  C   UNL     1      -5.191  15.740  23.242  0.00  0.00    +0.000 C 
ATOM     36  C   UNL     1      -4.526  16.055  21.904  0.00  0.00    +0.000 C 
ATOM     37  C   UNL     1      -6.553  15.095  22.997  0.00  0.00    +0.000 C 
ENDBRANCH  34  35
ENDBRANCH  33  34
ENDBRANCH  32  33
ENDBRANCH  31  32
ENDBRANCH  13  31
TORSDOF 10
ENDMDL
MODEL 7
REMARK VINA RESULT:      -7.3      0.742      1.576
REMARK  Name = 
REMARK  12 active torsions:
REMARK  status: ('A' for Active; 'I' for Inactive)
REMARK    1  A    between atoms: C_2  and  C_3
REMARK    2  A    between atoms: C_7  and  N_8
REMARK    3  A    between atoms: N_8  and  C_9
REMARK    4  A    between atoms: C_13  and  C_14
REMARK    5  A    between atoms: C_14  and  O_16
REMARK    6  A    between atoms: N_24  and  C_25
REMARK    7  A    between atoms: C_25  and  C_26
REMARK    8  A    between atoms: C_26  and  C_27
REMARK    9  A    between atoms: C_27  and  O_28
REMARK   10  A    between atoms: O_28  and  C_29
REMARK   11  A    between atoms: C_29  and  C_30
REMARK   12  A    between atoms: C_29  and  C_31
REMARK                            x       y       z     vdW  Elec       q    Type
REMARK                         _______ _______ _______ _____ _____    ______ ____
ROOT
ATOM      1  C   UNL     1      -0.479  10.552  18.862  0.00  0.00    +0.000 A 
ATOM      2  N   UNL     1      -0.789  10.089  17.624  0.00  0.00    +0.000 NA
ATOM      3  C   UNL     1      -1.941  10.420  17.061  0.00  0.00    +0.000 A 
ATOM      4  C   UNL     1      -2.172   9.941  15.780  0.00  0.00    +0.000 A 
ATOM      5  C   UNL     1      -3.353  10.233  15.101  0.00  0.00    +0.000 A 
ATOM      6  C   UNL     1      -4.307  11.047  15.713  0.00  0.00    +0.000 A 
ATOM      7  C   UNL     1      -4.082  11.533  17.000  0.00  0.00    +0.000 A 
ATOM      8  C   UNL     1      -2.889  11.224  17.707  0.00  0.00    +0.000 A 
ATOM      9  C   UNL     1      -2.553  11.677  19.021  0.00  0.00    +0.000 A 
ATOM     10  C   UNL     1      -3.368  12.478  19.811  0.00  0.00    +0.000 A 
ATOM     11  N   UNL     1      -3.054  12.925  21.041  0.00  0.00    +0.000 NA
ATOM     12  C   UNL     1      -1.864  12.580  21.528  0.00  0.00    +0.000 A 
ATOM     13  N   UNL     1      -1.464  13.080  22.750  0.00  0.00    +0.000 N 
ATOM     14  N   UNL     1      -0.993  11.804  20.869  0.00  0.00    +0.000 NA
ATOM     15  C   UNL     1      -1.336  11.356  19.630  0.00  0.00    +0.000 A 
ATOM     16  H   UNL     1      -0.610  12.641  23.066  0.00  0.00    +0.000 HD
ENDROOT
BRANCH   1  17
ATOM     17  N   UNL     1       0.808  10.231  19.351  0.00  0.00    +0.000 N 
ATOM     18  H   UNL     1       1.464  11.002  19.308  0.00  0.00    +0.000 HD
BRANCH  17  23
ATOM     19  C   UNL     1       2.697   7.059  18.808  0.00  0.00    +0.000 A 
ATOM     20  C   UNL     1       2.329   6.333  19.937  0.00  0.00    +0.000 A 
ATOM     21  C   UNL     1       1.462   6.902  20.873  0.00  0.00    +0.000 A 
ATOM     22  C   UNL     1       0.973   8.202  20.685  0.00  0.00    +0.000 A 
ATOM     23  C   UNL     1       1.342   8.947  19.561  0.00  0.00    +0.000 A 
ATOM     24  C   UNL     1       2.198   8.349  18.623  0.00  0.00    +0.000 A 
BRANCH  19  26
ATOM     25  C   UNL     1       4.294   6.000  17.006  0.00  0.00    +0.000 C 
ATOM     26  C   UNL     1       3.580   6.504  17.829  0.00  0.00    +0.000 C 
ENDBRANCH  19  26
ENDBRANCH  17  23
ENDBRANCH   1  17
BRANCH   5  27
ATOM     27  C   UNL     1      -3.610   9.751  13.722  0.00  0.00    +0.000 C 
ATOM     28  O   UNL     1      -2.708   9.534  12.930  0.00  0.00    +0.000 OA
BRANCH  27  29
ATOM     29  O   UNL     1      -4.914   9.617  13.409  0.00  0.00    +0.000 OA
ATOM     30  H   UNL     1      -5.491   9.252  14.105  0.00  0.00    +0.000 HD
ENDBRANCH  27  29
ENDBRANCH   5  27
BRANCH  13  31
ATOM     31  C   UNL     1      -2.488  13.384  23.740  0.00  0.00    +0.000 C 
BRANCH  31  32
ATOM     32  C   UNL     1      -3.454  12.213  23.939  0.00  0.00    +0.000 C 
BRANCH  32  33
ATOM     33  C   UNL     1      -4.638  12.609  24.823  0.00  0.00    +0.000 C 
BRANCH  33  34
ATOM     34  O   UNL     1      -5.490  13.503  24.111  0.00  0.00    +0.000 OA
BRANCH  34  35
ATOM     35  C   UNL     1      -6.157  12.921  22.984  0.00  0.00    +0.000 C 
ATOM     36  C   UNL     1      -7.512  12.332  23.371  0.00  0.00    +0.000 C 
ATOM     37  C   UNL     1      -6.358  14.035  21.959  0.00  0.00    +0.000 C 
ENDBRANCH  34  35
ENDBRANCH  33  34
ENDBRANCH  32  33
ENDBRANCH  31  32
ENDBRANCH  13  31
TORSDOF 10
ENDMDL
MODEL 8
REMARK VINA RESULT:      -7.3      4.789      9.087
REMARK  Name = 
REMARK  12 active torsions:
REMARK  status: ('A' for Active; 'I' for Inactive)
REMARK    1  A    between atoms: C_2  and  C_3
REMARK    2  A    between atoms: C_7  and  N_8
REMARK    3  A    between atoms: N_8  and  C_9
REMARK    4  A    between atoms: C_13  and  C_14
REMARK    5  A    between atoms: C_14  and  O_16
REMARK    6  A    between atoms: N_24  and  C_25
REMARK    7  A    between atoms: C_25  and  C_26
REMARK    8  A    between atoms: C_26  and  C_27
REMARK    9  A    between atoms: C_27  and  O_28
REMARK   10  A    between atoms: O_28  and  C_29
REMARK   11  A    between atoms: C_29  and  C_30
REMARK   12  A    between atoms: C_29  and  C_31
REMARK                            x       y       z     vdW  Elec       q    Type
REMARK                         _______ _______ _______ _____ _____    ______ ____
ROOT
ATOM      1  C   UNL     1       3.216   7.639  17.813  0.00  0.00    +0.000 A 
ATOM      2  N   UNL     1       2.434   8.735  17.989  0.00  0.00    +0.000 NA
ATOM      3  C   UNL     1       1.690   8.852  19.078  0.00  0.00    +0.000 A 
ATOM      4  C   UNL     1       0.947  10.015  19.205  0.00  0.00    +0.000 A 
ATOM      5  C   UNL     1       0.132  10.235  20.315  0.00  0.00    +0.000 A 
ATOM      6  C   UNL     1       0.088   9.276  21.327  0.00  0.00    +0.000 A 
ATOM      7  C   UNL     1       0.833   8.104  21.207  0.00  0.00    +0.000 A 
ATOM      8  C   UNL     1       1.652   7.864  20.070  0.00  0.00    +0.000 A 
ATOM      9  C   UNL     1       2.462   6.706  19.851  0.00  0.00    +0.000 A 
ATOM     10  C   UNL     1       2.548   5.628  20.723  0.00  0.00    +0.000 A 
ATOM     11  N   UNL     1       3.321   4.543  20.535  0.00  0.00    +0.000 NA
ATOM     12  C   UNL     1       4.068   4.511  19.434  0.00  0.00    +0.000 A 
ATOM     13  N   UNL     1       4.937   3.458  19.237  0.00  0.00    +0.000 N 
ATOM     14  N   UNL     1       4.066   5.483  18.512  0.00  0.00    +0.000 NA
ATOM     15  C   UNL     1       3.270   6.567  18.718  0.00  0.00    +0.000 A 
ATOM     16  H   UNL     1       5.342   3.482  18.312  0.00  0.00    +0.000 HD
ENDROOT
BRANCH   1  17
ATOM     17  N   UNL     1       4.050   7.637  16.672  0.00  0.00    +0.000 N 
ATOM     18  H   UNL     1       3.656   8.130  15.879  0.00  0.00    +0.000 HD
BRANCH  17  23
ATOM     19  C   UNL     1       6.213   5.032  15.102  0.00  0.00    +0.000 A 
ATOM     20  C   UNL     1       7.297   5.024  15.976  0.00  0.00    +0.000 A 
ATOM     21  C   UNL     1       7.305   5.886  17.076  0.00  0.00    +0.000 A 
ATOM     22  C   UNL     1       6.234   6.764  17.294  0.00  0.00    +0.000 A 
ATOM     23  C   UNL     1       5.144   6.791  16.419  0.00  0.00    +0.000 A 
ATOM     24  C   UNL     1       5.146   5.903  15.332  0.00  0.00    +0.000 A 
BRANCH  19  26
ATOM     25  C   UNL     1       6.157   3.395  13.045  0.00  0.00    +0.000 C 
ATOM     26  C   UNL     1       6.172   4.160  13.969  0.00  0.00    +0.000 C 
ENDBRANCH  19  26
ENDBRANCH  17  23
ENDBRANCH   1  17
BRANCH   5  27
ATOM     27  C   UNL     1      -0.653  11.482  20.482  0.00  0.00    +0.000 C 
ATOM     28  O   UNL     1      -1.330  11.698  21.473  0.00  0.00    +0.000 OA
BRANCH  27  29
ATOM     29  O   UNL     1      -0.589  12.328  19.435  0.00  0.00    +0.000 OA
ATOM     30  H   UNL     1      -0.033  12.048  18.685  0.00  0.00    +0.000 HD
ENDBRANCH  27  29
ENDBRANCH   5  27
BRANCH  13  31
ATOM     31  C   UNL     1       4.589   2.162  19.803  0.00  0.00    +0.000 C 
BRANCH  31  32
ATOM     32  C   UNL     1       3.973   1.230  18.756  0.00  0.00    +0.000 C 
BRANCH  32  33
ATOM     33  C   UNL     1       2.862   1.929  17.970  0.00  0.00    +0.000 C 
BRANCH  33  34
ATOM     34  O   UNL     1       1.591   1.504  18.455  0.00  0.00    +0.000 OA
BRANCH  34  35
ATOM     35  C   UNL     1       0.649   2.563  18.669  0.00  0.00    +0.000 C 
ATOM     36  C   UNL     1       0.583   2.972  20.139  0.00  0.00    +0.000 C 
ATOM     37  C   UNL     1       1.112   3.750  17.829  0.00  0.00    +0.000 C 
ENDBRANCH  34  35
ENDBRANCH  33  34
ENDBRANCH  32  33
ENDBRANCH  31  32
ENDBRANCH  13  31
TORSDOF 10
ENDMDL
MODEL 9
REMARK VINA RESULT:      -7.3      3.701      5.950
REMARK  Name = 
REMARK  12 active torsions:
REMARK  status: ('A' for Active; 'I' for Inactive)
REMARK    1  A    between atoms: C_2  and  C_3
REMARK    2  A    between atoms: C_7  and  N_8
REMARK    3  A    between atoms: N_8  and  C_9
REMARK    4  A    between atoms: C_13  and  C_14
REMARK    5  A    between atoms: C_14  and  O_16
REMARK    6  A    between atoms: N_24  and  C_25
REMARK    7  A    between atoms: C_25  and  C_26
REMARK    8  A    between atoms: C_26  and  C_27
REMARK    9  A    between atoms: C_27  and  O_28
REMARK   10  A    between atoms: O_28  and  C_29
REMARK   11  A    between atoms: C_29  and  C_30
REMARK   12  A    between atoms: C_29  and  C_31
REMARK                            x       y       z     vdW  Elec       q    Type
REMARK                         _______ _______ _______ _____ _____    ______ ____
ROOT
ATOM      1  C   UNL     1       0.512  11.374  19.227  0.00  0.00    +0.000 A 
ATOM      2  N   UNL     1       1.269  10.350  18.758  0.00  0.00    +0.000 NA
ATOM      3  C   UNL     1       1.379   9.230  19.457  0.00  0.00    +0.000 A 
ATOM      4  C   UNL     1       2.138   8.215  18.896  0.00  0.00    +0.000 A 
ATOM      5  C   UNL     1       2.315   6.998  19.552  0.00  0.00    +0.000 A 
ATOM      6  C   UNL     1       1.691   6.791  20.782  0.00  0.00    +0.000 A 
ATOM      7  C   UNL     1       0.925   7.806  21.352  0.00  0.00    +0.000 A 
ATOM      8  C   UNL     1       0.756   9.057  20.699  0.00  0.00    +0.000 A 
ATOM      9  C   UNL     1      -0.015  10.159  21.187  0.00  0.00    +0.000 A 
ATOM     10  C   UNL     1      -0.698  10.169  22.396  0.00  0.00    +0.000 A 
ATOM     11  N   UNL     1      -1.440  11.193  22.856  0.00  0.00    +0.000 NA
ATOM     12  C   UNL     1      -1.533  12.272  22.082  0.00  0.00    +0.000 A 
ATOM     13  N   UNL     1      -2.346  13.316  22.473  0.00  0.00    +0.000 N 
ATOM     14  N   UNL     1      -0.912  12.389  20.901  0.00  0.00    +0.000 NA
ATOM     15  C   UNL     1      -0.160  11.344  20.460  0.00  0.00    +0.000 A 
ATOM     16  H   UNL     1      -2.226  14.121  21.875  0.00  0.00    +0.000 HD
ENDROOT
BRANCH   1  17
ATOM     17  N   UNL     1       0.370  12.494  18.377  0.00  0.00    +0.000 N 
ATOM     18  H   UNL     1      -0.175  12.307  17.544  0.00  0.00    +0.000 HD
BRANCH  17  23
ATOM     19  C   UNL     1       3.297  14.805  18.242  0.00  0.00    +0.000 A 
ATOM     20  C   UNL     1       2.685  16.026  18.512  0.00  0.00    +0.000 A 
ATOM     21  C   UNL     1       1.307  16.075  18.732  0.00  0.00    +0.000 A 
ATOM     22  C   UNL     1       0.539  14.904  18.669  0.00  0.00    +0.000 A 
ATOM     23  C   UNL     1       1.137  13.672  18.388  0.00  0.00    +0.000 A 
ATOM     24  C   UNL     1       2.527  13.642  18.191  0.00  0.00    +0.000 A 
BRANCH  19  26
ATOM     25  C   UNL     1       5.886  14.681  17.793  0.00  0.00    +0.000 C 
ATOM     26  C   UNL     1       4.708  14.720  18.016  0.00  0.00    +0.000 C 
ENDBRANCH  19  26
ENDBRANCH  17  23
ENDBRANCH   1  17
BRANCH   5  27
ATOM     27  C   UNL     1       3.103   5.890  18.959  0.00  0.00    +0.000 C 
ATOM     28  O   UNL     1       4.135   5.481  19.465  0.00  0.00    +0.000 OA
BRANCH  27  29
ATOM     29  O   UNL     1       2.611   5.410  17.800  0.00  0.00    +0.000 OA
ATOM     30  H   UNL     1       1.664   5.175  17.797  0.00  0.00    +0.000 HD
ENDBRANCH  27  29
ENDBRANCH   5  27
BRANCH  13  31
ATOM     31  C   UNL     1      -2.544  13.540  23.898  0.00  0.00    +0.000 C 
BRANCH  31  32
ATOM     32  C   UNL     1      -3.929  13.080  24.361  0.00  0.00    +0.000 C 
BRANCH  32  33
ATOM     33  C   UNL     1      -4.997  13.369  23.305  0.00  0.00    +0.000 C 
BRANCH  33  34
ATOM     34  O   UNL     1      -5.151  12.234  22.455  0.00  0.00    +0.000 OA
BRANCH  34  35
ATOM     35  C   UNL     1      -5.922  12.475  21.273  0.00  0.00    +0.000 C 
ATOM     36  C   UNL     1      -6.886  13.646  21.454  0.00  0.00    +0.000 C 
ATOM     37  C   UNL     1      -4.936  12.793  20.152  0.00  0.00    +0.000 C 
ENDBRANCH  34  35
ENDBRANCH  33  34
ENDBRANCH  32  33
ENDBRANCH  31  32
ENDBRANCH  13  31
TORSDOF 10
ENDMDL
