MODEL 1
REMARK VINA RESULT:      -7.0      0.000      0.000
REMARK  Name = 
REMARK  9 active torsions:
REMARK  status: ('A' for Active; 'I' for Inactive)
REMARK    1  A    between atoms: C_1  and  N_2
REMARK    2  A    between atoms: N_2  and  C_3
REMARK    3  A    between atoms: C_3  and  C_4
REMARK    4  A    between atoms: C_3  and  C_14
REMARK    5  A    between atoms: C_4  and  C_5
REMARK    6  A    between atoms: C_6  and  C_7
REMARK    7  A    between atoms: C_9  and  O_10
REMARK    8  A    between atoms: C_12  and  C_13
REMARK    9  A    between atoms: C_25  and  C_26
REMARK                            x       y       z     vdW  Elec       q    Type
REMARK                         _______ _______ _______ _____ _____    ______ ____
ROOT
ATOM      1  C   UNL     1       2.294   5.042  18.701  0.00  0.00    +0.000 C 
ATOM      2  O   UNL     1       1.447   4.320  18.167  0.00  0.00    +0.000 OA
ATOM      3  N   UNL     1       3.456   5.382  17.991  0.00  0.00    +0.000 N 
ATOM      4  C   UNL     1       3.454   5.083  16.550  0.00  0.00    +0.000 C 
ATOM      5  C   UNL     1       4.828   4.893  15.959  0.00  0.00    +0.000 A 
ATOM      6  C   UNL     1       5.072   3.946  14.958  0.00  0.00    +0.000 A 
ATOM      7  C   UNL     1       6.350   3.817  14.411  0.00  0.00    +0.000 A 
ATOM      8  C   UNL     1       7.382   4.653  14.836  0.00  0.00    +0.000 A 
ATOM      9  C   UNL     1       7.146   5.610  15.823  0.00  0.00    +0.000 A 
ATOM     10  C   UNL     1       5.877   5.718  16.397  0.00  0.00    +0.000 A 
ATOM     11  C   UNL     1       5.582   6.684  17.511  0.00  0.00    +0.000 C 
ATOM     12  C   UNL     1       4.686   5.999  18.569  0.00  0.00    +0.000 C 
ENDROOT
BRANCH  12  13
ATOM     13  C   UNL     1       5.529   4.974  19.364  0.00  0.00    +0.000 C 
ATOM     14  N   UNL     1       5.144   3.669  19.301  0.00  0.00    +0.000 N 
ATOM     15  O   UNL     1       6.544   5.296  19.977  0.00  0.00    +0.000 OA
ATOM     16  H   UNL     1       4.433   3.365  18.647  0.00  0.00    +0.000 HD
ATOM     17  H   UNL     1       5.754   2.973  19.710  0.00  0.00    +0.000 HD
ENDBRANCH  12  13
BRANCH   1  18
ATOM     18  C   UNL     1       2.109   5.543  20.165  0.00  0.00    +0.000 C 
BRANCH  18  20
ATOM     19  C   UNL     1       2.114   3.533  21.581  0.00  0.00    +0.000 C 
ATOM     20  N   UNL     1       2.849   4.696  21.121  0.00  0.00    +0.000 NA
ATOM     21  H   UNL     1       3.771   4.444  20.792  0.00  0.00    +0.000 HD
ENDBRANCH  18  20
BRANCH  18  22
ATOM     22  C   UNL     1       2.417   7.066  20.319  0.00  0.00    +0.000 C 
BRANCH  22  23
ATOM     23  C   UNL     1       1.588   8.279  19.852  0.00  0.00    +0.000 A 
ATOM     24  C   UNL     1       1.581   8.871  18.563  0.00  0.00    +0.000 A 
ATOM     25  C   UNL     1       2.526   8.581  17.432  0.00  0.00    +0.000 C 
ATOM     26  C   UNL     1       0.594   9.833  18.240  0.00  0.00    +0.000 A 
ATOM     27  C   UNL     1      -0.319  10.277  19.174  0.00  0.00    +0.000 A 
ATOM     28  C   UNL     1      -0.259   9.809  20.469  0.00  0.00    +0.000 A 
ATOM     29  C   UNL     1       0.685   8.828  20.827  0.00  0.00    +0.000 A 
ATOM     30  C   UNL     1       0.689   8.402  22.277  0.00  0.00    +0.000 C 
BRANCH  27  31
ATOM     31  O   UNL     1      -1.283  11.187  18.855  0.00  0.00    +0.000 OA
ATOM     32  H   UNL     1      -2.068  10.698  18.554  0.00  0.00    +0.000 HD
ENDBRANCH  27  31
ENDBRANCH  22  23
ENDBRANCH  18  22
ENDBRANCH   1  18
TORSDOF 6
ENDMDL
MODEL 2
REMARK VINA RESULT:      -6.9      2.063      3.384
REMARK  Name = 
REMARK  9 active torsions:
REMARK  status: ('A' for Active; 'I' for Inactive)
REMARK    1  A    between atoms: C_1  and  N_2
REMARK    2  A    between atoms: N_2  and  C_3
REMARK    3  A    between atoms: C_3  and  C_4
REMARK    4  A    between atoms: C_3  and  C_14
REMARK    5  A    between atoms: C_4  and  C_5
REMARK    6  A    between atoms: C_6  and  C_7
REMARK    7  A    between atoms: C_9  and  O_10
REMARK    8  A    between atoms: C_12  and  C_13
REMARK    9  A    between atoms: C_25  and  C_26
REMARK                            x       y       z     vdW  Elec       q    Type
REMARK                         _______ _______ _______ _____ _____    ______ ____
ROOT
ATOM      1  C   UNL     1       2.217   8.557  18.251  0.00  0.00    +0.000 C 
ATOM      2  O   UNL     1       2.173   9.327  17.287  0.00  0.00    +0.000 OA
ATOM      3  N   UNL     1       3.136   7.495  18.241  0.00  0.00    +0.000 N 
ATOM      4  C   UNL     1       4.180   7.542  17.205  0.00  0.00    +0.000 C 
ATOM      5  C   UNL     1       4.741   6.191  16.837  0.00  0.00    +0.000 A 
ATOM      6  C   UNL     1       5.101   5.880  15.521  0.00  0.00    +0.000 A 
ATOM      7  C   UNL     1       5.646   4.631  15.220  0.00  0.00    +0.000 A 
ATOM      8  C   UNL     1       5.866   3.699  16.233  0.00  0.00    +0.000 A 
ATOM      9  C   UNL     1       5.525   4.004  17.551  0.00  0.00    +0.000 A 
ATOM     10  C   UNL     1       4.946   5.241  17.850  0.00  0.00    +0.000 A 
ATOM     11  C   UNL     1       4.496   5.598  19.240  0.00  0.00    +0.000 C 
ATOM     12  C   UNL     1       3.134   6.328  19.172  0.00  0.00    +0.000 C 
ENDROOT
BRANCH  12  13
ATOM     13  C   UNL     1       2.026   5.309  18.822  0.00  0.00    +0.000 C 
ATOM     14  N   UNL     1       1.416   4.671  19.859  0.00  0.00    +0.000 N 
ATOM     15  O   UNL     1       1.653   5.118  17.667  0.00  0.00    +0.000 OA
ATOM     16  H   UNL     1       1.576   4.959  20.817  0.00  0.00    +0.000 HD
ATOM     17  H   UNL     1       0.608   4.097  19.656  0.00  0.00    +0.000 HD
ENDBRANCH  12  13
BRANCH   1  18
ATOM     18  C   UNL     1       1.239   8.721  19.452  0.00  0.00    +0.000 C 
BRANCH  18  20
ATOM     19  C   UNL     1       1.333   8.648  21.908  0.00  0.00    +0.000 C 
ATOM     20  N   UNL     1       1.746   8.038  20.658  0.00  0.00    +0.000 NA
ATOM     21  H   UNL     1       1.562   7.044  20.654  0.00  0.00    +0.000 HD
ENDBRANCH  18  20
BRANCH  18  22
ATOM     22  C   UNL     1       0.845  10.212  19.703  0.00  0.00    +0.000 C 
BRANCH  22  23
ATOM     23  C   UNL     1      -0.494  10.924  19.432  0.00  0.00    +0.000 A 
ATOM     24  C   UNL     1      -1.432  10.631  18.409  0.00  0.00    +0.000 A 
ATOM     25  C   UNL     1      -1.236   9.705  17.243  0.00  0.00    +0.000 C 
ATOM     26  C   UNL     1      -2.714  11.232  18.443  0.00  0.00    +0.000 A 
ATOM     27  C   UNL     1      -3.054  12.163  19.402  0.00  0.00    +0.000 A 
ATOM     28  C   UNL     1      -2.121  12.558  20.337  0.00  0.00    +0.000 A 
ATOM     29  C   UNL     1      -0.845  11.964  20.361  0.00  0.00    +0.000 A 
ATOM     30  C   UNL     1       0.115  12.485  21.405  0.00  0.00    +0.000 C 
BRANCH  27  31
ATOM     31  O   UNL     1      -4.296  12.724  19.446  0.00  0.00    +0.000 OA
ATOM     32  H   UNL     1      -4.187  13.687  19.522  0.00  0.00    +0.000 HD
ENDBRANCH  27  31
ENDBRANCH  22  23
ENDBRANCH  18  22
ENDBRANCH   1  18
TORSDOF 6
ENDMDL
MODEL 3
REMARK VINA RESULT:      -6.9      0.347      1.688
REMARK  Name = 
REMARK  9 active torsions:
REMARK  status: ('A' for Active; 'I' for Inactive)
REMARK    1  A    between atoms: C_1  and  N_2
REMARK    2  A    between atoms: N_2  and  C_3
REMARK    3  A    between atoms: C_3  and  C_4
REMARK    4  A    between atoms: C_3  and  C_14
REMARK    5  A    between atoms: C_4  and  C_5
REMARK    6  A    between atoms: C_6  and  C_7
REMARK    7  A    between atoms: C_9  and  O_10
REMARK    8  A    between atoms: C_12  and  C_13
REMARK    9  A    between atoms: C_25  and  C_26
REMARK                            x       y       z     vdW  Elec       q    Type
REMARK                         _______ _______ _______ _____ _____    ______ ____
ROOT
ATOM      1  C   UNL     1       2.270   5.112  18.643  0.00  0.00    +0.000 C 
ATOM      2  O   UNL     1       1.434   4.370  18.118  0.00  0.00    +0.000 OA
ATOM      3  N   UNL     1       3.440   5.437  17.939  0.00  0.00    +0.000 N 
ATOM      4  C   UNL     1       3.459   5.096  16.507  0.00  0.00    +0.000 C 
ATOM      5  C   UNL     1       4.843   4.897  15.941  0.00  0.00    +0.000 A 
ATOM      6  C   UNL     1       5.104   3.923  14.971  0.00  0.00    +0.000 A 
ATOM      7  C   UNL     1       6.390   3.785  14.445  0.00  0.00    +0.000 A 
ATOM      8  C   UNL     1       7.412   4.638  14.859  0.00  0.00    +0.000 A 
ATOM      9  C   UNL     1       7.159   5.622  15.816  0.00  0.00    +0.000 A 
ATOM     10  C   UNL     1       5.881   5.740  16.369  0.00  0.00    +0.000 A 
ATOM     11  C   UNL     1       5.566   6.735  17.451  0.00  0.00    +0.000 C 
ATOM     12  C   UNL     1       4.659   6.076  18.516  0.00  0.00    +0.000 C 
ENDROOT
BRANCH  12  13
ATOM     13  C   UNL     1       5.496   5.079  19.351  0.00  0.00    +0.000 C 
ATOM     14  N   UNL     1       5.070   3.785  19.385  0.00  0.00    +0.000 N 
ATOM     15  O   UNL     1       6.539   5.408  19.911  0.00  0.00    +0.000 OA
ATOM     16  H   UNL     1       4.330   3.462  18.775  0.00  0.00    +0.000 HD
ATOM     17  H   UNL     1       5.672   3.098  19.821  0.00  0.00    +0.000 HD
ENDBRANCH  12  13
BRANCH   1  18
ATOM     18  C   UNL     1       2.063   5.653  20.089  0.00  0.00    +0.000 C 
BRANCH  18  20
ATOM     19  C   UNL     1       2.107   3.659  21.527  0.00  0.00    +0.000 C 
ATOM     20  N   UNL     1       2.806   4.848  21.077  0.00  0.00    +0.000 NA
ATOM     21  H   UNL     1       3.748   4.632  20.779  0.00  0.00    +0.000 HD
ENDBRANCH  18  20
BRANCH  18  22
ATOM     22  C   UNL     1       2.344   7.185  20.200  0.00  0.00    +0.000 C 
BRANCH  22  23
ATOM     23  C   UNL     1       1.376   8.369  20.007  0.00  0.00    +0.000 A 
ATOM     24  C   UNL     1       0.411   8.850  20.929  0.00  0.00    +0.000 A 
ATOM     25  C   UNL     1      -0.024   8.190  22.207  0.00  0.00    +0.000 C 
ATOM     26  C   UNL     1      -0.236  10.086  20.685  0.00  0.00    +0.000 A 
ATOM     27  C   UNL     1      -0.015  10.803  19.527  0.00  0.00    +0.000 A 
ATOM     28  C   UNL     1       0.826  10.300  18.558  0.00  0.00    +0.000 A 
ATOM     29  C   UNL     1       1.514   9.092  18.772  0.00  0.00    +0.000 A 
ATOM     30  C   UNL     1       2.389   8.611  17.637  0.00  0.00    +0.000 C 
BRANCH  27  31
ATOM     31  O   UNL     1      -0.621  12.003  19.304  0.00  0.00    +0.000 OA
ATOM     32  H   UNL     1      -0.510  12.224  18.363  0.00  0.00    +0.000 HD
ENDBRANCH  27  31
ENDBRANCH  22  23
ENDBRANCH  18  22
ENDBRANCH   1  18
TORSDOF 6
ENDMDL
MODEL 4
REMARK VINA RESULT:      -6.7      8.859     11.433
REMARK  Name = 
REMARK  9 active torsions:
REMARK  status: ('A' for Active; 'I' for Inactive)
REMARK    1  A    between atoms: C_1  and  N_2
REMARK    2  A    between atoms: N_2  and  C_3
REMARK    3  A    between atoms: C_3  and  C_4
REMARK    4  A    between atoms: C_3  and  C_14
REMARK    5  A    between atoms: C_4  and  C_5
REMARK    6  A    between atoms: C_6  and  C_7
REMARK    7  A    between atoms: C_9  and  O_10
REMARK    8  A    between atoms: C_12  and  C_13
REMARK    9  A    between atoms: C_25  and  C_26
REMARK                            x       y       z     vdW  Elec       q    Type
REMARK                         _______ _______ _______ _____ _____    ______ ____
ROOT
ATOM      1  C   UNL     1       7.737  14.365  21.584  0.00  0.00    +0.000 C 
ATOM      2  O   UNL     1       7.277  13.504  22.339  0.00  0.00    +0.000 OA
ATOM      3  N   UNL     1       6.877  15.038  20.701  0.00  0.00    +0.000 N 
ATOM      4  C   UNL     1       5.434  14.868  20.936  0.00  0.00    +0.000 C 
ATOM      5  C   UNL     1       4.583  15.072  19.708  0.00  0.00    +0.000 A 
ATOM      6  C   UNL     1       3.440  14.300  19.472  0.00  0.00    +0.000 A 
ATOM      7  C   UNL     1       2.657  14.536  18.341  0.00  0.00    +0.000 A 
ATOM      8  C   UNL     1       2.991  15.561  17.457  0.00  0.00    +0.000 A 
ATOM      9  C   UNL     1       4.121  16.346  17.691  0.00  0.00    +0.000 A 
ATOM     10  C   UNL     1       4.926  16.090  18.804  0.00  0.00    +0.000 A 
ATOM     11  C   UNL     1       6.192  16.858  19.070  0.00  0.00    +0.000 C 
ATOM     12  C   UNL     1       7.297  15.888  19.548  0.00  0.00    +0.000 C 
ENDROOT
BRANCH  12  13
ATOM     13  C   UNL     1       7.784  15.040  18.351  0.00  0.00    +0.000 C 
ATOM     14  N   UNL     1       8.604  15.649  17.449  0.00  0.00    +0.000 N 
ATOM     15  O   UNL     1       7.506  13.848  18.236  0.00  0.00    +0.000 OA
ATOM     16  H   UNL     1       8.996  16.564  17.634  0.00  0.00    +0.000 HD
ATOM     17  H   UNL     1       9.031  15.077  16.732  0.00  0.00    +0.000 HD
ENDBRANCH  12  13
BRANCH   1  18
ATOM     18  C   UNL     1       9.263  14.681  21.567  0.00  0.00    +0.000 C 
BRANCH  18  20
ATOM     19  C   UNL     1       9.023  16.479  23.226  0.00  0.00    +0.000 C 
ATOM     20  N   UNL     1       9.708  15.257  22.850  0.00  0.00    +0.000 NA
ATOM     21  H   UNL     1       9.705  14.584  23.605  0.00  0.00    +0.000 HD
ENDBRANCH  18  20
BRANCH  18  22
ATOM     22  C   UNL     1      10.121  13.461  21.103  0.00  0.00    +0.000 C 
BRANCH  22  23
ATOM     23  C   UNL     1      10.695  13.148  19.708  0.00  0.00    +0.000 A 
ATOM     24  C   UNL     1      10.430  12.009  18.905  0.00  0.00    +0.000 A 
ATOM     25  C   UNL     1       9.700  10.763  19.318  0.00  0.00    +0.000 C 
ATOM     26  C   UNL     1      10.860  11.989  17.556  0.00  0.00    +0.000 A 
ATOM     27  C   UNL     1      11.606  13.017  17.017  0.00  0.00    +0.000 A 
ATOM     28  C   UNL     1      11.982  14.080  17.809  0.00  0.00    +0.000 A 
ATOM     29  C   UNL     1      11.550  14.158  19.146  0.00  0.00    +0.000 A 
ATOM     30  C   UNL     1      12.039  15.348  19.939  0.00  0.00    +0.000 C 
BRANCH  27  31
ATOM     31  O   UNL     1      12.001  13.006  15.712  0.00  0.00    +0.000 OA
ATOM     32  H   UNL     1      11.243  12.722  15.173  0.00  0.00    +0.000 HD
ENDBRANCH  27  31
ENDBRANCH  22  23
ENDBRANCH  18  22
ENDBRANCH   1  18
TORSDOF 6
ENDMDL
MODEL 5
REMARK VINA RESULT:      -6.7      6.857      9.946
REMARK  Name = 
REMARK  9 active torsions:
REMARK  status: ('A' for Active; 'I' for Inactive)
REMARK    1  A    between atoms: C_1  and  N_2
REMARK    2  A    between atoms: N_2  and  C_3
REMARK    3  A    between atoms: C_3  and  C_4
REMARK    4  A    between atoms: C_3  and  C_14
REMARK    5  A    between atoms: C_4  and  C_5
REMARK    6  A    between atoms: C_6  and  C_7
REMARK    7  A    between atoms: C_9  and  O_10
REMARK    8  A    between atoms: C_12  and  C_13
REMARK    9  A    between atoms: C_25  and  C_26
REMARK                            x       y       z     vdW  Elec       q    Type
REMARK                         _______ _______ _______ _____ _____    ______ ____
ROOT
ATOM      1  C   UNL     1      -1.630  14.244  20.690  0.00  0.00    +0.000 C 
ATOM      2  O   UNL     1      -2.796  14.642  20.769  0.00  0.00    +0.000 OA
ATOM      3  N   UNL     1      -0.668  15.052  20.064  0.00  0.00    +0.000 N 
ATOM      4  C   UNL     1      -1.057  16.446  19.795  0.00  0.00    +0.000 C 
ATOM      5  C   UNL     1      -0.306  17.085  18.654  0.00  0.00    +0.000 A 
ATOM      6  C   UNL     1      -0.929  17.979  17.776  0.00  0.00    +0.000 A 
ATOM      7  C   UNL     1      -0.197  18.576  16.749  0.00  0.00    +0.000 A 
ATOM      8  C   UNL     1       1.165  18.311  16.611  0.00  0.00    +0.000 A 
ATOM      9  C   UNL     1       1.799  17.432  17.490  0.00  0.00    +0.000 A 
ATOM     10  C   UNL     1       1.061  16.806  18.498  0.00  0.00    +0.000 A 
ATOM     11  C   UNL     1       1.675  15.798  19.431  0.00  0.00    +0.000 C 
ATOM     12  C   UNL     1       0.696  14.619  19.639  0.00  0.00    +0.000 C 
ENDROOT
BRANCH  12  13
ATOM     13  C   UNL     1       0.657  13.757  18.357  0.00  0.00    +0.000 C 
ATOM     14  N   UNL     1       1.794  13.087  18.021  0.00  0.00    +0.000 N 
ATOM     15  O   UNL     1      -0.368  13.618  17.692  0.00  0.00    +0.000 OA
ATOM     16  H   UNL     1       2.578  13.036  18.660  0.00  0.00    +0.000 HD
ATOM     17  H   UNL     1       1.748  12.423  17.259  0.00  0.00    +0.000 HD
ENDBRANCH  12  13
BRANCH   1  18
ATOM     18  C   UNL     1      -1.225  12.841  21.234  0.00  0.00    +0.000 C 
BRANCH  18  20
ATOM     19  C   UNL     1      -1.712  11.718  23.366  0.00  0.00    +0.000 C 
ATOM     20  N   UNL     1      -1.093  12.850  22.703  0.00  0.00    +0.000 NA
ATOM     21  H   UNL     1      -0.139  12.982  23.012  0.00  0.00    +0.000 HD
ENDBRANCH  18  20
BRANCH  18  22
ATOM     22  C   UNL     1      -2.154  11.703  20.702  0.00  0.00    +0.000 C 
BRANCH  22  23
ATOM     23  C   UNL     1      -2.492  11.323  19.247  0.00  0.00    +0.000 A 
ATOM     24  C   UNL     1      -3.656  11.671  18.515  0.00  0.00    +0.000 A 
ATOM     25  C   UNL     1      -4.905  12.307  19.056  0.00  0.00    +0.000 C 
ATOM     26  C   UNL     1      -3.703  11.433  17.120  0.00  0.00    +0.000 A 
ATOM     27  C   UNL     1      -2.676  10.793  16.459  0.00  0.00    +0.000 A 
ATOM     28  C   UNL     1      -1.584  10.335  17.165  0.00  0.00    +0.000 A 
ATOM     29  C   UNL     1      -1.480  10.577  18.547  0.00  0.00    +0.000 A 
ATOM     30  C   UNL     1      -0.261  10.010  19.236  0.00  0.00    +0.000 C 
BRANCH  27  31
ATOM     31  O   UNL     1      -2.713  10.585  15.112  0.00  0.00    +0.000 OA
ATOM     32  H   UNL     1      -2.545  11.436  14.673  0.00  0.00    +0.000 HD
ENDBRANCH  27  31
ENDBRANCH  22  23
ENDBRANCH  18  22
ENDBRANCH   1  18
TORSDOF 6
ENDMDL
MODEL 6
REMARK VINA RESULT:      -6.7      2.040      3.644
REMARK  Name = 
REMARK  9 active torsions:
REMARK  status: ('A' for Active; 'I' for Inactive)
REMARK    1  A    between atoms: C_1  and  N_2
REMARK    2  A    between atoms: N_2  and  C_3
REMARK    3  A    between atoms: C_3  and  C_4
REMARK    4  A    between atoms: C_3  and  C_14
REMARK    5  A    between atoms: C_4  and  C_5
REMARK    6  A    between atoms: C_6  and  C_7
REMARK    7  A    between atoms: C_9  and  O_10
REMARK    8  A    between atoms: C_12  and  C_13
REMARK    9  A    between atoms: C_25  and  C_26
REMARK                            x       y       z     vdW  Elec       q    Type
REMARK                         _______ _______ _______ _____ _____    ______ ____
ROOT
ATOM      1  C   UNL     1       2.255   8.544  18.216  0.00  0.00    +0.000 C 
ATOM      2  O   UNL     1       2.213   9.298  17.239  0.00  0.00    +0.000 OA
ATOM      3  N   UNL     1       3.162   7.472  18.221  0.00  0.00    +0.000 N 
ATOM      4  C   UNL     1       4.201   7.490  17.178  0.00  0.00    +0.000 C 
ATOM      5  C   UNL     1       4.747   6.127  16.832  0.00  0.00    +0.000 A 
ATOM      6  C   UNL     1       5.096   5.790  15.519  0.00  0.00    +0.000 A 
ATOM      7  C   UNL     1       5.627   4.530  15.238  0.00  0.00    +0.000 A 
ATOM      8  C   UNL     1       5.842   3.613  16.266  0.00  0.00    +0.000 A 
ATOM      9  C   UNL     1       5.510   3.945  17.580  0.00  0.00    +0.000 A 
ATOM     10  C   UNL     1       4.947   5.192  17.860  0.00  0.00    +0.000 A 
ATOM     11  C   UNL     1       4.507   5.579  19.246  0.00  0.00    +0.000 C 
ATOM     12  C   UNL     1       3.153   6.322  19.172  0.00  0.00    +0.000 C 
ENDROOT
BRANCH  12  13
ATOM     13  C   UNL     1       2.032   5.309  18.845  0.00  0.00    +0.000 C 
ATOM     14  N   UNL     1       1.392   4.727  19.897  0.00  0.00    +0.000 N 
ATOM     15  O   UNL     1       1.677   5.075  17.692  0.00  0.00    +0.000 OA
ATOM     16  H   UNL     1       1.540   5.054  20.844  0.00  0.00    +0.000 HD
ATOM     17  H   UNL     1       0.577   4.160  19.703  0.00  0.00    +0.000 HD
ENDBRANCH  12  13
BRANCH   1  18
ATOM     18  C   UNL     1       1.284   8.739  19.419  0.00  0.00    +0.000 C 
BRANCH  18  20
ATOM     19  C   UNL     1       1.105   8.477  21.857  0.00  0.00    +0.000 C 
ATOM     20  N   UNL     1       1.811   8.108  20.644  0.00  0.00    +0.000 NA
ATOM     21  H   UNL     1       1.902   7.104  20.562  0.00  0.00    +0.000 HD
ENDBRANCH  18  20
BRANCH  18  22
ATOM     22  C   UNL     1       0.873  10.233  19.618  0.00  0.00    +0.000 C 
BRANCH  22  23
ATOM     23  C   UNL     1      -0.535  10.846  19.749  0.00  0.00    +0.000 A 
ATOM     24  C   UNL     1      -1.060  11.567  20.852  0.00  0.00    +0.000 A 
ATOM     25  C   UNL     1      -0.438  11.715  22.212  0.00  0.00    +0.000 C 
ATOM     26  C   UNL     1      -2.289  12.257  20.717  0.00  0.00    +0.000 A 
ATOM     27  C   UNL     1      -3.039  12.180  19.561  0.00  0.00    +0.000 A 
ATOM     28  C   UNL     1      -2.613  11.389  18.517  0.00  0.00    +0.000 A 
ATOM     29  C   UNL     1      -1.382  10.712  18.595  0.00  0.00    +0.000 A 
ATOM     30  C   UNL     1      -1.018   9.847  17.410  0.00  0.00    +0.000 C 
BRANCH  27  31
ATOM     31  O   UNL     1      -4.212  12.863  19.424  0.00  0.00    +0.000 OA
ATOM     32  H   UNL     1      -3.998  13.774  19.160  0.00  0.00    +0.000 HD
ENDBRANCH  27  31
ENDBRANCH  22  23
ENDBRANCH  18  22
ENDBRANCH   1  18
TORSDOF 6
ENDMDL
MODEL 7
REMARK VINA RESULT:      -6.6      4.810      7.852
REMARK  Name = 
REMARK  9 active torsions:
REMARK  status: ('A' for Active; 'I' for Inactive)
REMARK    1  A    between atoms: C_1  and  N_2
REMARK    2  A    between atoms: N_2  and  C_3
REMARK    3  A    between atoms: C_3  and  C_4
REMARK    4  A    between atoms: C_3  and  C_14
REMARK    5  A    between atoms: C_4  and  C_5
REMARK    6  A    between atoms: C_6  and  C_7
REMARK    7  A    between atoms: C_9  and  O_10
REMARK    8  A    between atoms: C_12  and  C_13
REMARK    9  A    between atoms: C_25  and  C_26
REMARK                            x       y       z     vdW  Elec       q    Type
REMARK                         _______ _______ _______ _____ _____    ______ ____
ROOT
ATOM      1  C   UNL     1      -0.794  11.363  22.465  0.00  0.00    +0.000 C 
ATOM      2  O   UNL     1      -0.767  10.615  23.447  0.00  0.00    +0.000 OA
ATOM      3  N   UNL     1      -0.370  10.878  21.218  0.00  0.00    +0.000 N 
ATOM      4  C   UNL     1      -0.188   9.421  21.110  0.00  0.00    +0.000 C 
ATOM      5  C   UNL     1       0.787   9.001  20.039  0.00  0.00    +0.000 A 
ATOM      6  C   UNL     1       1.646   7.911  20.216  0.00  0.00    +0.000 A 
ATOM      7  C   UNL     1       2.516   7.530  19.193  0.00  0.00    +0.000 A 
ATOM      8  C   UNL     1       2.510   8.212  17.977  0.00  0.00    +0.000 A 
ATOM      9  C   UNL     1       1.647   9.292  17.784  0.00  0.00    +0.000 A 
ATOM     10  C   UNL     1       0.800   9.697  18.819  0.00  0.00    +0.000 A 
ATOM     11  C   UNL     1      -0.101  10.895  18.693  0.00  0.00    +0.000 C 
ATOM     12  C   UNL     1      -0.076  11.705  20.010  0.00  0.00    +0.000 C 
ENDROOT
BRANCH  12  13
ATOM     13  C   UNL     1       1.278  12.442  20.129  0.00  0.00    +0.000 C 
ATOM     14  N   UNL     1       1.677  13.188  19.061  0.00  0.00    +0.000 N 
ATOM     15  O   UNL     1       1.947  12.421  21.160  0.00  0.00    +0.000 OA
ATOM     16  H   UNL     1       1.049  13.371  18.288  0.00  0.00    +0.000 HD
ATOM     17  H   UNL     1       2.494  13.774  19.169  0.00  0.00    +0.000 HD
ENDBRANCH  12  13
BRANCH   1  18
ATOM     18  C   UNL     1      -1.248  12.847  22.602  0.00  0.00    +0.000 C 
BRANCH  18  20
ATOM     19  C   UNL     1      -0.394  15.152  22.620  0.00  0.00    +0.000 C 
ATOM     20  N   UNL     1      -0.098  13.746  22.814  0.00  0.00    +0.000 NA
ATOM     21  H   UNL     1       0.368  13.586  23.697  0.00  0.00    +0.000 HD
ENDBRANCH  18  20
BRANCH  18  22
ATOM     22  C   UNL     1      -2.179  13.298  21.431  0.00  0.00    +0.000 C 
BRANCH  22  23
ATOM     23  C   UNL     1      -3.689  13.059  21.241  0.00  0.00    +0.000 A 
ATOM     24  C   UNL     1      -4.326  12.390  20.164  0.00  0.00    +0.000 A 
ATOM     25  C   UNL     1      -3.692  11.950  18.875  0.00  0.00    +0.000 C 
ATOM     26  C   UNL     1      -5.699  12.059  20.259  0.00  0.00    +0.000 A 
ATOM     27  C   UNL     1      -6.464  12.443  21.341  0.00  0.00    +0.000 A 
ATOM     28  C   UNL     1      -5.901  13.199  22.346  0.00  0.00    +0.000 A 
ATOM     29  C   UNL     1      -4.533  13.523  22.309  0.00  0.00    +0.000 A 
ATOM     30  C   UNL     1      -4.018  14.380  23.443  0.00  0.00    +0.000 C 
BRANCH  27  31
ATOM     31  O   UNL     1      -7.781  12.104  21.441  0.00  0.00    +0.000 OA
ATOM     32  H   UNL     1      -7.888  11.209  21.077  0.00  0.00    +0.000 HD
ENDBRANCH  27  31
ENDBRANCH  22  23
ENDBRANCH  18  22
ENDBRANCH   1  18
TORSDOF 6
ENDMDL
MODEL 8
REMARK VINA RESULT:      -6.5      2.552      8.014
REMARK  Name = 
REMARK  9 active torsions:
REMARK  status: ('A' for Active; 'I' for Inactive)
REMARK    1  A    between atoms: C_1  and  N_2
REMARK    2  A    between atoms: N_2  and  C_3
REMARK    3  A    between atoms: C_3  and  C_4
REMARK    4  A    between atoms: C_3  and  C_14
REMARK    5  A    between atoms: C_4  and  C_5
REMARK    6  A    between atoms: C_6  and  C_7
REMARK    7  A    between atoms: C_9  and  O_10
REMARK    8  A    between atoms: C_12  and  C_13
REMARK    9  A    between atoms: C_25  and  C_26
REMARK                            x       y       z     vdW  Elec       q    Type
REMARK                         _______ _______ _______ _____ _____    ______ ____
ROOT
ATOM      1  C   UNL     1       1.561   7.640  20.103  0.00  0.00    +0.000 C 
ATOM      2  O   UNL     1       1.421   6.767  20.964  0.00  0.00    +0.000 OA
ATOM      3  N   UNL     1       1.209   8.966  20.403  0.00  0.00    +0.000 N 
ATOM      4  C   UNL     1       0.961   9.273  21.821  0.00  0.00    +0.000 C 
ATOM      5  C   UNL     1       0.049  10.454  22.044  0.00  0.00    +0.000 A 
ATOM      6  C   UNL     1      -0.876  10.478  23.093  0.00  0.00    +0.000 A 
ATOM      7  C   UNL     1      -1.683  11.599  23.290  0.00  0.00    +0.000 A 
ATOM      8  C   UNL     1      -1.550  12.714  22.463  0.00  0.00    +0.000 A 
ATOM      9  C   UNL     1      -0.620  12.706  21.423  0.00  0.00    +0.000 A 
ATOM     10  C   UNL     1       0.165  11.571  21.202  0.00  0.00    +0.000 A 
ATOM     11  C   UNL     1       1.134  11.480  20.055  0.00  0.00    +0.000 C 
ATOM     12  C   UNL     1       1.051  10.074  19.415  0.00  0.00    +0.000 C 
ENDROOT
BRANCH  12  13
ATOM     13  C   UNL     1      -0.268   9.956  18.618  0.00  0.00    +0.000 C 
ATOM     14  N   UNL     1      -0.167   9.773  17.271  0.00  0.00    +0.000 N 
ATOM     15  O   UNL     1      -1.368   9.957  19.165  0.00  0.00    +0.000 OA
ATOM     16  H   UNL     1       0.726   9.575  16.837  0.00  0.00    +0.000 HD
ATOM     17  H   UNL     1      -1.012   9.569  16.754  0.00  0.00    +0.000 HD
ENDBRANCH  12  13
BRANCH   1  18
ATOM     18  C   UNL     1       2.080   7.283  18.678  0.00  0.00    +0.000 C 
BRANCH  18  20
ATOM     19  C   UNL     1       3.815   8.023  17.101  0.00  0.00    +0.000 C 
ATOM     20  N   UNL     1       3.470   7.736  18.481  0.00  0.00    +0.000 NA
ATOM     21  H   UNL     1       3.724   8.501  19.091  0.00  0.00    +0.000 HD
ENDBRANCH  18  20
BRANCH  18  22
ATOM     22  C   UNL     1       1.863   5.777  18.323  0.00  0.00    +0.000 C 
BRANCH  22  23
ATOM     23  C   UNL     1       2.759   4.564  18.638  0.00  0.00    +0.000 A 
ATOM     24  C   UNL     1       4.000   4.232  18.036  0.00  0.00    +0.000 A 
ATOM     25  C   UNL     1       4.613   4.870  16.822  0.00  0.00    +0.000 C 
ATOM     26  C   UNL     1       4.801   3.210  18.601  0.00  0.00    +0.000 A 
ATOM     27  C   UNL     1       4.371   2.465  19.679  0.00  0.00    +0.000 A 
ATOM     28  C   UNL     1       3.118   2.684  20.209  0.00  0.00    +0.000 A 
ATOM     29  C   UNL     1       2.301   3.710  19.700  0.00  0.00    +0.000 A 
ATOM     30  C   UNL     1       0.934   3.851  20.330  0.00  0.00    +0.000 C 
BRANCH  27  31
ATOM     31  O   UNL     1       5.153   1.497  20.236  0.00  0.00    +0.000 OA
ATOM     32  H   UNL     1       4.567   0.830  20.632  0.00  0.00    +0.000 HD
ENDBRANCH  27  31
ENDBRANCH  22  23
ENDBRANCH  18  22
ENDBRANCH   1  18
TORSDOF 6
ENDMDL
MODEL 9
REMARK VINA RESULT:      -6.5      5.559      9.699
REMARK  Name = 
REMARK  9 active torsions:
REMARK  status: ('A' for Active; 'I' for Inactive)
REMARK    1  A    between atoms: C_1  and  N_2
REMARK    2  A    between atoms: N_2  and  C_3
REMARK    3  A    between atoms: C_3  and  C_4
REMARK    4  A    between atoms: C_3  and  C_14
REMARK    5  A    between atoms: C_4  and  C_5
REMARK    6  A    between atoms: C_6  and  C_7
REMARK    7  A    between atoms: C_9  and  O_10
REMARK    8  A    between atoms: C_12  and  C_13
REMARK    9  A    between atoms: C_25  and  C_26
REMARK                            x       y       z     vdW  Elec       q    Type
REMARK                         _______ _______ _______ _____ _____    ______ ____
ROOT
ATOM      1  C   UNL     1      -1.513  14.196  21.064  0.00  0.00    +0.000 C 
ATOM      2  O   UNL     1      -2.719  14.396  20.891  0.00  0.00    +0.000 OA
ATOM      3  N   UNL     1      -0.580  15.069  20.482  0.00  0.00    +0.000 N 
ATOM      4  C   UNL     1      -1.113  16.329  19.938  0.00  0.00    +0.000 C 
ATOM      5  C   UNL     1      -0.266  16.934  18.846  0.00  0.00    +0.000 A 
ATOM      6  C   UNL     1      -0.841  17.587  17.750  0.00  0.00    +0.000 A 
ATOM      7  C   UNL     1      -0.027  18.162  16.772  0.00  0.00    +0.000 A 
ATOM      8  C   UNL     1       1.361  18.118  16.898  0.00  0.00    +0.000 A 
ATOM      9  C   UNL     1       1.943  17.481  17.995  0.00  0.00    +0.000 A 
ATOM     10  C   UNL     1       1.132  16.874  18.958  0.00  0.00    +0.000 A 
ATOM     11  C   UNL     1       1.705  16.116  20.124  0.00  0.00    +0.000 C 
ATOM     12  C   UNL     1       0.887  14.824  20.355  0.00  0.00    +0.000 C 
ENDROOT
BRANCH  12  13
ATOM     13  C   UNL     1       1.210  13.810  19.234  0.00  0.00    +0.000 C 
ATOM     14  N   UNL     1       2.258  12.964  19.443  0.00  0.00    +0.000 N 
ATOM     15  O   UNL     1       0.521  13.710  18.222  0.00  0.00    +0.000 OA
ATOM     16  H   UNL     1       2.708  12.904  20.347  0.00  0.00    +0.000 HD
ATOM     17  H   UNL     1       2.404  12.215  18.779  0.00  0.00    +0.000 HD
ENDBRANCH  12  13
BRANCH   1  18
ATOM     18  C   UNL     1      -1.015  12.966  21.880  0.00  0.00    +0.000 C 
BRANCH  18  20
ATOM     19  C   UNL     1      -1.225  14.407  23.861  0.00  0.00    +0.000 C 
ATOM     20  N   UNL     1      -1.387  13.077  23.303  0.00  0.00    +0.000 NA
ATOM     21  H   UNL     1      -2.305  12.703  23.500  0.00  0.00    +0.000 HD
ENDBRANCH  18  20
BRANCH  18  22
ATOM     22  C   UNL     1      -1.438  11.609  21.232  0.00  0.00    +0.000 C 
BRANCH  22  23
ATOM     23  C   UNL     1      -0.732  10.793  20.132  0.00  0.00    +0.000 A 
ATOM     24  C   UNL     1      -1.021  10.792  18.743  0.00  0.00    +0.000 A 
ATOM     25  C   UNL     1      -2.205  11.422  18.067  0.00  0.00    +0.000 C 
ATOM     26  C   UNL     1      -0.129  10.159  17.844  0.00  0.00    +0.000 A 
ATOM     27  C   UNL     1       0.979   9.468  18.288  0.00  0.00    +0.000 A 
ATOM     28  C   UNL     1       1.219   9.349  19.640  0.00  0.00    +0.000 A 
ATOM     29  C   UNL     1       0.377   9.988  20.569  0.00  0.00    +0.000 A 
ATOM     30  C   UNL     1       0.706   9.774  22.028  0.00  0.00    +0.000 C 
BRANCH  27  31
ATOM     31  O   UNL     1       1.849   8.878  17.419  0.00  0.00    +0.000 OA
ATOM     32  H   UNL     1       2.739   8.926  17.808  0.00  0.00    +0.000 HD
ENDBRANCH  27  31
ENDBRANCH  22  23
ENDBRANCH  18  22
ENDBRANCH   1  18
TORSDOF 6
ENDMDL
