MODEL 1
REMARK VINA RESULT:      -7.6      0.000      0.000
REMARK  Name = 
REMARK  11 active torsions:
REMARK  status: ('A' for Active; 'I' for Inactive)
REMARK    1  A    between atoms: C_1  and  C_2
REMARK    2  A    between atoms: C_2  and  C_3
REMARK    3  A    between atoms: C_2  and  C_4
REMARK    4  A    between atoms: C_4  and  O_6
REMARK    5  A    between atoms: O_6  and  C_7
REMARK    6  A    between atoms: C_9  and  C_10
REMARK    7  A    between atoms: C_15  and  C_16
REMARK    8  A    between atoms: C_17  and  C_18
REMARK    9  A    between atoms: C_18  and  C_19
REMARK   10  A    between atoms: C_19  and  C_20
REMARK   11  A    between atoms: C_22  and  O_23
REMARK                            x       y       z     vdW  Elec       q    Type
REMARK                         _______ _______ _______ _____ _____    ______ ____
ROOT
ATOM      1  C   UNL     1       4.981   5.033  19.563  0.00  0.00    +0.000 C 
ATOM      2  C   UNL     1       4.832   6.175  18.522  0.00  0.00    +0.000 C 
ATOM      3  C   UNL     1       4.070   5.879  17.213  0.00  0.00    +0.000 C 
ATOM      4  C   UNL     1       4.835   6.350  15.970  0.00  0.00    +0.000 C 
ATOM      5  C   UNL     1       3.740   4.444  16.989  0.00  0.00    +0.000 C 
ATOM      6  C   UNL     1       3.808   3.511  17.938  0.00  0.00    +0.000 C 
ATOM      7  C   UNL     1       3.379   2.146  17.693  0.00  0.00    +0.000 C 
ATOM      8  C   UNL     1       2.103   2.037  18.083  0.00  0.00    +0.000 C 
ATOM      9  C   UNL     1       1.803   2.319  19.566  0.00  0.00    +0.000 C 
ATOM     10  C   UNL     1       0.281   2.476  19.638  0.00  0.00    +0.000 C 
ATOM     11  C   UNL     1       2.790   3.407  20.279  0.00  0.00    +0.000 C 
ATOM     12  C   UNL     1       4.089   3.768  19.393  0.00  0.00    +0.000 C 
ENDROOT
BRANCH   1  13
ATOM     13  O   UNL     1       6.347   4.502  19.374  0.00  0.00    +0.000 OA
BRANCH  13  14
ATOM     14  C   UNL     1       7.424   5.311  19.579  0.00  0.00    +0.000 C 
ATOM     15  O   UNL     1       7.828   5.674  20.670  0.00  0.00    +0.000 OA
BRANCH  14  17
ATOM     16  C   UNL     1       7.684   4.736  17.116  0.00  0.00    +0.000 C 
ATOM     17  C   UNL     1       8.108   5.659  18.250  0.00  0.00    +0.000 C 
ATOM     18  C   UNL     1       7.814   7.104  17.845  0.00  0.00    +0.000 C 
ENDBRANCH  14  17
ENDBRANCH  13  14
ENDBRANCH   1  13
BRANCH  11  19
ATOM     19  C   UNL     1       2.176   4.529  21.185  0.00  0.00    +0.000 C 
BRANCH  19  20
ATOM     20  C   UNL     1       1.334   5.571  20.377  0.00  0.00    +0.000 C 
BRANCH  20  21
ATOM     21  C   UNL     1       1.577   7.077  20.668  0.00  0.00    +0.000 C 
ATOM     22  C   UNL     1       0.477   7.757  21.464  0.00  0.00    +0.000 C 
ATOM     23  C   UNL     1       0.700   9.261  21.493  0.00  0.00    +0.000 C 
ATOM     24  C   UNL     1       0.766   9.819  20.088  0.00  0.00    +0.000 C 
ATOM     25  C   UNL     1       1.669   9.049  19.171  0.00  0.00    +0.000 C 
ATOM     26  O   UNL     1       2.148   9.578  18.168  0.00  0.00    +0.000 OA
ATOM     27  O   UNL     1       1.860   7.735  19.411  0.00  0.00    +0.000 OA
BRANCH  23  28
ATOM     28  O   UNL     1       1.856   9.597  22.257  0.00  0.00    +0.000 OA
ATOM     29  H   UNL     1       1.707   9.409  23.201  0.00  0.00    +0.000 HD
ENDBRANCH  23  28
ENDBRANCH  20  21
ENDBRANCH  19  20
ENDBRANCH  11  19
TORSDOF 7
ENDMDL
MODEL 2
REMARK VINA RESULT:      -7.5      0.911      1.293
REMARK  Name = 
REMARK  11 active torsions:
REMARK  status: ('A' for Active; 'I' for Inactive)
REMARK    1  A    between atoms: C_1  and  C_2
REMARK    2  A    between atoms: C_2  and  C_3
REMARK    3  A    between atoms: C_2  and  C_4
REMARK    4  A    between atoms: C_4  and  O_6
REMARK    5  A    between atoms: O_6  and  C_7
REMARK    6  A    between atoms: C_9  and  C_10
REMARK    7  A    between atoms: C_15  and  C_16
REMARK    8  A    between atoms: C_17  and  C_18
REMARK    9  A    between atoms: C_18  and  C_19
REMARK   10  A    between atoms: C_19  and  C_20
REMARK   11  A    between atoms: C_22  and  O_23
REMARK                            x       y       z     vdW  Elec       q    Type
REMARK                         _______ _______ _______ _____ _____    ______ ____
ROOT
ATOM      1  C   UNL     1       5.360   4.952  18.987  0.00  0.00    +0.000 C 
ATOM      2  C   UNL     1       5.286   5.893  17.756  0.00  0.00    +0.000 C 
ATOM      3  C   UNL     1       4.446   5.447  16.541  0.00  0.00    +0.000 C 
ATOM      4  C   UNL     1       5.205   5.598  15.216  0.00  0.00    +0.000 C 
ATOM      5  C   UNL     1       3.963   4.038  16.594  0.00  0.00    +0.000 C 
ATOM      6  C   UNL     1       3.973   3.293  17.698  0.00  0.00    +0.000 C 
ATOM      7  C   UNL     1       3.398   1.961  17.720  0.00  0.00    +0.000 C 
ATOM      8  C   UNL     1       2.134   2.062  18.150  0.00  0.00    +0.000 C 
ATOM      9  C   UNL     1       1.924   2.641  19.560  0.00  0.00    +0.000 C 
ATOM     10  C   UNL     1       0.430   2.971  19.633  0.00  0.00    +0.000 C 
ATOM     11  C   UNL     1       3.045   3.729  20.038  0.00  0.00    +0.000 C 
ATOM     12  C   UNL     1       4.337   3.781  19.074  0.00  0.00    +0.000 C 
ENDROOT
BRANCH   1  13
ATOM     13  O   UNL     1       6.655   4.251  18.874  0.00  0.00    +0.000 OA
BRANCH  13  14
ATOM     14  C   UNL     1       7.648   4.781  18.103  0.00  0.00    +0.000 C 
ATOM     15  O   UNL     1       7.861   4.487  16.940  0.00  0.00    +0.000 OA
BRANCH  14  17
ATOM     16  C   UNL     1       8.071   7.265  18.446  0.00  0.00    +0.000 C 
ATOM     17  C   UNL     1       8.430   5.850  18.879  0.00  0.00    +0.000 C 
ATOM     18  C   UNL     1       8.190   5.720  20.383  0.00  0.00    +0.000 C 
ENDBRANCH  14  17
ENDBRANCH  13  14
ENDBRANCH   1  13
BRANCH  11  19
ATOM     19  C   UNL     1       2.585   5.057  20.732  0.00  0.00    +0.000 C 
BRANCH  19  20
ATOM     20  C   UNL     1       2.188   6.172  19.709  0.00  0.00    +0.000 C 
BRANCH  20  21
ATOM     21  C   UNL     1       1.930   7.600  20.263  0.00  0.00    +0.000 C 
ATOM     22  C   UNL     1       0.780   7.702  21.250  0.00  0.00    +0.000 C 
ATOM     23  C   UNL     1       0.469   9.161  21.548  0.00  0.00    +0.000 C 
ATOM     24  C   UNL     1       0.145   9.909  20.274  0.00  0.00    +0.000 C 
ATOM     25  C   UNL     1       1.126   9.671  19.164  0.00  0.00    +0.000 C 
ATOM     26  O   UNL     1       1.251  10.483  18.248  0.00  0.00    +0.000 OA
ATOM     27  O   UNL     1       1.793   8.498  19.136  0.00  0.00    +0.000 OA
BRANCH  23  28
ATOM     28  O   UNL     1       1.528   9.777  22.277  0.00  0.00    +0.000 OA
ATOM     29  H   UNL     1       1.420   9.623  23.232  0.00  0.00    +0.000 HD
ENDBRANCH  23  28
ENDBRANCH  20  21
ENDBRANCH  19  20
ENDBRANCH  11  19
TORSDOF 7
ENDMDL
MODEL 3
REMARK VINA RESULT:      -7.1      1.318      2.201
REMARK  Name = 
REMARK  11 active torsions:
REMARK  status: ('A' for Active; 'I' for Inactive)
REMARK    1  A    between atoms: C_1  and  C_2
REMARK    2  A    between atoms: C_2  and  C_3
REMARK    3  A    between atoms: C_2  and  C_4
REMARK    4  A    between atoms: C_4  and  O_6
REMARK    5  A    between atoms: O_6  and  C_7
REMARK    6  A    between atoms: C_9  and  C_10
REMARK    7  A    between atoms: C_15  and  C_16
REMARK    8  A    between atoms: C_17  and  C_18
REMARK    9  A    between atoms: C_18  and  C_19
REMARK   10  A    between atoms: C_19  and  C_20
REMARK   11  A    between atoms: C_22  and  O_23
REMARK                            x       y       z     vdW  Elec       q    Type
REMARK                         _______ _______ _______ _____ _____    ______ ____
ROOT
ATOM      1  C   UNL     1       5.354   4.965  18.647  0.00  0.00    +0.000 C 
ATOM      2  C   UNL     1       5.289   5.437  17.171  0.00  0.00    +0.000 C 
ATOM      3  C   UNL     1       4.430   4.625  16.178  0.00  0.00    +0.000 C 
ATOM      4  C   UNL     1       5.181   4.304  14.880  0.00  0.00    +0.000 C 
ATOM      5  C   UNL     1       3.919   3.328  16.704  0.00  0.00    +0.000 C 
ATOM      6  C   UNL     1       3.924   2.999  17.995  0.00  0.00    +0.000 C 
ATOM      7  C   UNL     1       3.322   1.765  18.466  0.00  0.00    +0.000 C 
ATOM      8  C   UNL     1       2.064   2.033  18.838  0.00  0.00    +0.000 C 
ATOM      9  C   UNL     1       1.878   3.058  19.970  0.00  0.00    +0.000 C 
ATOM     10  C   UNL     1       0.391   3.426  19.929  0.00  0.00    +0.000 C 
ATOM     11  C   UNL     1       3.024   4.219  20.052  0.00  0.00    +0.000 C 
ATOM     12  C   UNL     1       4.309   3.914  19.126  0.00  0.00    +0.000 C 
ENDROOT
BRANCH   1  13
ATOM     13  O   UNL     1       6.634   4.239  18.775  0.00  0.00    +0.000 OA
BRANCH  13  14
ATOM     14  C   UNL     1       7.732   4.674  18.094  0.00  0.00    +0.000 C 
ATOM     15  O   UNL     1       8.090   4.256  17.007  0.00  0.00    +0.000 OA
BRANCH  14  17
ATOM     16  C   UNL     1       8.002   7.189  18.359  0.00  0.00    +0.000 C 
ATOM     17  C   UNL     1       8.429   5.813  18.851  0.00  0.00    +0.000 C 
ATOM     18  C   UNL     1       8.156   5.720  20.352  0.00  0.00    +0.000 C 
ENDBRANCH  14  17
ENDBRANCH  13  14
ENDBRANCH   1  13
BRANCH  11  19
ATOM     19  C   UNL     1       2.596   5.712  20.257  0.00  0.00    +0.000 C 
BRANCH  19  20
ATOM     20  C   UNL     1       2.513   6.512  18.915  0.00  0.00    +0.000 C 
BRANCH  20  21
ATOM     21  C   UNL     1       1.585   7.757  18.873  0.00  0.00    +0.000 C 
ATOM     22  C   UNL     1       2.087   8.896  18.004  0.00  0.00    +0.000 C 
ATOM     23  C   UNL     1       1.232  10.136  18.214  0.00  0.00    +0.000 C 
ATOM     24  C   UNL     1       1.225  10.540  19.672  0.00  0.00    +0.000 C 
ATOM     25  C   UNL     1       0.960   9.404  20.615  0.00  0.00    +0.000 C 
ATOM     26  O   UNL     1       0.520   9.613  21.745  0.00  0.00    +0.000 OA
ATOM     27  O   UNL     1       1.313   8.158  20.236  0.00  0.00    +0.000 OA
BRANCH  23  28
ATOM     28  O   UNL     1      -0.086   9.947  17.705  0.00  0.00    +0.000 OA
ATOM     29  H   UNL     1      -0.054   9.616  16.789  0.00  0.00    +0.000 HD
ENDBRANCH  23  28
ENDBRANCH  20  21
ENDBRANCH  19  20
ENDBRANCH  11  19
TORSDOF 7
ENDMDL
MODEL 4
REMARK VINA RESULT:      -6.9      1.464      2.506
REMARK  Name = 
REMARK  11 active torsions:
REMARK  status: ('A' for Active; 'I' for Inactive)
REMARK    1  A    between atoms: C_1  and  C_2
REMARK    2  A    between atoms: C_2  and  C_3
REMARK    3  A    between atoms: C_2  and  C_4
REMARK    4  A    between atoms: C_4  and  O_6
REMARK    5  A    between atoms: O_6  and  C_7
REMARK    6  A    between atoms: C_9  and  C_10
REMARK    7  A    between atoms: C_15  and  C_16
REMARK    8  A    between atoms: C_17  and  C_18
REMARK    9  A    between atoms: C_18  and  C_19
REMARK   10  A    between atoms: C_19  and  C_20
REMARK   11  A    between atoms: C_22  and  O_23
REMARK                            x       y       z     vdW  Elec       q    Type
REMARK                         _______ _______ _______ _____ _____    ______ ____
ROOT
ATOM      1  C   UNL     1       4.299   6.276  18.633  0.00  0.00    +0.000 C 
ATOM      2  C   UNL     1       4.128   5.995  17.117  0.00  0.00    +0.000 C 
ATOM      3  C   UNL     1       3.992   4.530  16.652  0.00  0.00    +0.000 C 
ATOM      4  C   UNL     1       4.920   4.199  15.476  0.00  0.00    +0.000 C 
ATOM      5  C   UNL     1       4.262   3.510  17.704  0.00  0.00    +0.000 C 
ATOM      6  C   UNL     1       4.322   3.786  19.006  0.00  0.00    +0.000 C 
ATOM      7  C   UNL     1       4.487   2.740  19.998  0.00  0.00    +0.000 C 
ATOM      8  C   UNL     1       3.271   2.380  20.426  0.00  0.00    +0.000 C 
ATOM      9  C   UNL     1       2.419   3.471  21.096  0.00  0.00    +0.000 C 
ATOM     10  C   UNL     1       1.002   2.891  21.145  0.00  0.00    +0.000 C 
ATOM     11  C   UNL     1       2.683   4.989  20.554  0.00  0.00    +0.000 C 
ATOM     12  C   UNL     1       3.998   5.117  19.629  0.00  0.00    +0.000 C 
ENDROOT
BRANCH   1  13
ATOM     13  O   UNL     1       5.744   6.514  18.831  0.00  0.00    +0.000 OA
BRANCH  13  14
ATOM     14  C   UNL     1       6.574   6.588  17.752  0.00  0.00    +0.000 C 
ATOM     15  O   UNL     1       6.365   7.256  16.755  0.00  0.00    +0.000 OA
BRANCH  14  17
ATOM     16  C   UNL     1       8.154   5.564  19.461  0.00  0.00    +0.000 C 
ATOM     17  C   UNL     1       7.847   5.762  17.983  0.00  0.00    +0.000 C 
ATOM     18  C   UNL     1       7.739   4.391  17.315  0.00  0.00    +0.000 C 
ENDBRANCH  14  17
ENDBRANCH  13  14
ENDBRANCH   1  13
BRANCH  11  19
ATOM     19  C   UNL     1       1.461   5.918  20.237  0.00  0.00    +0.000 C 
BRANCH  19  20
ATOM     20  C   UNL     1       1.597   7.341  20.874  0.00  0.00    +0.000 C 
BRANCH  20  21
ATOM     21  C   UNL     1       0.995   8.541  20.094  0.00  0.00    +0.000 C 
ATOM     22  C   UNL     1       1.702   8.873  18.791  0.00  0.00    +0.000 C 
ATOM     23  C   UNL     1       1.185  10.189  18.231  0.00  0.00    +0.000 C 
ATOM     24  C   UNL     1       1.367  11.306  19.235  0.00  0.00    +0.000 C 
ATOM     25  C   UNL     1       0.896  10.961  20.618  0.00  0.00    +0.000 C 
ATOM     26  O   UNL     1       0.591  11.845  21.417  0.00  0.00    +0.000 OA
ATOM     27  O   UNL     1       0.914   9.667  20.999  0.00  0.00    +0.000 OA
BRANCH  23  28
ATOM     28  O   UNL     1      -0.170  10.071  17.801  0.00  0.00    +0.000 OA
ATOM     29  H   UNL     1      -0.751  10.628  18.349  0.00  0.00    +0.000 HD
ENDBRANCH  23  28
ENDBRANCH  20  21
ENDBRANCH  19  20
ENDBRANCH  11  19
TORSDOF 7
ENDMDL
MODEL 5
REMARK VINA RESULT:      -6.9      3.396      8.838
REMARK  Name = 
REMARK  11 active torsions:
REMARK  status: ('A' for Active; 'I' for Inactive)
REMARK    1  A    between atoms: C_1  and  C_2
REMARK    2  A    between atoms: C_2  and  C_3
REMARK    3  A    between atoms: C_2  and  C_4
REMARK    4  A    between atoms: C_4  and  O_6
REMARK    5  A    between atoms: O_6  and  C_7
REMARK    6  A    between atoms: C_9  and  C_10
REMARK    7  A    between atoms: C_15  and  C_16
REMARK    8  A    between atoms: C_17  and  C_18
REMARK    9  A    between atoms: C_18  and  C_19
REMARK   10  A    between atoms: C_19  and  C_20
REMARK   11  A    between atoms: C_22  and  O_23
REMARK                            x       y       z     vdW  Elec       q    Type
REMARK                         _______ _______ _______ _____ _____    ______ ____
ROOT
ATOM      1  C   UNL     1      -0.339  11.459  18.723  0.00  0.00    +0.000 C 
ATOM      2  C   UNL     1       0.546  12.731  18.647  0.00  0.00    +0.000 C 
ATOM      3  C   UNL     1       0.615  13.651  19.884  0.00  0.00    +0.000 C 
ATOM      4  C   UNL     1       0.401  15.129  19.529  0.00  0.00    +0.000 C 
ATOM      5  C   UNL     1      -0.361  13.329  20.963  0.00  0.00    +0.000 C 
ATOM      6  C   UNL     1      -1.041  12.185  21.028  0.00  0.00    +0.000 C 
ATOM      7  C   UNL     1      -1.905  11.879  22.153  0.00  0.00    +0.000 C 
ATOM      8  C   UNL     1      -1.195  11.170  23.040  0.00  0.00    +0.000 C 
ATOM      9  C   UNL     1      -0.628   9.824  22.558  0.00  0.00    +0.000 C 
ATOM     10  C   UNL     1       0.405   9.428  23.618  0.00  0.00    +0.000 C 
ATOM     11  C   UNL     1      -0.263   9.752  20.968  0.00  0.00    +0.000 C 
ATOM     12  C   UNL     1      -0.841  11.000  20.124  0.00  0.00    +0.000 C 
ENDROOT
BRANCH   1  13
ATOM     13  O   UNL     1      -1.592  11.805  18.021  0.00  0.00    +0.000 OA
BRANCH  13  14
ATOM     14  C   UNL     1      -2.361  10.818  17.480  0.00  0.00    +0.000 C 
ATOM     15  O   UNL     1      -1.936   9.868  16.846  0.00  0.00    +0.000 OA
BRANCH  14  17
ATOM     16  C   UNL     1      -4.041  12.029  18.957  0.00  0.00    +0.000 C 
ATOM     17  C   UNL     1      -3.842  11.026  17.830  0.00  0.00    +0.000 C 
ATOM     18  C   UNL     1      -4.632  11.496  16.607  0.00  0.00    +0.000 C 
ENDBRANCH  14  17
ENDBRANCH  13  14
ENDBRANCH   1  13
BRANCH  11  19
ATOM     19  C   UNL     1       1.096   9.118  20.516  0.00  0.00    +0.000 C 
BRANCH  19  20
ATOM     20  C   UNL     1       1.261   7.634  20.983  0.00  0.00    +0.000 C 
BRANCH  20  21
ATOM     21  C   UNL     1       2.185   6.711  20.142  0.00  0.00    +0.000 C 
ATOM     22  C   UNL     1       2.477   7.210  18.738  0.00  0.00    +0.000 C 
ATOM     23  C   UNL     1       3.190   6.134  17.934  0.00  0.00    +0.000 C 
ATOM     24  C   UNL     1       2.366   4.866  17.889  0.00  0.00    +0.000 C 
ATOM     25  C   UNL     1       1.844   4.433  19.227  0.00  0.00    +0.000 C 
ATOM     26  O   UNL     1       1.532   3.261  19.432  0.00  0.00    +0.000 OA
ATOM     27  O   UNL     1       1.626   5.376  20.167  0.00  0.00    +0.000 OA
BRANCH  23  28
ATOM     28  O   UNL     1       4.505   5.901  18.435  0.00  0.00    +0.000 OA
ATOM     29  H   UNL     1       4.665   4.946  18.542  0.00  0.00    +0.000 HD
ENDBRANCH  23  28
ENDBRANCH  20  21
ENDBRANCH  19  20
ENDBRANCH  11  19
TORSDOF 7
ENDMDL
MODEL 6
REMARK VINA RESULT:      -6.9      3.226      8.235
REMARK  Name = 
REMARK  11 active torsions:
REMARK  status: ('A' for Active; 'I' for Inactive)
REMARK    1  A    between atoms: C_1  and  C_2
REMARK    2  A    between atoms: C_2  and  C_3
REMARK    3  A    between atoms: C_2  and  C_4
REMARK    4  A    between atoms: C_4  and  O_6
REMARK    5  A    between atoms: O_6  and  C_7
REMARK    6  A    between atoms: C_9  and  C_10
REMARK    7  A    between atoms: C_15  and  C_16
REMARK    8  A    between atoms: C_17  and  C_18
REMARK    9  A    between atoms: C_18  and  C_19
REMARK   10  A    between atoms: C_19  and  C_20
REMARK   11  A    between atoms: C_22  and  O_23
REMARK                            x       y       z     vdW  Elec       q    Type
REMARK                         _______ _______ _______ _____ _____    ______ ____
ROOT
ATOM      1  C   UNL     1      -0.211  10.097  18.461  0.00  0.00    +0.000 C 
ATOM      2  C   UNL     1       1.193  10.588  18.019  0.00  0.00    +0.000 C 
ATOM      3  C   UNL     1       1.910  11.639  18.892  0.00  0.00    +0.000 C 
ATOM      4  C   UNL     1       2.465  12.807  18.067  0.00  0.00    +0.000 C 
ATOM      5  C   UNL     1       1.072  12.241  19.967  0.00  0.00    +0.000 C 
ATOM      6  C   UNL     1      -0.094  11.736  20.368  0.00  0.00    +0.000 C 
ATOM      7  C   UNL     1      -0.822  12.303  21.487  0.00  0.00    +0.000 C 
ATOM      8  C   UNL     1      -0.481  11.624  22.590  0.00  0.00    +0.000 C 
ATOM      9  C   UNL     1      -0.787  10.116  22.600  0.00  0.00    +0.000 C 
ATOM     10  C   UNL     1       0.015   9.558  23.781  0.00  0.00    +0.000 C 
ATOM     11  C   UNL     1      -0.741   9.388  21.140  0.00  0.00    +0.000 C 
ATOM     12  C   UNL     1      -0.680  10.429  19.908  0.00  0.00    +0.000 C 
ENDROOT
BRANCH   1  13
ATOM     13  O   UNL     1      -1.173  10.843  17.624  0.00  0.00    +0.000 OA
BRANCH  13  14
ATOM     14  C   UNL     1      -2.362  10.269  17.282  0.00  0.00    +0.000 C 
ATOM     15  O   UNL     1      -2.886   9.342  17.873  0.00  0.00    +0.000 OA
BRANCH  14  17
ATOM     16  C   UNL     1      -2.987  10.139  14.820  0.00  0.00    +0.000 C 
ATOM     17  C   UNL     1      -2.992  10.991  16.082  0.00  0.00    +0.000 C 
ATOM     18  C   UNL     1      -4.430  11.409  16.388  0.00  0.00    +0.000 C 
ENDBRANCH  14  17
ENDBRANCH  13  14
ENDBRANCH   1  13
BRANCH  11  19
ATOM     19  C   UNL     1      -0.003   8.014  20.985  0.00  0.00    +0.000 C 
BRANCH  19  20
ATOM     20  C   UNL     1       1.532   8.173  20.730  0.00  0.00    +0.000 C 
BRANCH  20  21
ATOM     21  C   UNL     1       2.283   6.981  20.075  0.00  0.00    +0.000 C 
ATOM     22  C   UNL     1       2.453   7.086  18.570  0.00  0.00    +0.000 C 
ATOM     23  C   UNL     1       2.987   5.778  18.008  0.00  0.00    +0.000 C 
ATOM     24  C   UNL     1       2.068   4.629  18.361  0.00  0.00    +0.000 C 
ATOM     25  C   UNL     1       1.667   4.596  19.807  0.00  0.00    +0.000 C 
ATOM     26  O   UNL     1       1.290   3.549  20.331  0.00  0.00    +0.000 OA
ATOM     27  O   UNL     1       1.628   5.759  20.490  0.00  0.00    +0.000 OA
BRANCH  23  28
ATOM     28  O   UNL     1       4.327   5.541  18.432  0.00  0.00    +0.000 OA
ATOM     29  H   UNL     1       4.367   4.767  19.022  0.00  0.00    +0.000 HD
ENDBRANCH  23  28
ENDBRANCH  20  21
ENDBRANCH  19  20
ENDBRANCH  11  19
TORSDOF 7
ENDMDL
MODEL 7
REMARK VINA RESULT:      -6.9      1.962      3.826
REMARK  Name = 
REMARK  11 active torsions:
REMARK  status: ('A' for Active; 'I' for Inactive)
REMARK    1  A    between atoms: C_1  and  C_2
REMARK    2  A    between atoms: C_2  and  C_3
REMARK    3  A    between atoms: C_2  and  C_4
REMARK    4  A    between atoms: C_4  and  O_6
REMARK    5  A    between atoms: O_6  and  C_7
REMARK    6  A    between atoms: C_9  and  C_10
REMARK    7  A    between atoms: C_15  and  C_16
REMARK    8  A    between atoms: C_17  and  C_18
REMARK    9  A    between atoms: C_18  and  C_19
REMARK   10  A    between atoms: C_19  and  C_20
REMARK   11  A    between atoms: C_22  and  O_23
REMARK                            x       y       z     vdW  Elec       q    Type
REMARK                         _______ _______ _______ _____ _____    ______ ____
ROOT
ATOM      1  C   UNL     1       4.016   5.442  17.666  0.00  0.00    +0.000 C 
ATOM      2  C   UNL     1       3.291   4.287  16.925  0.00  0.00    +0.000 C 
ATOM      3  C   UNL     1       2.220   3.483  17.690  0.00  0.00    +0.000 C 
ATOM      4  C   UNL     1       2.410   1.967  17.547  0.00  0.00    +0.000 C 
ATOM      5  C   UNL     1       2.147   3.765  19.151  0.00  0.00    +0.000 C 
ATOM      6  C   UNL     1       2.722   4.816  19.732  0.00  0.00    +0.000 C 
ATOM      7  C   UNL     1       2.537   5.100  21.143  0.00  0.00    +0.000 C 
ATOM      8  C   UNL     1       1.517   5.959  21.263  0.00  0.00    +0.000 C 
ATOM      9  C   UNL     1       1.673   7.324  20.570  0.00  0.00    +0.000 C 
ATOM     10  C   UNL     1       0.265   7.926  20.563  0.00  0.00    +0.000 C 
ATOM     11  C   UNL     1       2.586   7.315  19.216  0.00  0.00    +0.000 C 
ATOM     12  C   UNL     1       3.409   5.943  19.009  0.00  0.00    +0.000 C 
ENDROOT
BRANCH   1  13
ATOM     13  O   UNL     1       5.322   4.888  18.081  0.00  0.00    +0.000 OA
BRANCH  13  14
ATOM     14  C   UNL     1       6.401   5.004  17.255  0.00  0.00    +0.000 C 
ATOM     15  O   UNL     1       6.467   4.556  16.124  0.00  0.00    +0.000 OA
BRANCH  14  17
ATOM     16  C   UNL     1       7.437   7.309  17.545  0.00  0.00    +0.000 C 
ATOM     17  C   UNL     1       7.509   5.835  17.918  0.00  0.00    +0.000 C 
ATOM     18  C   UNL     1       7.451   5.708  19.441  0.00  0.00    +0.000 C 
ENDBRANCH  14  17
ENDBRANCH  13  14
ENDBRANCH   1  13
BRANCH  11  19
ATOM     19  C   UNL     1       2.084   8.077  17.942  0.00  0.00    +0.000 C 
BRANCH  19  20
ATOM     20  C   UNL     1       2.403   9.608  17.983  0.00  0.00    +0.000 C 
BRANCH  20  21
ATOM     21  C   UNL     1       1.205  10.592  18.075  0.00  0.00    +0.000 C 
ATOM     22  C   UNL     1       1.082  11.322  19.401  0.00  0.00    +0.000 C 
ATOM     23  C   UNL     1      -0.237  12.076  19.468  0.00  0.00    +0.000 C 
ATOM     24  C   UNL     1      -1.403  11.132  19.269  0.00  0.00    +0.000 C 
ATOM     25  C   UNL     1      -1.243  10.209  18.096  0.00  0.00    +0.000 C 
ATOM     26  O   UNL     1      -2.225   9.697  17.560  0.00  0.00    +0.000 OA
ATOM     27  O   UNL     1       0.004   9.872  17.709  0.00  0.00    +0.000 OA
BRANCH  23  28
ATOM     28  O   UNL     1      -0.262  13.159  18.541  0.00  0.00    +0.000 OA
ATOM     29  H   UNL     1       0.076  13.972  18.958  0.00  0.00    +0.000 HD
ENDBRANCH  23  28
ENDBRANCH  20  21
ENDBRANCH  19  20
ENDBRANCH  11  19
TORSDOF 7
ENDMDL
MODEL 8
REMARK VINA RESULT:      -6.8      2.040      3.360
REMARK  Name = 
REMARK  11 active torsions:
REMARK  status: ('A' for Active; 'I' for Inactive)
REMARK    1  A    between atoms: C_1  and  C_2
REMARK    2  A    between atoms: C_2  and  C_3
REMARK    3  A    between atoms: C_2  and  C_4
REMARK    4  A    between atoms: C_4  and  O_6
REMARK    5  A    between atoms: O_6  and  C_7
REMARK    6  A    between atoms: C_9  and  C_10
REMARK    7  A    between atoms: C_15  and  C_16
REMARK    8  A    between atoms: C_17  and  C_18
REMARK    9  A    between atoms: C_18  and  C_19
REMARK   10  A    between atoms: C_19  and  C_20
REMARK   11  A    between atoms: C_22  and  O_23
REMARK                            x       y       z     vdW  Elec       q    Type
REMARK                         _______ _______ _______ _____ _____    ______ ____
ROOT
ATOM      1  C   UNL     1       5.371   6.721  16.487  0.00  0.00    +0.000 C 
ATOM      2  C   UNL     1       5.282   5.929  15.156  0.00  0.00    +0.000 C 
ATOM      3  C   UNL     1       5.089   4.400  15.224  0.00  0.00    +0.000 C 
ATOM      4  C   UNL     1       6.069   3.644  14.318  0.00  0.00    +0.000 C 
ATOM      5  C   UNL     1       5.228   3.808  16.585  0.00  0.00    +0.000 C 
ATOM      6  C   UNL     1       5.220   4.525  17.708  0.00  0.00    +0.000 C 
ATOM      7  C   UNL     1       5.257   3.891  19.013  0.00  0.00    +0.000 C 
ATOM      8  C   UNL     1       3.997   3.747  19.439  0.00  0.00    +0.000 C 
ATOM      9  C   UNL     1       3.170   5.032  19.613  0.00  0.00    +0.000 C 
ATOM     10  C   UNL     1       1.720   4.555  19.746  0.00  0.00    +0.000 C 
ATOM     11  C   UNL     1       3.559   6.251  18.598  0.00  0.00    +0.000 C 
ATOM     12  C   UNL     1       4.937   6.000  17.797  0.00  0.00    +0.000 C 
ENDROOT
BRANCH   1  13
ATOM     13  O   UNL     1       6.811   6.966  16.707  0.00  0.00    +0.000 OA
BRANCH  13  14
ATOM     14  C   UNL     1       7.215   8.079  17.382  0.00  0.00    +0.000 C 
ATOM     15  O   UNL     1       6.658   9.162  17.341  0.00  0.00    +0.000 OA
BRANCH  14  17
ATOM     16  C   UNL     1       8.855   8.962  19.114  0.00  0.00    +0.000 C 
ATOM     17  C   UNL     1       8.438   7.774  18.259  0.00  0.00    +0.000 C 
ATOM     18  C   UNL     1       8.170   6.578  19.174  0.00  0.00    +0.000 C 
ENDBRANCH  14  17
ENDBRANCH  13  14
ENDBRANCH   1  13
BRANCH  11  19
ATOM     19  C   UNL     1       2.419   7.048  17.877  0.00  0.00    +0.000 C 
BRANCH  19  20
ATOM     20  C   UNL     1       2.690   8.588  17.827  0.00  0.00    +0.000 C 
BRANCH  20  21
ATOM     21  C   UNL     1       1.542   9.538  18.264  0.00  0.00    +0.000 C 
ATOM     22  C   UNL     1       1.895  11.015  18.243  0.00  0.00    +0.000 C 
ATOM     23  C   UNL     1       0.792  11.830  18.901  0.00  0.00    +0.000 C 
ATOM     24  C   UNL     1       0.552  11.359  20.319  0.00  0.00    +0.000 C 
ATOM     25  C   UNL     1       0.422   9.870  20.450  0.00  0.00    +0.000 C 
ATOM     26  O   UNL     1      -0.167   9.372  21.408  0.00  0.00    +0.000 OA
ATOM     27  O   UNL     1       1.054   9.089  19.550  0.00  0.00    +0.000 OA
BRANCH  23  28
ATOM     28  O   UNL     1      -0.401  11.810  18.121  0.00  0.00    +0.000 OA
ATOM     29  H   UNL     1      -1.067  11.229  18.531  0.00  0.00    +0.000 HD
ENDBRANCH  23  28
ENDBRANCH  20  21
ENDBRANCH  19  20
ENDBRANCH  11  19
TORSDOF 7
ENDMDL
MODEL 9
REMARK VINA RESULT:      -6.8      3.424      8.754
REMARK  Name = 
REMARK  11 active torsions:
REMARK  status: ('A' for Active; 'I' for Inactive)
REMARK    1  A    between atoms: C_1  and  C_2
REMARK    2  A    between atoms: C_2  and  C_3
REMARK    3  A    between atoms: C_2  and  C_4
REMARK    4  A    between atoms: C_4  and  O_6
REMARK    5  A    between atoms: O_6  and  C_7
REMARK    6  A    between atoms: C_9  and  C_10
REMARK    7  A    between atoms: C_15  and  C_16
REMARK    8  A    between atoms: C_17  and  C_18
REMARK    9  A    between atoms: C_18  and  C_19
REMARK   10  A    between atoms: C_19  and  C_20
REMARK   11  A    between atoms: C_22  and  O_23
REMARK                            x       y       z     vdW  Elec       q    Type
REMARK                         _______ _______ _______ _____ _____    ______ ____
ROOT
ATOM      1  C   UNL     1      -0.125  11.901  18.743  0.00  0.00    +0.000 C 
ATOM      2  C   UNL     1       0.864  13.095  18.797  0.00  0.00    +0.000 C 
ATOM      3  C   UNL     1       0.968  13.902  20.108  0.00  0.00    +0.000 C 
ATOM      4  C   UNL     1       0.890  15.416  19.872  0.00  0.00    +0.000 C 
ATOM      5  C   UNL     1      -0.067  13.579  21.129  0.00  0.00    +0.000 C 
ATOM      6  C   UNL     1      -0.842  12.496  21.081  0.00  0.00    +0.000 C 
ATOM      7  C   UNL     1      -1.765  12.175  22.154  0.00  0.00    +0.000 C 
ATOM      8  C   UNL     1      -1.147  11.339  22.997  0.00  0.00    +0.000 C 
ATOM      9  C   UNL     1      -0.678   9.992  22.420  0.00  0.00    +0.000 C 
ATOM     10  C   UNL     1       0.283   9.426  23.471  0.00  0.00    +0.000 C 
ATOM     11  C   UNL     1      -0.267  10.018  20.840  0.00  0.00    +0.000 C 
ATOM     12  C   UNL     1      -0.710  11.375  20.087  0.00  0.00    +0.000 C 
ENDROOT
BRANCH   1  13
ATOM     13  O   UNL     1      -1.321  12.409  18.039  0.00  0.00    +0.000 OA
BRANCH  13  14
ATOM     14  C   UNL     1      -2.482  11.695  18.072  0.00  0.00    +0.000 C 
ATOM     15  O   UNL     1      -3.472  12.001  18.713  0.00  0.00    +0.000 OA
BRANCH  14  17
ATOM     16  C   UNL     1      -3.334   9.352  17.568  0.00  0.00    +0.000 C 
ATOM     17  C   UNL     1      -2.402  10.477  17.141  0.00  0.00    +0.000 C 
ATOM     18  C   UNL     1      -2.731  10.869  15.700  0.00  0.00    +0.000 C 
ENDBRANCH  14  17
ENDBRANCH  13  14
ENDBRANCH   1  13
BRANCH  11  19
ATOM     19  C   UNL     1       1.049   9.308  20.372  0.00  0.00    +0.000 C 
BRANCH  19  20
ATOM     20  C   UNL     1       1.193   7.858  20.941  0.00  0.00    +0.000 C 
BRANCH  20  21
ATOM     21  C   UNL     1       2.116   6.870  20.174  0.00  0.00    +0.000 C 
ATOM     22  C   UNL     1       2.404   7.256  18.734  0.00  0.00    +0.000 C 
ATOM     23  C   UNL     1       3.116   6.119  18.017  0.00  0.00    +0.000 C 
ATOM     24  C   UNL     1       2.292   4.852  18.075  0.00  0.00    +0.000 C 
ATOM     25  C   UNL     1       1.773   4.527  19.445  0.00  0.00    +0.000 C 
ATOM     26  O   UNL     1       1.462   3.375  19.744  0.00  0.00    +0.000 OA
ATOM     27  O   UNL     1       1.557   5.542  20.307  0.00  0.00    +0.000 OA
BRANCH  23  28
ATOM     28  O   UNL     1       4.432   5.927  18.531  0.00  0.00    +0.000 OA
ATOM     29  H   UNL     1       5.041   6.594  18.167  0.00  0.00    +0.000 HD
ENDBRANCH  23  28
ENDBRANCH  20  21
ENDBRANCH  19  20
ENDBRANCH  11  19
TORSDOF 7
ENDMDL
