MODEL 1
REMARK VINA RESULT:      -9.6      0.000      0.000
REMARK  Name = 
REMARK  3 active torsions:
REMARK  status: ('A' for Active; 'I' for Inactive)
REMARK    1  A    between atoms: C_5  and  C_6
REMARK    2  A    between atoms: C_17  and  C_18
REMARK    3  A    between atoms: C_19  and  C_20
REMARK                            x       y       z     vdW  Elec       q    Type
REMARK                         _______ _______ _______ _____ _____    ______ ____
ROOT
ATOM      1  C   UNL     1       5.068   4.623  17.906  0.00  0.00    +0.000 A 
ATOM      2  C   UNL     1       5.070   4.146  16.643  0.00  0.00    +0.000 A 
ATOM      3  N   UNL     1       5.987   4.647  15.742  0.00  0.00    +0.000 N 
ATOM      4  C   UNL     1       6.868   5.625  16.118  0.00  0.00    +0.000 A 
ATOM      5  N   UNL     1       7.669   5.986  15.138  0.00  0.00    +0.000 NA
ATOM      6  C   UNL     1       7.288   5.196  14.077  0.00  0.00    +0.000 A 
ATOM      7  C   UNL     1       7.802   5.148  12.773  0.00  0.00    +0.000 A 
ATOM      8  C   UNL     1       7.246   4.245  11.858  0.00  0.00    +0.000 A 
ATOM      9  C   UNL     1       6.197   3.402  12.231  0.00  0.00    +0.000 A 
ATOM     10  C   UNL     1       5.668   3.433  13.526  0.00  0.00    +0.000 A 
ATOM     11  C   UNL     1       6.237   4.345  14.425  0.00  0.00    +0.000 A 
ATOM     12  C   UNL     1       6.810   6.117  17.478  0.00  0.00    +0.000 A 
ATOM     13  N   UNL     1       5.939   5.628  18.327  0.00  0.00    +0.000 NA
ENDROOT
BRANCH   1  18
ATOM     14 CL   UNL     1       1.134   2.535  21.965  0.00  0.00    +0.000 Cl
ATOM     15  C   UNL     1       2.256   3.125  20.802  0.00  0.00    +0.000 A 
ATOM     16  C   UNL     1       2.935   2.230  19.981  0.00  0.00    +0.000 A 
ATOM     17  C   UNL     1       3.854   2.710  19.041  0.00  0.00    +0.000 A 
ATOM     18  C   UNL     1       4.093   4.089  18.896  0.00  0.00    +0.000 A 
ATOM     19  C   UNL     1       3.403   4.970  19.745  0.00  0.00    +0.000 A 
ATOM     20  C   UNL     1       2.488   4.493  20.692  0.00  0.00    +0.000 A 
ENDBRANCH   1  18
BRANCH  12  21
ATOM     21  C   UNL     1       7.774   7.188  17.862  0.00  0.00    +0.000 C 
ATOM     22  C   UNL     1       7.439   8.485  17.811  0.00  0.00    +0.000 C 
BRANCH  22  23
ATOM     23  C   UNL     1       8.374   9.494  18.185  0.00  0.00    +0.000 A 
ATOM     24  C   UNL     1       8.648  10.701  17.552  0.00  0.00    +0.000 A 
ATOM     25  C   UNL     1       9.649  11.369  18.296  0.00  0.00    +0.000 A 
ATOM     26  C   UNL     1       9.943  10.544  19.350  0.00  0.00    +0.000 A 
ATOM     27  O   UNL     1       9.188   9.421  19.295  0.00  0.00    +0.000 OA
ENDBRANCH  22  23
ENDBRANCH  12  21
TORSDOF 3
ENDMDL
MODEL 2
REMARK VINA RESULT:      -8.0      4.158      7.229
REMARK  Name = 
REMARK  3 active torsions:
REMARK  status: ('A' for Active; 'I' for Inactive)
REMARK    1  A    between atoms: C_5  and  C_6
REMARK    2  A    between atoms: C_17  and  C_18
REMARK    3  A    between atoms: C_19  and  C_20
REMARK                            x       y       z     vdW  Elec       q    Type
REMARK                         _______ _______ _______ _____ _____    ______ ____
ROOT
ATOM      1  C   UNL     1       2.485   8.045  18.480  0.00  0.00    +0.000 A 
ATOM      2  C   UNL     1       2.194   7.095  19.395  0.00  0.00    +0.000 A 
ATOM      3  N   UNL     1       2.829   5.873  19.312  0.00  0.00    +0.000 N 
ATOM      4  C   UNL     1       3.726   5.622  18.308  0.00  0.00    +0.000 A 
ATOM      5  N   UNL     1       4.235   4.411  18.378  0.00  0.00    +0.000 NA
ATOM      6  C   UNL     1       3.641   3.855  19.489  0.00  0.00    +0.000 A 
ATOM      7  C   UNL     1       3.814   2.579  20.046  0.00  0.00    +0.000 A 
ATOM      8  C   UNL     1       3.093   2.239  21.198  0.00  0.00    +0.000 A 
ATOM      9  C   UNL     1       2.215   3.151  21.788  0.00  0.00    +0.000 A 
ATOM     10  C   UNL     1       2.027   4.428  21.250  0.00  0.00    +0.000 A 
ATOM     11  C   UNL     1       2.756   4.747  20.097  0.00  0.00    +0.000 A 
ATOM     12  C   UNL     1       3.985   6.667  17.341  0.00  0.00    +0.000 A 
ATOM     13  N   UNL     1       3.380   7.827  17.434  0.00  0.00    +0.000 NA
ENDROOT
BRANCH   1  18
ATOM     14 CL   UNL     1      -0.295  13.383  18.795  0.00  0.00    +0.000 Cl
ATOM     15  C   UNL     1       0.505  11.862  18.705  0.00  0.00    +0.000 A 
ATOM     16  C   UNL     1       1.785  11.786  18.167  0.00  0.00    +0.000 A 
ATOM     17  C   UNL     1       2.433  10.548  18.087  0.00  0.00    +0.000 A 
ATOM     18  C   UNL     1       1.818   9.374  18.558  0.00  0.00    +0.000 A 
ATOM     19  C   UNL     1       0.521   9.477  19.086  0.00  0.00    +0.000 A 
ATOM     20  C   UNL     1      -0.133  10.713  19.162  0.00  0.00    +0.000 A 
ENDBRANCH   1  18
BRANCH  12  21
ATOM     21  C   UNL     1       4.958   6.367  16.252  0.00  0.00    +0.000 C 
ATOM     22  C   UNL     1       4.982   5.175  15.639  0.00  0.00    +0.000 C 
BRANCH  22  23
ATOM     23  C   UNL     1       5.918   4.909  14.598  0.00  0.00    +0.000 A 
ATOM     24  C   UNL     1       5.838   3.966  13.580  0.00  0.00    +0.000 A 
ATOM     25  C   UNL     1       7.004   4.080  12.785  0.00  0.00    +0.000 A 
ATOM     26  C   UNL     1       7.743   5.085  13.350  0.00  0.00    +0.000 A 
ATOM     27  O   UNL     1       7.106   5.589  14.433  0.00  0.00    +0.000 OA
ENDBRANCH  22  23
ENDBRANCH  12  21
TORSDOF 3
ENDMDL
MODEL 3
REMARK VINA RESULT:      -7.7      2.810      6.034
REMARK  Name = 
REMARK  3 active torsions:
REMARK  status: ('A' for Active; 'I' for Inactive)
REMARK    1  A    between atoms: C_5  and  C_6
REMARK    2  A    between atoms: C_17  and  C_18
REMARK    3  A    between atoms: C_19  and  C_20
REMARK                            x       y       z     vdW  Elec       q    Type
REMARK                         _______ _______ _______ _____ _____    ______ ____
ROOT
ATOM      1  C   UNL     1       5.456   4.885  15.572  0.00  0.00    +0.000 A 
ATOM      2  C   UNL     1       4.417   4.322  16.225  0.00  0.00    +0.000 A 
ATOM      3  N   UNL     1       3.991   4.884  17.411  0.00  0.00    +0.000 N 
ATOM      4  C   UNL     1       4.624   5.985  17.925  0.00  0.00    +0.000 A 
ATOM      5  N   UNL     1       4.091   6.389  19.059  0.00  0.00    +0.000 NA
ATOM      6  C   UNL     1       3.057   5.508  19.283  0.00  0.00    +0.000 A 
ATOM      7  C   UNL     1       2.141   5.463  20.344  0.00  0.00    +0.000 A 
ATOM      8  C   UNL     1       1.162   4.461  20.351  0.00  0.00    +0.000 A 
ATOM      9  C   UNL     1       1.092   3.520  19.322  0.00  0.00    +0.000 A 
ATOM     10  C   UNL     1       1.995   3.546  18.254  0.00  0.00    +0.000 A 
ATOM     11  C   UNL     1       2.968   4.555  18.267  0.00  0.00    +0.000 A 
ATOM     12  C   UNL     1       5.746   6.536  17.196  0.00  0.00    +0.000 A 
ATOM     13  N   UNL     1       6.137   5.996  16.066  0.00  0.00    +0.000 NA
ENDROOT
BRANCH   1  18
ATOM     14 CL   UNL     1       7.407   2.585  10.355  0.00  0.00    +0.000 Cl
ATOM     15  C   UNL     1       6.846   3.236  11.845  0.00  0.00    +0.000 A 
ATOM     16  C   UNL     1       5.588   2.883  12.322  0.00  0.00    +0.000 A 
ATOM     17  C   UNL     1       5.128   3.418  13.531  0.00  0.00    +0.000 A 
ATOM     18  C   UNL     1       5.924   4.299  14.285  0.00  0.00    +0.000 A 
ATOM     19  C   UNL     1       7.185   4.648  13.775  0.00  0.00    +0.000 A 
ATOM     20  C   UNL     1       7.646   4.120  12.563  0.00  0.00    +0.000 A 
ENDBRANCH   1  18
BRANCH  12  21
ATOM     21  C   UNL     1       6.425   7.728  17.780  0.00  0.00    +0.000 C 
ATOM     22  C   UNL     1       7.703   8.018  17.497  0.00  0.00    +0.000 C 
BRANCH  22  23
ATOM     23  C   UNL     1       8.332   9.164  18.063  0.00  0.00    +0.000 A 
ATOM     24  C   UNL     1       8.359  10.467  17.579  0.00  0.00    +0.000 A 
ATOM     25  C   UNL     1       9.104  11.257  18.487  0.00  0.00    +0.000 A 
ATOM     26  C   UNL     1       9.500  10.405  19.484  0.00  0.00    +0.000 A 
ATOM     27  O   UNL     1       9.045   9.152  19.243  0.00  0.00    +0.000 OA
ENDBRANCH  22  23
ENDBRANCH  12  21
TORSDOF 3
ENDMDL
MODEL 4
REMARK VINA RESULT:      -7.4      8.511     11.158
REMARK  Name = 
REMARK  3 active torsions:
REMARK  status: ('A' for Active; 'I' for Inactive)
REMARK    1  A    between atoms: C_5  and  C_6
REMARK    2  A    between atoms: C_17  and  C_18
REMARK    3  A    between atoms: C_19  and  C_20
REMARK                            x       y       z     vdW  Elec       q    Type
REMARK                         _______ _______ _______ _____ _____    ______ ____
ROOT
ATOM      1  C   UNL     1       0.866  10.493  18.873  0.00  0.00    +0.000 A 
ATOM      2  C   UNL     1       1.638  11.598  18.812  0.00  0.00    +0.000 A 
ATOM      3  N   UNL     1       1.031  12.837  18.781  0.00  0.00    +0.000 N 
ATOM      4  C   UNL     1      -0.335  12.941  18.795  0.00  0.00    +0.000 A 
ATOM      5  N   UNL     1      -0.745  14.191  18.760  0.00  0.00    +0.000 NA
ATOM      6  C   UNL     1       0.416  14.931  18.730  0.00  0.00    +0.000 A 
ATOM      7  C   UNL     1       0.584  16.323  18.692  0.00  0.00    +0.000 A 
ATOM      8  C   UNL     1       1.882  16.848  18.671  0.00  0.00    +0.000 A 
ATOM      9  C   UNL     1       2.996  16.006  18.688  0.00  0.00    +0.000 A 
ATOM     10  C   UNL     1       2.852  14.616  18.726  0.00  0.00    +0.000 A 
ATOM     11  C   UNL     1       1.545  14.110  18.744  0.00  0.00    +0.000 A 
ATOM     12  C   UNL     1      -1.117  11.724  18.839  0.00  0.00    +0.000 A 
ATOM     13  N   UNL     1      -0.528  10.553  18.874  0.00  0.00    +0.000 NA
ENDROOT
BRANCH   1  18
ATOM     14 CL   UNL     1       3.450   5.056  19.141  0.00  0.00    +0.000 Cl
ATOM     15  C   UNL     1       2.712   6.607  19.058  0.00  0.00    +0.000 A 
ATOM     16  C   UNL     1       2.783   7.344  17.880  0.00  0.00    +0.000 A 
ATOM     17  C   UNL     1       2.189   8.609  17.814  0.00  0.00    +0.000 A 
ATOM     18  C   UNL     1       1.502   9.148  18.917  0.00  0.00    +0.000 A 
ATOM     19  C   UNL     1       1.454   8.389  20.098  0.00  0.00    +0.000 A 
ATOM     20  C   UNL     1       2.053   7.125  20.170  0.00  0.00    +0.000 A 
ENDBRANCH   1  18
BRANCH  12  21
ATOM     21  C   UNL     1      -2.602  11.863  18.843  0.00  0.00    +0.000 C 
ATOM     22  C   UNL     1      -3.351  11.433  17.818  0.00  0.00    +0.000 C 
BRANCH  22  23
ATOM     23  C   UNL     1      -4.768  11.572  17.843  0.00  0.00    +0.000 A 
ATOM     24  C   UNL     1      -5.700  10.833  18.563  0.00  0.00    +0.000 A 
ATOM     25  C   UNL     1      -6.987  11.342  18.267  0.00  0.00    +0.000 A 
ATOM     26  C   UNL     1      -6.787  12.368  17.381  0.00  0.00    +0.000 A 
ATOM     27  O   UNL     1      -5.467  12.516  17.119  0.00  0.00    +0.000 OA
ENDBRANCH  22  23
ENDBRANCH  12  21
TORSDOF 3
ENDMDL
MODEL 5
REMARK VINA RESULT:      -7.4      4.106      7.148
REMARK  Name = 
REMARK  3 active torsions:
REMARK  status: ('A' for Active; 'I' for Inactive)
REMARK    1  A    between atoms: C_5  and  C_6
REMARK    2  A    between atoms: C_17  and  C_18
REMARK    3  A    between atoms: C_19  and  C_20
REMARK                            x       y       z     vdW  Elec       q    Type
REMARK                         _______ _______ _______ _____ _____    ______ ____
ROOT
ATOM      1  C   UNL     1       4.635   5.100  16.386  0.00  0.00    +0.000 A 
ATOM      2  C   UNL     1       4.236   4.108  17.210  0.00  0.00    +0.000 A 
ATOM      3  N   UNL     1       3.503   4.429  18.334  0.00  0.00    +0.000 N 
ATOM      4  C   UNL     1       3.201   5.734  18.618  0.00  0.00    +0.000 A 
ATOM      5  N   UNL     1       2.499   5.860  19.724  0.00  0.00    +0.000 NA
ATOM      6  C   UNL     1       2.334   4.569  20.172  0.00  0.00    +0.000 A 
ATOM      7  C   UNL     1       1.659   4.101  21.310  0.00  0.00    +0.000 A 
ATOM      8  C   UNL     1       1.623   2.723  21.557  0.00  0.00    +0.000 A 
ATOM      9  C   UNL     1       2.247   1.823  20.690  0.00  0.00    +0.000 A 
ATOM     10  C   UNL     1       2.925   2.267  19.550  0.00  0.00    +0.000 A 
ATOM     11  C   UNL     1       2.950   3.649  19.322  0.00  0.00    +0.000 A 
ATOM     12  C   UNL     1       3.671   6.761  17.713  0.00  0.00    +0.000 A 
ATOM     13  N   UNL     1       4.362   6.443  16.645  0.00  0.00    +0.000 NA
ENDROOT
BRANCH   1  18
ATOM     14 CL   UNL     1       7.758   3.706  11.425  0.00  0.00    +0.000 Cl
ATOM     15  C   UNL     1       6.871   4.110  12.842  0.00  0.00    +0.000 A 
ATOM     16  C   UNL     1       7.449   4.924  13.810  0.00  0.00    +0.000 A 
ATOM     17  C   UNL     1       6.730   5.247  14.966  0.00  0.00    +0.000 A 
ATOM     18  C   UNL     1       5.419   4.774  15.163  0.00  0.00    +0.000 A 
ATOM     19  C   UNL     1       4.863   3.944  14.176  0.00  0.00    +0.000 A 
ATOM     20  C   UNL     1       5.582   3.614  13.021  0.00  0.00    +0.000 A 
ENDBRANCH   1  18
BRANCH  12  21
ATOM     21  C   UNL     1       3.338   8.175  18.048  0.00  0.00    +0.000 C 
ATOM     22  C   UNL     1       2.129   8.693  17.787  0.00  0.00    +0.000 C 
BRANCH  22  23
ATOM     23  C   UNL     1       1.829  10.046  18.117  0.00  0.00    +0.000 A 
ATOM     24  C   UNL     1       0.715  10.551  18.780  0.00  0.00    +0.000 A 
ATOM     25  C   UNL     1       0.865  11.955  18.880  0.00  0.00    +0.000 A 
ATOM     26  C   UNL     1       2.059  12.247  18.276  0.00  0.00    +0.000 A 
ATOM     27  O   UNL     1       2.645  11.115  17.817  0.00  0.00    +0.000 OA
ENDBRANCH  22  23
ENDBRANCH  12  21
TORSDOF 3
ENDMDL
MODEL 6
REMARK VINA RESULT:      -7.2      8.027     10.364
REMARK  Name = 
REMARK  3 active torsions:
REMARK  status: ('A' for Active; 'I' for Inactive)
REMARK    1  A    between atoms: C_5  and  C_6
REMARK    2  A    between atoms: C_17  and  C_18
REMARK    3  A    between atoms: C_19  and  C_20
REMARK                            x       y       z     vdW  Elec       q    Type
REMARK                         _______ _______ _______ _____ _____    ______ ____
ROOT
ATOM      1  C   UNL     1      -1.486  11.961  18.784  0.00  0.00    +0.000 A 
ATOM      2  C   UNL     1      -0.838  13.143  18.852  0.00  0.00    +0.000 A 
ATOM      3  N   UNL     1       0.528  13.167  18.659  0.00  0.00    +0.000 N 
ATOM      4  C   UNL     1       1.216  12.008  18.419  0.00  0.00    +0.000 A 
ATOM      5  N   UNL     1       2.507  12.211  18.260  0.00  0.00    +0.000 NA
ATOM      6  C   UNL     1       2.657  13.573  18.396  0.00  0.00    +0.000 A 
ATOM      7  C   UNL     1       3.820  14.352  18.316  0.00  0.00    +0.000 A 
ATOM      8  C   UNL     1       3.720  15.739  18.488  0.00  0.00    +0.000 A 
ATOM      9  C   UNL     1       2.484  16.343  18.734  0.00  0.00    +0.000 A 
ATOM     10  C   UNL     1       1.312  15.585  18.818  0.00  0.00    +0.000 A 
ATOM     11  C   UNL     1       1.434  14.200  18.645  0.00  0.00    +0.000 A 
ATOM     12  C   UNL     1       0.476  10.764  18.378  0.00  0.00    +0.000 A 
ATOM     13  N   UNL     1      -0.823  10.755  18.557  0.00  0.00    +0.000 NA
ENDROOT
BRANCH   1  18
ATOM     14 CL   UNL     1      -7.468  11.759  19.489  0.00  0.00    +0.000 Cl
ATOM     15  C   UNL     1      -5.760  11.818  19.294  0.00  0.00    +0.000 A 
ATOM     16  C   UNL     1      -4.986  12.533  20.203  0.00  0.00    +0.000 A 
ATOM     17  C   UNL     1      -3.597  12.587  20.040  0.00  0.00    +0.000 A 
ATOM     18  C   UNL     1      -2.962  11.915  18.980  0.00  0.00    +0.000 A 
ATOM     19  C   UNL     1      -3.767  11.210  18.071  0.00  0.00    +0.000 A 
ATOM     20  C   UNL     1      -5.158  11.159  18.226  0.00  0.00    +0.000 A 
ENDBRANCH   1  18
BRANCH  12  21
ATOM     21  C   UNL     1       1.249   9.514  18.125  0.00  0.00    +0.000 C 
ATOM     22  C   UNL     1       1.685   8.743  19.131  0.00  0.00    +0.000 C 
BRANCH  22  23
ATOM     23  C   UNL     1       2.419   7.550  18.868  0.00  0.00    +0.000 A 
ATOM     24  C   UNL     1       3.285   7.279  17.814  0.00  0.00    +0.000 A 
ATOM     25  C   UNL     1       3.780   5.963  17.981  0.00  0.00    +0.000 A 
ATOM     26  C   UNL     1       3.196   5.488  19.126  0.00  0.00    +0.000 A 
ATOM     27  O   UNL     1       2.382   6.426  19.665  0.00  0.00    +0.000 OA
ENDBRANCH  22  23
ENDBRANCH  12  21
TORSDOF 3
ENDMDL
MODEL 7
REMARK VINA RESULT:      -7.2      8.383     11.014
REMARK  Name = 
REMARK  3 active torsions:
REMARK  status: ('A' for Active; 'I' for Inactive)
REMARK    1  A    between atoms: C_5  and  C_6
REMARK    2  A    between atoms: C_17  and  C_18
REMARK    3  A    between atoms: C_19  and  C_20
REMARK                            x       y       z     vdW  Elec       q    Type
REMARK                         _______ _______ _______ _____ _____    ______ ____
ROOT
ATOM      1  C   UNL     1       0.970  10.688  19.379  0.00  0.00    +0.000 A 
ATOM      2  C   UNL     1       1.673  11.723  18.873  0.00  0.00    +0.000 A 
ATOM      3  N   UNL     1       1.186  13.003  19.035  0.00  0.00    +0.000 N 
ATOM      4  C   UNL     1      -0.000  13.218  19.685  0.00  0.00    +0.000 A 
ATOM      5  N   UNL     1      -0.315  14.495  19.749  0.00  0.00    +0.000 NA
ATOM      6  C   UNL     1       0.725  15.136  19.116  0.00  0.00    +0.000 A 
ATOM      7  C   UNL     1       0.923  16.507  18.894  0.00  0.00    +0.000 A 
ATOM      8  C   UNL     1       2.078  16.924  18.220  0.00  0.00    +0.000 A 
ATOM      9  C   UNL     1       3.022  15.996  17.774  0.00  0.00    +0.000 A 
ATOM     10  C   UNL     1       2.845  14.625  17.985  0.00  0.00    +0.000 A 
ATOM     11  C   UNL     1       1.683  14.228  18.659  0.00  0.00    +0.000 A 
ATOM     12  C   UNL     1      -0.726  12.072  20.189  0.00  0.00    +0.000 A 
ATOM     13  N   UNL     1      -0.249  10.860  20.034  0.00  0.00    +0.000 NA
ENDROOT
BRANCH   1  18
ATOM     14 CL   UNL     1       3.063   5.063  18.834  0.00  0.00    +0.000 Cl
ATOM     15  C   UNL     1       2.464   6.669  18.983  0.00  0.00    +0.000 A 
ATOM     16  C   UNL     1       2.499   7.523  17.885  0.00  0.00    +0.000 A 
ATOM     17  C   UNL     1       2.019   8.832  18.008  0.00  0.00    +0.000 A 
ATOM     18  C   UNL     1       1.483   9.299  19.222  0.00  0.00    +0.000 A 
ATOM     19  C   UNL     1       1.470   8.420  20.318  0.00  0.00    +0.000 A 
ATOM     20  C   UNL     1       1.956   7.112  20.201  0.00  0.00    +0.000 A 
ENDBRANCH   1  18
BRANCH  12  21
ATOM     21  C   UNL     1      -2.019  12.331  20.884  0.00  0.00    +0.000 C 
ATOM     22  C   UNL     1      -2.148  12.177  22.210  0.00  0.00    +0.000 C 
BRANCH  22  23
ATOM     23  C   UNL     1      -3.392  12.432  22.856  0.00  0.00    +0.000 A 
ATOM     24  C   UNL     1      -4.496  13.124  22.370  0.00  0.00    +0.000 A 
ATOM     25  C   UNL     1      -5.496  13.112  23.371  0.00  0.00    +0.000 A 
ATOM     26  C   UNL     1      -4.963  12.415  24.422  0.00  0.00    +0.000 A 
ATOM     27  O   UNL     1      -3.707  12.003  24.127  0.00  0.00    +0.000 OA
ENDBRANCH  22  23
ENDBRANCH  12  21
TORSDOF 3
ENDMDL
MODEL 8
REMARK VINA RESULT:      -7.1      8.448     11.088
REMARK  Name = 
REMARK  3 active torsions:
REMARK  status: ('A' for Active; 'I' for Inactive)
REMARK    1  A    between atoms: C_5  and  C_6
REMARK    2  A    between atoms: C_17  and  C_18
REMARK    3  A    between atoms: C_19  and  C_20
REMARK                            x       y       z     vdW  Elec       q    Type
REMARK                         _______ _______ _______ _____ _____    ______ ____
ROOT
ATOM      1  C   UNL     1       0.993  10.755  19.315  0.00  0.00    +0.000 A 
ATOM      2  C   UNL     1       1.700  11.798  18.833  0.00  0.00    +0.000 A 
ATOM      3  N   UNL     1       1.191  13.073  18.978  0.00  0.00    +0.000 N 
ATOM      4  C   UNL     1      -0.018  13.273  19.588  0.00  0.00    +0.000 A 
ATOM      5  N   UNL     1      -0.352  14.545  19.642  0.00  0.00    +0.000 NA
ATOM      6  C   UNL     1       0.701  15.199  19.043  0.00  0.00    +0.000 A 
ATOM      7  C   UNL     1       0.889  16.573  18.827  0.00  0.00    +0.000 A 
ATOM      8  C   UNL     1       2.060  17.005  18.192  0.00  0.00    +0.000 A 
ATOM      9  C   UNL     1       3.030  16.089  17.779  0.00  0.00    +0.000 A 
ATOM     10  C   UNL     1       2.864  14.716  17.983  0.00  0.00    +0.000 A 
ATOM     11  C   UNL     1       1.685  14.304  18.619  0.00  0.00    +0.000 A 
ATOM     12  C   UNL     1      -0.746  12.117  20.068  0.00  0.00    +0.000 A 
ATOM     13  N   UNL     1      -0.249  10.912  19.929  0.00  0.00    +0.000 NA
ENDROOT
BRANCH   1  18
ATOM     14 CL   UNL     1       3.148   5.164  18.664  0.00  0.00    +0.000 Cl
ATOM     15  C   UNL     1       2.534   6.760  18.857  0.00  0.00    +0.000 A 
ATOM     16  C   UNL     1       2.012   7.155  20.084  0.00  0.00    +0.000 A 
ATOM     17  C   UNL     1       1.505   8.450  20.239  0.00  0.00    +0.000 A 
ATOM     18  C   UNL     1       1.529   9.372  19.176  0.00  0.00    +0.000 A 
ATOM     19  C   UNL     1       2.051   8.944  17.945  0.00  0.00    +0.000 A 
ATOM     20  C   UNL     1       2.553   7.647  17.784  0.00  0.00    +0.000 A 
ENDBRANCH   1  18
BRANCH  12  21
ATOM     21  C   UNL     1      -2.065  12.359  20.720  0.00  0.00    +0.000 C 
ATOM     22  C   UNL     1      -2.206  12.328  22.053  0.00  0.00    +0.000 C 
BRANCH  22  23
ATOM     23  C   UNL     1      -3.475  12.565  22.656  0.00  0.00    +0.000 A 
ATOM     24  C   UNL     1      -3.810  12.557  24.006  0.00  0.00    +0.000 A 
ATOM     25  C   UNL     1      -5.190  12.851  24.118  0.00  0.00    +0.000 A 
ATOM     26  C   UNL     1      -5.638  13.026  22.835  0.00  0.00    +0.000 A 
ATOM     27  O   UNL     1      -4.624  12.858  21.953  0.00  0.00    +0.000 OA
ENDBRANCH  22  23
ENDBRANCH  12  21
TORSDOF 3
ENDMDL
MODEL 9
REMARK VINA RESULT:      -7.0      8.138     10.399
REMARK  Name = 
REMARK  3 active torsions:
REMARK  status: ('A' for Active; 'I' for Inactive)
REMARK    1  A    between atoms: C_5  and  C_6
REMARK    2  A    between atoms: C_17  and  C_18
REMARK    3  A    between atoms: C_19  and  C_20
REMARK                            x       y       z     vdW  Elec       q    Type
REMARK                         _______ _______ _______ _____ _____    ______ ____
ROOT
ATOM      1  C   UNL     1      -1.498  12.082  18.961  0.00  0.00    +0.000 A 
ATOM      2  C   UNL     1      -0.893  13.282  18.835  0.00  0.00    +0.000 A 
ATOM      3  N   UNL     1       0.484  13.332  18.764  0.00  0.00    +0.000 N 
ATOM      4  C   UNL     1       1.225  12.183  18.838  0.00  0.00    +0.000 A 
ATOM      5  N   UNL     1       2.519  12.411  18.755  0.00  0.00    +0.000 NA
ATOM      6  C   UNL     1       2.616  13.777  18.613  0.00  0.00    +0.000 A 
ATOM      7  C   UNL     1       3.759  14.578  18.474  0.00  0.00    +0.000 A 
ATOM      8  C   UNL     1       3.602  15.964  18.338  0.00  0.00    +0.000 A 
ATOM      9  C   UNL     1       2.332  16.545  18.339  0.00  0.00    +0.000 A 
ATOM     10  C   UNL     1       1.179  15.765  18.476  0.00  0.00    +0.000 A 
ATOM     11  C   UNL     1       1.357  14.382  18.613  0.00  0.00    +0.000 A 
ATOM     12  C   UNL     1       0.529  10.924  18.995  0.00  0.00    +0.000 A 
ATOM     13  N   UNL     1      -0.781  10.889  19.055  0.00  0.00    +0.000 NA
ENDROOT
BRANCH   1  18
ATOM     14 CL   UNL     1      -7.506  11.790  19.328  0.00  0.00    +0.000 Cl
ATOM     15  C   UNL     1      -5.791  11.872  19.216  0.00  0.00    +0.000 A 
ATOM     16  C   UNL     1      -5.137  11.251  18.157  0.00  0.00    +0.000 A 
ATOM     17  C   UNL     1      -3.742  11.311  18.070  0.00  0.00    +0.000 A 
ATOM     18  C   UNL     1      -2.983  12.006  19.029  0.00  0.00    +0.000 A 
ATOM     19  C   UNL     1      -3.667  12.615  20.094  0.00  0.00    +0.000 A 
ATOM     20  C   UNL     1      -5.063  12.551  20.188  0.00  0.00    +0.000 A 
ENDBRANCH   1  18
BRANCH  12  21
ATOM     21  C   UNL     1       1.357   9.687  19.083  0.00  0.00    +0.000 C 
ATOM     22  C   UNL     1       1.741   9.019  17.986  0.00  0.00    +0.000 C 
BRANCH  22  23
ATOM     23  C   UNL     1       2.535   7.841  18.091  0.00  0.00    +0.000 A 
ATOM     24  C   UNL     1       3.651   7.478  17.345  0.00  0.00    +0.000 A 
ATOM     25  C   UNL     1       4.104   6.222  17.817  0.00  0.00    +0.000 A 
ATOM     26  C   UNL     1       3.248   5.873  18.827  0.00  0.00    +0.000 A 
ATOM     27  O   UNL     1       2.307   6.832  19.001  0.00  0.00    +0.000 OA
ENDBRANCH  22  23
ENDBRANCH  12  21
TORSDOF 3
ENDMDL
