MODEL 1
REMARK VINA RESULT:      -8.2      0.000      0.000
REMARK  Name = 
REMARK  8 active torsions:
REMARK  status: ('A' for Active; 'I' for Inactive)
REMARK    1  A    between atoms: N_1  and  C_2
REMARK    2  A    between atoms: C_2  and  C_3
REMARK    3  A    between atoms: C_3  and  C_4
REMARK    4  A    between atoms: C_4  and  C_5
REMARK    5  A    between atoms: C_5  and  N_6
REMARK    6  A    between atoms: N_6  and  C_7
REMARK    7  A    between atoms: N_6  and  C_18
REMARK    8  A    between atoms: C_7  and  C_8
REMARK                            x       y       z     vdW  Elec       q    Type
REMARK                         _______ _______ _______ _____ _____    ______ ____
ROOT
ATOM      1  N   UNL     1       4.188   4.150  18.775  0.00  0.00    +0.000 NA
ENDROOT
BRANCH   1   2
ATOM      2  C   UNL     1       5.652   4.308  18.470  0.00  0.00    +0.000 C 
ATOM      3  C   UNL     1       6.250   5.429  19.367  0.00  0.00    +0.000 C 
ATOM      4  C   UNL     1       7.674   5.783  18.959  0.00  0.00    +0.000 C 
ATOM      5  C   UNL     1       7.675   6.339  17.539  0.00  0.00    +0.000 C 
ATOM      6  C   UNL     1       6.938   5.459  16.569  0.00  0.00    +0.000 A 
ATOM      7  C   UNL     1       7.139   5.633  15.192  0.00  0.00    +0.000 A 
ATOM      8  C   UNL     1       6.487   4.813  14.280  0.00  0.00    +0.000 A 
ATOM      9  C   UNL     1       5.668   3.825  14.776  0.00  0.00    +0.000 A 
ATOM     10  N   UNL     1       5.432   3.646  16.090  0.00  0.00    +0.000 NA
ATOM     11  C   UNL     1       6.019   4.490  16.984  0.00  0.00    +0.000 A 
ENDBRANCH   1   2
BRANCH   1  12
ATOM     12  C   UNL     1       3.854   2.769  19.183  0.00  0.00    +0.000 C 
BRANCH  12  13
ATOM     13  C   UNL     1       2.837   1.999  18.329  0.00  0.00    +0.000 C 
BRANCH  13  14
ATOM     14  C   UNL     1       1.372   2.332  18.628  0.00  0.00    +0.000 C 
BRANCH  14  15
ATOM     15  C   UNL     1       1.204   2.575  20.130  0.00  0.00    +0.000 C 
BRANCH  15  16
ATOM     16  N   UNL     1       0.563   3.855  20.403  0.00  0.00    +0.000 NA
ATOM     17  H   UNL     1      -0.388   3.690  20.726  0.00  0.00    +0.000 HD
ATOM     18  H   UNL     1       0.486   4.393  19.540  0.00  0.00    +0.000 HD
ENDBRANCH  15  16
ENDBRANCH  14  15
ENDBRANCH  13  14
ENDBRANCH  12  13
ENDBRANCH   1  12
BRANCH   1  19
ATOM     19  C   UNL     1       3.696   5.129  19.780  0.00  0.00    +0.000 C 
BRANCH  19  20
ATOM     20  C   UNL     1       2.875   6.321  19.296  0.00  0.00    +0.000 A 
ATOM     21  C   UNL     1       3.102   6.845  18.025  0.00  0.00    +0.000 A 
ATOM     22  C   UNL     1       2.538   8.073  17.691  0.00  0.00    +0.000 A 
ATOM     23  C   UNL     1       1.770   8.761  18.634  0.00  0.00    +0.000 A 
ATOM     24  C   UNL     1       1.235  10.038  18.377  0.00  0.00    +0.000 A 
ATOM     25  C   UNL     1       0.510  10.705  19.365  0.00  0.00    +0.000 A 
ATOM     26  C   UNL     1       0.279  10.086  20.587  0.00  0.00    +0.000 A 
ATOM     27  C   UNL     1       0.789   8.807  20.826  0.00  0.00    +0.000 A 
ATOM     28  C   UNL     1       1.549   8.138  19.879  0.00  0.00    +0.000 A 
ATOM     29  N   UNL     1       2.083   6.950  20.201  0.00  0.00    +0.000 NA
ENDBRANCH  19  20
ENDBRANCH   1  19
TORSDOF 8
ENDMDL
MODEL 2
REMARK VINA RESULT:      -8.0      1.330      4.936
REMARK  Name = 
REMARK  8 active torsions:
REMARK  status: ('A' for Active; 'I' for Inactive)
REMARK    1  A    between atoms: N_1  and  C_2
REMARK    2  A    between atoms: C_2  and  C_3
REMARK    3  A    between atoms: C_3  and  C_4
REMARK    4  A    between atoms: C_4  and  C_5
REMARK    5  A    between atoms: C_5  and  N_6
REMARK    6  A    between atoms: N_6  and  C_7
REMARK    7  A    between atoms: N_6  and  C_18
REMARK    8  A    between atoms: C_7  and  C_8
REMARK                            x       y       z     vdW  Elec       q    Type
REMARK                         _______ _______ _______ _____ _____    ______ ____
ROOT
ATOM      1  N   UNL     1       4.706   5.473  18.946  0.00  0.00    +0.000 NA
ENDROOT
BRANCH   1   2
ATOM      2  C   UNL     1       4.312   4.028  18.810  0.00  0.00    +0.000 C 
ATOM      3  C   UNL     1       4.049   3.701  17.312  0.00  0.00    +0.000 C 
ATOM      4  C   UNL     1       3.442   2.316  17.132  0.00  0.00    +0.000 C 
ATOM      5  C   UNL     1       2.081   2.262  17.817  0.00  0.00    +0.000 C 
ATOM      6  C   UNL     1       2.122   2.756  19.236  0.00  0.00    +0.000 A 
ATOM      7  C   UNL     1       1.063   2.450  20.102  0.00  0.00    +0.000 A 
ATOM      8  C   UNL     1       1.094   2.876  21.424  0.00  0.00    +0.000 A 
ATOM      9  C   UNL     1       2.201   3.577  21.847  0.00  0.00    +0.000 A 
ATOM     10  N   UNL     1       3.223   3.909  21.036  0.00  0.00    +0.000 NA
ATOM     11  C   UNL     1       3.165   3.550  19.723  0.00  0.00    +0.000 A 
ENDBRANCH   1   2
BRANCH   1  12
ATOM     12  C   UNL     1       6.173   5.645  18.976  0.00  0.00    +0.000 C 
BRANCH  12  13
ATOM     13  C   UNL     1       6.891   5.870  17.638  0.00  0.00    +0.000 C 
BRANCH  13  14
ATOM     14  C   UNL     1       7.496   4.606  17.019  0.00  0.00    +0.000 C 
BRANCH  14  15
ATOM     15  C   UNL     1       7.071   4.506  15.552  0.00  0.00    +0.000 C 
BRANCH  15  16
ATOM     16  N   UNL     1       7.677   5.553  14.740  0.00  0.00    +0.000 NA
ATOM     17  H   UNL     1       8.687   5.429  14.734  0.00  0.00    +0.000 HD
ATOM     18  H   UNL     1       7.501   6.463  15.164  0.00  0.00    +0.000 HD
ENDBRANCH  15  16
ENDBRANCH  14  15
ENDBRANCH  13  14
ENDBRANCH  12  13
ENDBRANCH   1  12
BRANCH   1  19
ATOM     19  C   UNL     1       4.095   6.340  17.904  0.00  0.00    +0.000 C 
BRANCH  19  20
ATOM     20  C   UNL     1       2.958   7.275  18.307  0.00  0.00    +0.000 A 
ATOM     21  C   UNL     1       2.620   8.346  17.482  0.00  0.00    +0.000 A 
ATOM     22  C   UNL     1       1.765   9.330  17.969  0.00  0.00    +0.000 A 
ATOM     23  C   UNL     1       1.274   9.235  19.274  0.00  0.00    +0.000 A 
ATOM     24  C   UNL     1       0.465  10.236  19.845  0.00  0.00    +0.000 A 
ATOM     25  C   UNL     1       0.033  10.118  21.166  0.00  0.00    +0.000 A 
ATOM     26  C   UNL     1       0.366   8.988  21.902  0.00  0.00    +0.000 A 
ATOM     27  C   UNL     1       1.147   7.985  21.321  0.00  0.00    +0.000 A 
ATOM     28  C   UNL     1       1.626   8.095  20.025  0.00  0.00    +0.000 A 
ATOM     29  N   UNL     1       2.442   7.140  19.555  0.00  0.00    +0.000 NA
ENDBRANCH  19  20
ENDBRANCH   1  19
TORSDOF 8
ENDMDL
MODEL 3
REMARK VINA RESULT:      -7.6      1.219      1.693
REMARK  Name = 
REMARK  8 active torsions:
REMARK  status: ('A' for Active; 'I' for Inactive)
REMARK    1  A    between atoms: N_1  and  C_2
REMARK    2  A    between atoms: C_2  and  C_3
REMARK    3  A    between atoms: C_3  and  C_4
REMARK    4  A    between atoms: C_4  and  C_5
REMARK    5  A    between atoms: C_5  and  N_6
REMARK    6  A    between atoms: N_6  and  C_7
REMARK    7  A    between atoms: N_6  and  C_18
REMARK    8  A    between atoms: C_7  and  C_8
REMARK                            x       y       z     vdW  Elec       q    Type
REMARK                         _______ _______ _______ _____ _____    ______ ____
ROOT
ATOM      1  N   UNL     1       3.300   5.453  18.152  0.00  0.00    +0.000 NA
ENDROOT
BRANCH   1   2
ATOM      2  C   UNL     1       4.683   4.867  18.239  0.00  0.00    +0.000 C 
ATOM      3  C   UNL     1       5.495   5.614  19.336  0.00  0.00    +0.000 C 
ATOM      4  C   UNL     1       6.964   5.213  19.326  0.00  0.00    +0.000 C 
ATOM      5  C   UNL     1       7.594   5.613  17.996  0.00  0.00    +0.000 C 
ATOM      6  C   UNL     1       6.800   5.140  16.811  0.00  0.00    +0.000 A 
ATOM      7  C   UNL     1       7.403   5.111  15.545  0.00  0.00    +0.000 A 
ATOM      8  C   UNL     1       6.695   4.654  14.441  0.00  0.00    +0.000 A 
ATOM      9  C   UNL     1       5.407   4.214  14.643  0.00  0.00    +0.000 A 
ATOM     10  N   UNL     1       4.788   4.251  15.838  0.00  0.00    +0.000 NA
ATOM     11  C   UNL     1       5.457   4.760  16.910  0.00  0.00    +0.000 A 
ENDBRANCH   1   2
BRANCH   1  12
ATOM     12  C   UNL     1       2.279   4.419  17.887  0.00  0.00    +0.000 C 
BRANCH  12  13
ATOM     13  C   UNL     1       1.712   3.652  19.090  0.00  0.00    +0.000 C 
BRANCH  13  14
ATOM     14  C   UNL     1       1.965   2.142  19.061  0.00  0.00    +0.000 C 
BRANCH  14  15
ATOM     15  C   UNL     1       2.987   1.821  17.967  0.00  0.00    +0.000 C 
BRANCH  15  16
ATOM     16  N   UNL     1       3.961   0.831  18.409  0.00  0.00    +0.000 NA
ATOM     17  H   UNL     1       4.721   0.785  17.733  0.00  0.00    +0.000 HD
ATOM     18  H   UNL     1       3.531  -0.093  18.424  0.00  0.00    +0.000 HD
ENDBRANCH  15  16
ENDBRANCH  14  15
ENDBRANCH  13  14
ENDBRANCH  12  13
ENDBRANCH   1  12
BRANCH   1  19
ATOM     19  C   UNL     1       2.936   6.258  19.348  0.00  0.00    +0.000 C 
BRANCH  19  20
ATOM     20  C   UNL     1       2.143   7.546  19.147  0.00  0.00    +0.000 A 
ATOM     21  C   UNL     1       2.240   8.234  17.939  0.00  0.00    +0.000 A 
ATOM     22  C   UNL     1       1.723   9.524  17.853  0.00  0.00    +0.000 A 
ATOM     23  C   UNL     1       1.131  10.107  18.977  0.00  0.00    +0.000 A 
ATOM     24  C   UNL     1       0.656  11.433  18.971  0.00  0.00    +0.000 A 
ATOM     25  C   UNL     1       0.111  11.987  20.129  0.00  0.00    +0.000 A 
ATOM     26  C   UNL     1      -0.003  11.212  21.276  0.00  0.00    +0.000 A 
ATOM     27  C   UNL     1       0.445   9.888  21.268  0.00  0.00    +0.000 A 
ATOM     28  C   UNL     1       1.030   9.325  20.145  0.00  0.00    +0.000 A 
ATOM     29  N   UNL     1       1.519   8.078  20.228  0.00  0.00    +0.000 NA
ENDBRANCH  19  20
ENDBRANCH   1  19
TORSDOF 8
ENDMDL
MODEL 4
REMARK VINA RESULT:      -7.6      1.114      1.325
REMARK  Name = 
REMARK  8 active torsions:
REMARK  status: ('A' for Active; 'I' for Inactive)
REMARK    1  A    between atoms: N_1  and  C_2
REMARK    2  A    between atoms: C_2  and  C_3
REMARK    3  A    between atoms: C_3  and  C_4
REMARK    4  A    between atoms: C_4  and  C_5
REMARK    5  A    between atoms: C_5  and  N_6
REMARK    6  A    between atoms: N_6  and  C_7
REMARK    7  A    between atoms: N_6  and  C_18
REMARK    8  A    between atoms: C_7  and  C_8
REMARK                            x       y       z     vdW  Elec       q    Type
REMARK                         _______ _______ _______ _____ _____    ______ ____
ROOT
ATOM      1  N   UNL     1       3.274   5.367  18.116  0.00  0.00    +0.000 NA
ENDROOT
BRANCH   1   2
ATOM      2  C   UNL     1       4.660   4.789  18.198  0.00  0.00    +0.000 C 
ATOM      3  C   UNL     1       5.456   5.508  19.324  0.00  0.00    +0.000 C 
ATOM      4  C   UNL     1       6.928   5.117  19.316  0.00  0.00    +0.000 C 
ATOM      5  C   UNL     1       7.568   5.560  18.005  0.00  0.00    +0.000 C 
ATOM      6  C   UNL     1       6.787   5.117  16.799  0.00  0.00    +0.000 A 
ATOM      7  C   UNL     1       7.403   5.130  15.538  0.00  0.00    +0.000 A 
ATOM      8  C   UNL     1       6.708   4.701  14.415  0.00  0.00    +0.000 A 
ATOM      9  C   UNL     1       5.421   4.247  14.591  0.00  0.00    +0.000 A 
ATOM     10  N   UNL     1       4.791   4.244  15.781  0.00  0.00    +0.000 NA
ATOM     11  C   UNL     1       5.447   4.725  16.874  0.00  0.00    +0.000 A 
ENDBRANCH   1   2
BRANCH   1  12
ATOM     12  C   UNL     1       2.258   4.329  17.847  0.00  0.00    +0.000 C 
BRANCH  12  13
ATOM     13  C   UNL     1       2.514   2.920  18.399  0.00  0.00    +0.000 C 
BRANCH  13  14
ATOM     14  C   UNL     1       1.672   2.553  19.625  0.00  0.00    +0.000 C 
BRANCH  14  15
ATOM     15  C   UNL     1       2.483   2.821  20.895  0.00  0.00    +0.000 C 
BRANCH  15  16
ATOM     16  N   UNL     1       1.700   2.573  22.099  0.00  0.00    +0.000 NA
ATOM     17  H   UNL     1       0.820   2.131  21.841  0.00  0.00    +0.000 HD
ATOM     18  H   UNL     1       1.458   3.460  22.541  0.00  0.00    +0.000 HD
ENDBRANCH  15  16
ENDBRANCH  14  15
ENDBRANCH  13  14
ENDBRANCH  12  13
ENDBRANCH   1  12
BRANCH   1  19
ATOM     19  C   UNL     1       2.907   6.164  19.316  0.00  0.00    +0.000 C 
BRANCH  19  20
ATOM     20  C   UNL     1       2.154   7.476  19.118  0.00  0.00    +0.000 A 
ATOM     21  C   UNL     1       2.280   8.170  17.916  0.00  0.00    +0.000 A 
ATOM     22  C   UNL     1       1.802   9.475  17.837  0.00  0.00    +0.000 A 
ATOM     23  C   UNL     1       1.219  10.068  18.960  0.00  0.00    +0.000 A 
ATOM     24  C   UNL     1       0.783  11.407  18.960  0.00  0.00    +0.000 A 
ATOM     25  C   UNL     1       0.246  11.968  20.118  0.00  0.00    +0.000 A 
ATOM     26  C   UNL     1       0.101  11.189  21.259  0.00  0.00    +0.000 A 
ATOM     27  C   UNL     1       0.510   9.853  21.244  0.00  0.00    +0.000 A 
ATOM     28  C   UNL     1       1.086   9.280  20.121  0.00  0.00    +0.000 A 
ATOM     29  N   UNL     1       1.537   8.019  20.199  0.00  0.00    +0.000 NA
ENDBRANCH  19  20
ENDBRANCH   1  19
TORSDOF 8
ENDMDL
MODEL 5
REMARK VINA RESULT:      -7.6      1.165      1.758
REMARK  Name = 
REMARK  8 active torsions:
REMARK  status: ('A' for Active; 'I' for Inactive)
REMARK    1  A    between atoms: N_1  and  C_2
REMARK    2  A    between atoms: C_2  and  C_3
REMARK    3  A    between atoms: C_3  and  C_4
REMARK    4  A    between atoms: C_4  and  C_5
REMARK    5  A    between atoms: C_5  and  N_6
REMARK    6  A    between atoms: N_6  and  C_7
REMARK    7  A    between atoms: N_6  and  C_18
REMARK    8  A    between atoms: C_7  and  C_8
REMARK                            x       y       z     vdW  Elec       q    Type
REMARK                         _______ _______ _______ _____ _____    ______ ____
ROOT
ATOM      1  N   UNL     1       3.255   5.615  18.000  0.00  0.00    +0.000 NA
ENDROOT
BRANCH   1   2
ATOM      2  C   UNL     1       4.588   4.936  18.152  0.00  0.00    +0.000 C 
ATOM      3  C   UNL     1       5.392   5.620  19.295  0.00  0.00    +0.000 C 
ATOM      4  C   UNL     1       6.829   5.119  19.356  0.00  0.00    +0.000 C 
ATOM      5  C   UNL     1       7.552   5.481  18.063  0.00  0.00    +0.000 C 
ATOM      6  C   UNL     1       6.788   5.069  16.835  0.00  0.00    +0.000 A 
ATOM      7  C   UNL     1       7.452   5.005  15.602  0.00  0.00    +0.000 A 
ATOM      8  C   UNL     1       6.772   4.603  14.459  0.00  0.00    +0.000 A 
ATOM      9  C   UNL     1       5.448   4.252  14.592  0.00  0.00    +0.000 A 
ATOM     10  N   UNL     1       4.773   4.325  15.755  0.00  0.00    +0.000 NA
ATOM     11  C   UNL     1       5.420   4.782  16.863  0.00  0.00    +0.000 A 
ENDBRANCH   1   2
BRANCH   1  12
ATOM     12  C   UNL     1       2.291   5.176  19.030  0.00  0.00    +0.000 C 
BRANCH  12  13
ATOM     13  C   UNL     1       1.524   3.870  18.777  0.00  0.00    +0.000 C 
BRANCH  13  14
ATOM     14  C   UNL     1       1.942   2.700  19.674  0.00  0.00    +0.000 C 
BRANCH  14  15
ATOM     15  C   UNL     1       1.319   2.877  21.061  0.00  0.00    +0.000 C 
BRANCH  15  16
ATOM     16  N   UNL     1       2.333   2.954  22.104  0.00  0.00    +0.000 NA
ATOM     17  H   UNL     1       1.875   3.034  23.010  0.00  0.00    +0.000 HD
ATOM     18  H   UNL     1       2.886   3.802  21.985  0.00  0.00    +0.000 HD
ENDBRANCH  15  16
ENDBRANCH  14  15
ENDBRANCH  13  14
ENDBRANCH  12  13
ENDBRANCH   1  12
BRANCH   1  19
ATOM     19  C   UNL     1       3.360   7.098  17.977  0.00  0.00    +0.000 C 
BRANCH  19  20
ATOM     20  C   UNL     1       2.226   7.920  18.583  0.00  0.00    +0.000 A 
ATOM     21  C   UNL     1       1.577   8.878  17.806  0.00  0.00    +0.000 A 
ATOM     22  C   UNL     1       0.729   9.790  18.428  0.00  0.00    +0.000 A 
ATOM     23  C   UNL     1       0.553   9.737  19.814  0.00  0.00    +0.000 A 
ATOM     24  C   UNL     1      -0.235  10.676  20.506  0.00  0.00    +0.000 A 
ATOM     25  C   UNL     1      -0.347  10.609  21.895  0.00  0.00    +0.000 A 
ATOM     26  C   UNL     1       0.286   9.585  22.588  0.00  0.00    +0.000 A 
ATOM     27  C   UNL     1       1.045   8.640  21.893  0.00  0.00    +0.000 A 
ATOM     28  C   UNL     1       1.208   8.707  20.518  0.00  0.00    +0.000 A 
ATOM     29  N   UNL     1       2.020   7.821  19.920  0.00  0.00    +0.000 NA
ENDBRANCH  19  20
ENDBRANCH   1  19
TORSDOF 8
ENDMDL
MODEL 6
REMARK VINA RESULT:      -7.5      1.779      5.098
REMARK  Name = 
REMARK  8 active torsions:
REMARK  status: ('A' for Active; 'I' for Inactive)
REMARK    1  A    between atoms: N_1  and  C_2
REMARK    2  A    between atoms: C_2  and  C_3
REMARK    3  A    between atoms: C_3  and  C_4
REMARK    4  A    between atoms: C_4  and  C_5
REMARK    5  A    between atoms: C_5  and  N_6
REMARK    6  A    between atoms: N_6  and  C_7
REMARK    7  A    between atoms: N_6  and  C_18
REMARK    8  A    between atoms: C_7  and  C_8
REMARK                            x       y       z     vdW  Elec       q    Type
REMARK                         _______ _______ _______ _____ _____    ______ ____
ROOT
ATOM      1  N   UNL     1       4.683   5.649  18.659  0.00  0.00    +0.000 NA
ENDROOT
BRANCH   1   2
ATOM      2  C   UNL     1       4.405   4.171  18.660  0.00  0.00    +0.000 C 
ATOM      3  C   UNL     1       4.283   3.665  17.194  0.00  0.00    +0.000 C 
ATOM      4  C   UNL     1       3.793   2.224  17.130  0.00  0.00    +0.000 C 
ATOM      5  C   UNL     1       2.390   2.136  17.720  0.00  0.00    +0.000 C 
ATOM      6  C   UNL     1       2.286   2.781  19.074  0.00  0.00    +0.000 A 
ATOM      7  C   UNL     1       1.188   2.486  19.894  0.00  0.00    +0.000 A 
ATOM      8  C   UNL     1       1.086   3.052  21.159  0.00  0.00    +0.000 A 
ATOM      9  C   UNL     1       2.103   3.881  21.575  0.00  0.00    +0.000 A 
ATOM     10  N   UNL     1       3.158   4.205  20.804  0.00  0.00    +0.000 NA
ATOM     11  C   UNL     1       3.229   3.704  19.539  0.00  0.00    +0.000 A 
ENDBRANCH   1   2
BRANCH   1  12
ATOM     12  C   UNL     1       6.115   5.942  18.442  0.00  0.00    +0.000 C 
BRANCH  12  13
ATOM     13  C   UNL     1       6.507   6.658  17.142  0.00  0.00    +0.000 C 
BRANCH  13  14
ATOM     14  C   UNL     1       7.443   7.856  17.330  0.00  0.00    +0.000 C 
BRANCH  14  15
ATOM     15  C   UNL     1       8.309   7.631  18.572  0.00  0.00    +0.000 C 
BRANCH  15  16
ATOM     16  N   UNL     1       8.890   8.876  19.059  0.00  0.00    +0.000 NA
ATOM     17  H   UNL     1       8.172   9.597  19.073  0.00  0.00    +0.000 HD
ATOM     18  H   UNL     1       9.609   9.197  18.411  0.00  0.00    +0.000 HD
ENDBRANCH  15  16
ENDBRANCH  14  15
ENDBRANCH  13  14
ENDBRANCH  12  13
ENDBRANCH   1  12
BRANCH   1  19
ATOM     19  C   UNL     1       3.840   6.396  17.688  0.00  0.00    +0.000 C 
BRANCH  19  20
ATOM     20  C   UNL     1       2.772   7.343  18.226  0.00  0.00    +0.000 A 
ATOM     21  C   UNL     1       2.381   8.445  17.468  0.00  0.00    +0.000 A 
ATOM     22  C   UNL     1       1.604   9.434  18.064  0.00  0.00    +0.000 A 
ATOM     23  C   UNL     1       1.241   9.311  19.408  0.00  0.00    +0.000 A 
ATOM     24  C   UNL     1       0.518  10.313  20.083  0.00  0.00    +0.000 A 
ATOM     25  C   UNL     1       0.215  10.166  21.437  0.00  0.00    +0.000 A 
ATOM     26  C   UNL     1       0.590   9.007  22.105  0.00  0.00    +0.000 A 
ATOM     27  C   UNL     1       1.284   8.005  21.423  0.00  0.00    +0.000 A 
ATOM     28  C   UNL     1       1.636   8.142  20.089  0.00  0.00    +0.000 A 
ATOM     29  N   UNL     1       2.378   7.183  19.515  0.00  0.00    +0.000 NA
ENDBRANCH  19  20
ENDBRANCH   1  19
TORSDOF 8
ENDMDL
MODEL 7
REMARK VINA RESULT:      -7.5      1.717      4.951
REMARK  Name = 
REMARK  8 active torsions:
REMARK  status: ('A' for Active; 'I' for Inactive)
REMARK    1  A    between atoms: N_1  and  C_2
REMARK    2  A    between atoms: C_2  and  C_3
REMARK    3  A    between atoms: C_3  and  C_4
REMARK    4  A    between atoms: C_4  and  C_5
REMARK    5  A    between atoms: C_5  and  N_6
REMARK    6  A    between atoms: N_6  and  C_7
REMARK    7  A    between atoms: N_6  and  C_18
REMARK    8  A    between atoms: C_7  and  C_8
REMARK                            x       y       z     vdW  Elec       q    Type
REMARK                         _______ _______ _______ _____ _____    ______ ____
ROOT
ATOM      1  N   UNL     1       3.930   6.227  18.346  0.00  0.00    +0.000 NA
ENDROOT
BRANCH   1   2
ATOM      2  C   UNL     1       4.015   4.726  18.389  0.00  0.00    +0.000 C 
ATOM      3  C   UNL     1       3.862   4.157  16.949  0.00  0.00    +0.000 C 
ATOM      4  C   UNL     1       3.726   2.640  16.949  0.00  0.00    +0.000 C 
ATOM      5  C   UNL     1       2.455   2.242  17.692  0.00  0.00    +0.000 C 
ATOM      6  C   UNL     1       2.344   2.889  19.044  0.00  0.00    +0.000 A 
ATOM      7  C   UNL     1       1.441   2.371  19.984  0.00  0.00    +0.000 A 
ATOM      8  C   UNL     1       1.341   2.939  21.248  0.00  0.00    +0.000 A 
ATOM      9  C   UNL     1       2.170   3.997  21.543  0.00  0.00    +0.000 A 
ATOM     10  N   UNL     1       3.030   4.536  20.657  0.00  0.00    +0.000 NA
ATOM     11  C   UNL     1       3.083   4.023  19.396  0.00  0.00    +0.000 A 
ENDBRANCH   1   2
BRANCH   1  12
ATOM     12  C   UNL     1       4.824   6.801  17.320  0.00  0.00    +0.000 C 
BRANCH  12  13
ATOM     13  C   UNL     1       6.335   6.765  17.590  0.00  0.00    +0.000 C 
BRANCH  13  14
ATOM     14  C   UNL     1       7.118   5.790  16.703  0.00  0.00    +0.000 C 
BRANCH  14  15
ATOM     15  C   UNL     1       7.636   4.632  17.559  0.00  0.00    +0.000 C 
BRANCH  15  16
ATOM     16  N   UNL     1       7.622   4.959  18.979  0.00  0.00    +0.000 NA
ATOM     17  H   UNL     1       7.457   4.110  19.516  0.00  0.00    +0.000 HD
ATOM     18  H   UNL     1       6.842   5.584  19.181  0.00  0.00    +0.000 HD
ENDBRANCH  15  16
ENDBRANCH  14  15
ENDBRANCH  13  14
ENDBRANCH  12  13
ENDBRANCH   1  12
BRANCH   1  19
ATOM     19  C   UNL     1       2.540   6.724  18.171  0.00  0.00    +0.000 C 
BRANCH  19  20
ATOM     20  C   UNL     1       2.034   7.821  19.103  0.00  0.00    +0.000 A 
ATOM     21  C   UNL     1       1.845   7.545  20.455  0.00  0.00    +0.000 A 
ATOM     22  C   UNL     1       1.151   8.461  21.241  0.00  0.00    +0.000 A 
ATOM     23  C   UNL     1       0.648   9.628  20.660  0.00  0.00    +0.000 A 
ATOM     24  C   UNL     1      -0.122  10.555  21.388  0.00  0.00    +0.000 A 
ATOM     25  C   UNL     1      -0.639  11.686  20.756  0.00  0.00    +0.000 A 
ATOM     26  C   UNL     1      -0.353  11.918  19.416  0.00  0.00    +0.000 A 
ATOM     27  C   UNL     1       0.435  11.008  18.706  0.00  0.00    +0.000 A 
ATOM     28  C   UNL     1       0.926   9.854  19.297  0.00  0.00    +0.000 A 
ATOM     29  N   UNL     1       1.602   8.978  18.539  0.00  0.00    +0.000 NA
ENDBRANCH  19  20
ENDBRANCH   1  19
TORSDOF 8
ENDMDL
MODEL 8
REMARK VINA RESULT:      -7.4      1.307      1.975
REMARK  Name = 
REMARK  8 active torsions:
REMARK  status: ('A' for Active; 'I' for Inactive)
REMARK    1  A    between atoms: N_1  and  C_2
REMARK    2  A    between atoms: C_2  and  C_3
REMARK    3  A    between atoms: C_3  and  C_4
REMARK    4  A    between atoms: C_4  and  C_5
REMARK    5  A    between atoms: C_5  and  N_6
REMARK    6  A    between atoms: N_6  and  C_7
REMARK    7  A    between atoms: N_6  and  C_18
REMARK    8  A    between atoms: C_7  and  C_8
REMARK                            x       y       z     vdW  Elec       q    Type
REMARK                         _______ _______ _______ _____ _____    ______ ____
ROOT
ATOM      1  N   UNL     1       3.261   5.743  17.915  0.00  0.00    +0.000 NA
ENDROOT
BRANCH   1   2
ATOM      2  C   UNL     1       4.580   5.048  18.111  0.00  0.00    +0.000 C 
ATOM      3  C   UNL     1       5.382   5.763  19.236  0.00  0.00    +0.000 C 
ATOM      4  C   UNL     1       6.809   5.241  19.337  0.00  0.00    +0.000 C 
ATOM      5  C   UNL     1       7.554   5.539  18.040  0.00  0.00    +0.000 C 
ATOM      6  C   UNL     1       6.799   5.091  16.819  0.00  0.00    +0.000 A 
ATOM      7  C   UNL     1       7.477   4.967  15.598  0.00  0.00    +0.000 A 
ATOM      8  C   UNL     1       6.804   4.530  14.464  0.00  0.00    +0.000 A 
ATOM      9  C   UNL     1       5.472   4.207  14.593  0.00  0.00    +0.000 A 
ATOM     10  N   UNL     1       4.785   4.339  15.743  0.00  0.00    +0.000 NA
ATOM     11  C   UNL     1       5.426   4.828  16.841  0.00  0.00    +0.000 A 
ENDBRANCH   1   2
BRANCH   1  12
ATOM     12  C   UNL     1       2.229   5.240  18.844  0.00  0.00    +0.000 C 
BRANCH  12  13
ATOM     13  C   UNL     1       2.368   3.798  19.352  0.00  0.00    +0.000 C 
BRANCH  13  14
ATOM     14  C   UNL     1       1.627   2.752  18.512  0.00  0.00    +0.000 C 
BRANCH  14  15
ATOM     15  C   UNL     1       2.632   2.001  17.637  0.00  0.00    +0.000 C 
BRANCH  15  16
ATOM     16  N   UNL     1       3.801   1.576  18.397  0.00  0.00    +0.000 NA
ATOM     17  H   UNL     1       3.498   1.008  19.186  0.00  0.00    +0.000 HD
ATOM     18  H   UNL     1       4.270   2.391  18.791  0.00  0.00    +0.000 HD
ENDBRANCH  15  16
ENDBRANCH  14  15
ENDBRANCH  13  14
ENDBRANCH  12  13
ENDBRANCH   1  12
BRANCH   1  19
ATOM     19  C   UNL     1       3.369   7.224  17.999  0.00  0.00    +0.000 C 
BRANCH  19  20
ATOM     20  C   UNL     1       2.203   8.008  18.594  0.00  0.00    +0.000 A 
ATOM     21  C   UNL     1       1.515   8.927  17.804  0.00  0.00    +0.000 A 
ATOM     22  C   UNL     1       0.631   9.812  18.413  0.00  0.00    +0.000 A 
ATOM     23  C   UNL     1       0.459   9.773  19.800  0.00  0.00    +0.000 A 
ATOM     24  C   UNL     1      -0.367  10.690  20.478  0.00  0.00    +0.000 A 
ATOM     25  C   UNL     1      -0.474  10.640  21.868  0.00  0.00    +0.000 A 
ATOM     26  C   UNL     1       0.200   9.653  22.576  0.00  0.00    +0.000 A 
ATOM     27  C   UNL     1       0.996   8.729  21.895  0.00  0.00    +0.000 A 
ATOM     28  C   UNL     1       1.156   8.782  20.519  0.00  0.00    +0.000 A 
ATOM     29  N   UNL     1       2.002   7.921  19.933  0.00  0.00    +0.000 NA
ENDBRANCH  19  20
ENDBRANCH   1  19
TORSDOF 8
ENDMDL
MODEL 9
REMARK VINA RESULT:      -7.4      1.509      5.103
REMARK  Name = 
REMARK  8 active torsions:
REMARK  status: ('A' for Active; 'I' for Inactive)
REMARK    1  A    between atoms: N_1  and  C_2
REMARK    2  A    between atoms: C_2  and  C_3
REMARK    3  A    between atoms: C_3  and  C_4
REMARK    4  A    between atoms: C_4  and  C_5
REMARK    5  A    between atoms: C_5  and  N_6
REMARK    6  A    between atoms: N_6  and  C_7
REMARK    7  A    between atoms: N_6  and  C_18
REMARK    8  A    between atoms: C_7  and  C_8
REMARK                            x       y       z     vdW  Elec       q    Type
REMARK                         _______ _______ _______ _____ _____    ______ ____
ROOT
ATOM      1  N   UNL     1       4.173   5.791  18.596  0.00  0.00    +0.000 NA
ENDROOT
BRANCH   1   2
ATOM      2  C   UNL     1       3.888   4.317  18.513  0.00  0.00    +0.000 C 
ATOM      3  C   UNL     1       3.399   3.963  17.079  0.00  0.00    +0.000 C 
ATOM      4  C   UNL     1       2.892   2.530  16.990  0.00  0.00    +0.000 C 
ATOM      5  C   UNL     1       1.679   2.359  17.899  0.00  0.00    +0.000 C 
ATOM      6  C   UNL     1       1.924   2.860  19.295  0.00  0.00    +0.000 A 
ATOM      7  C   UNL     1       1.061   2.465  20.328  0.00  0.00    +0.000 A 
ATOM      8  C   UNL     1       1.284   2.896  21.630  0.00  0.00    +0.000 A 
ATOM      9  C   UNL     1       2.382   3.693  21.863  0.00  0.00    +0.000 A 
ATOM     10  N   UNL     1       3.215   4.111  20.892  0.00  0.00    +0.000 NA
ATOM     11  C   UNL     1       2.963   3.744  19.605  0.00  0.00    +0.000 A 
ENDBRANCH   1   2
BRANCH   1  12
ATOM     12  C   UNL     1       5.468   6.139  17.976  0.00  0.00    +0.000 C 
BRANCH  12  13
ATOM     13  C   UNL     1       6.694   5.302  18.369  0.00  0.00    +0.000 C 
BRANCH  13  14
ATOM     14  C   UNL     1       7.499   4.756  17.185  0.00  0.00    +0.000 C 
BRANCH  14  15
ATOM     15  C   UNL     1       6.684   4.920  15.899  0.00  0.00    +0.000 C 
BRANCH  15  16
ATOM     16  N   UNL     1       7.526   5.286  14.768  0.00  0.00    +0.000 NA
ATOM     17  H   UNL     1       8.414   4.791  14.838  0.00  0.00    +0.000 HD
ATOM     18  H   UNL     1       7.747   6.281  14.810  0.00  0.00    +0.000 HD
ENDBRANCH  15  16
ENDBRANCH  14  15
ENDBRANCH  13  14
ENDBRANCH  12  13
ENDBRANCH   1  12
BRANCH   1  19
ATOM     19  C   UNL     1       3.079   6.625  18.033  0.00  0.00    +0.000 C 
BRANCH  19  20
ATOM     20  C   UNL     1       2.381   7.629  18.946  0.00  0.00    +0.000 A 
ATOM     21  C   UNL     1       2.067   7.267  20.255  0.00  0.00    +0.000 A 
ATOM     22  C   UNL     1       1.215   8.083  20.995  0.00  0.00    +0.000 A 
ATOM     23  C   UNL     1       0.682   9.235  20.411  0.00  0.00    +0.000 A 
ATOM     24  C   UNL     1      -0.241  10.058  21.085  0.00  0.00    +0.000 A 
ATOM     25  C   UNL     1      -0.779  11.175  20.446  0.00  0.00    +0.000 A 
ATOM     26  C   UNL     1      -0.368  11.499  19.160  0.00  0.00    +0.000 A 
ATOM     27  C   UNL     1       0.569  10.693  18.506  0.00  0.00    +0.000 A 
ATOM     28  C   UNL     1       1.088   9.553  19.100  0.00  0.00    +0.000 A 
ATOM     29  N   UNL     1       1.917   8.775  18.388  0.00  0.00    +0.000 NA
ENDBRANCH  19  20
ENDBRANCH   1  19
TORSDOF 8
ENDMDL
