MODEL 1
REMARK VINA RESULT:      -8.8      0.000      0.000
REMARK  Name = 
REMARK  7 active torsions:
REMARK  status: ('A' for Active; 'I' for Inactive)
REMARK    1  A    between atoms: C_7  and  C_8
REMARK    2  A    between atoms: C_8  and  C_9
REMARK    3  A    between atoms: C_8  and  C_20
REMARK    4  A    between atoms: C_11  and  O_12
REMARK    5  A    between atoms: O_12  and  C_13
REMARK    6  A    between atoms: C_22  and  O_23
REMARK    7  A    between atoms: O_23  and  C_24
REMARK                            x       y       z     vdW  Elec       q    Type
REMARK                         _______ _______ _______ _____ _____    ______ ____
ROOT
ATOM      1  C   UNL     1       3.742   5.168  18.735  0.00  0.00    +0.000 C 
ENDROOT
BRANCH   1   2
ATOM      2  C   UNL     1       2.947   6.472  18.935  0.00  0.00    +0.000 A 
ATOM      3  C   UNL     1       2.265   6.715  20.157  0.00  0.00    +0.000 A 
ATOM      4  C   UNL     1       1.576   7.920  20.407  0.00  0.00    +0.000 A 
ATOM      5  C   UNL     1       1.547   8.858  19.393  0.00  0.00    +0.000 A 
ATOM      6  C   UNL     1       2.204   8.631  18.205  0.00  0.00    +0.000 A 
ATOM      7  C   UNL     1       2.923   7.479  17.960  0.00  0.00    +0.000 A 
ATOM      8  O   UNL     1       2.085   9.661  17.323  0.00  0.00    +0.000 OA
ATOM      9  C   UNL     1       1.246  10.558  18.071  0.00  0.00    +0.000 C 
ATOM     10  O   UNL     1       0.937  10.078  19.391  0.00  0.00    +0.000 OA
BRANCH   4  11
ATOM     11  O   UNL     1       1.018   8.017  21.651  0.00  0.00    +0.000 OA
ATOM     12  C   UNL     1       1.387   9.145  22.438  0.00  0.00    +0.000 C 
ENDBRANCH   4  11
ENDBRANCH   1   2
BRANCH   1  13
ATOM     13  C   UNL     1       4.867   5.285  17.683  0.00  0.00    +0.000 A 
ATOM     14  C   UNL     1       6.026   6.062  17.946  0.00  0.00    +0.000 A 
ATOM     15  C   UNL     1       7.072   6.205  17.016  0.00  0.00    +0.000 A 
ATOM     16  C   UNL     1       6.948   5.536  15.814  0.00  0.00    +0.000 A 
ATOM     17  C   UNL     1       5.857   4.737  15.565  0.00  0.00    +0.000 A 
ATOM     18  C   UNL     1       4.829   4.576  16.472  0.00  0.00    +0.000 A 
ATOM     19  O   UNL     1       5.898   4.138  14.345  0.00  0.00    +0.000 OA
ATOM     20  C   UNL     1       7.105   4.707  13.810  0.00  0.00    +0.000 C 
ATOM     21  O   UNL     1       7.805   5.538  14.755  0.00  0.00    +0.000 OA
BRANCH  15  22
ATOM     22  O   UNL     1       8.092   7.011  17.430  0.00  0.00    +0.000 OA
ATOM     23  C   UNL     1       7.781   8.379  17.659  0.00  0.00    +0.000 C 
ENDBRANCH  15  22
ENDBRANCH   1  13
BRANCH   1  30
ATOM     24  C   UNL     1       2.666   3.062  20.956  0.00  0.00    +0.000 C 
ATOM     25  C   UNL     1       2.159   3.322  19.745  0.00  0.00    +0.000 C 
ATOM     26  C   UNL     1       0.799   2.885  19.357  0.00  0.00    +0.000 C 
ATOM     27  O   UNL     1      -0.003   2.308  20.063  0.00  0.00    +0.000 OA
ATOM     28  O   UNL     1       0.627   3.178  18.041  0.00  0.00    +0.000 OA
ATOM     29  C   UNL     1       1.676   4.030  17.577  0.00  0.00    +0.000 C 
ATOM     30  C   UNL     1       2.838   3.903  18.554  0.00  0.00    +0.000 C 
ENDBRANCH   1  30
TORSDOF 5
ENDMDL
MODEL 2
REMARK VINA RESULT:      -8.6      1.184      6.199
REMARK  Name = 
REMARK  7 active torsions:
REMARK  status: ('A' for Active; 'I' for Inactive)
REMARK    1  A    between atoms: C_7  and  C_8
REMARK    2  A    between atoms: C_8  and  C_9
REMARK    3  A    between atoms: C_8  and  C_20
REMARK    4  A    between atoms: C_11  and  O_12
REMARK    5  A    between atoms: O_12  and  C_13
REMARK    6  A    between atoms: C_22  and  O_23
REMARK    7  A    between atoms: O_23  and  C_24
REMARK                            x       y       z     vdW  Elec       q    Type
REMARK                         _______ _______ _______ _____ _____    ______ ____
ROOT
ATOM      1  C   UNL     1       3.112   5.533  18.548  0.00  0.00    +0.000 C 
ENDROOT
BRANCH   1   2
ATOM      2  C   UNL     1       4.343   5.561  17.623  0.00  0.00    +0.000 A 
ATOM      3  C   UNL     1       5.521   6.249  18.019  0.00  0.00    +0.000 A 
ATOM      4  C   UNL     1       6.691   6.250  17.232  0.00  0.00    +0.000 A 
ATOM      5  C   UNL     1       6.643   5.585  16.021  0.00  0.00    +0.000 A 
ATOM      6  C   UNL     1       5.506   4.917  15.629  0.00  0.00    +0.000 A 
ATOM      7  C   UNL     1       4.368   4.864  16.406  0.00  0.00    +0.000 A 
ATOM      8  O   UNL     1       5.636   4.307  14.419  0.00  0.00    +0.000 OA
ATOM      9  C   UNL     1       6.975   4.691  14.066  0.00  0.00    +0.000 C 
ATOM     10  O   UNL     1       7.631   5.462  15.088  0.00  0.00    +0.000 OA
BRANCH   4  11
ATOM     11  O   UNL     1       7.752   6.915  17.778  0.00  0.00    +0.000 OA
ATOM     12  C   UNL     1       7.770   8.332  17.635  0.00  0.00    +0.000 C 
ENDBRANCH   4  11
ENDBRANCH   1   2
BRANCH   1  13
ATOM     13  C   UNL     1       2.539   6.932  18.860  0.00  0.00    +0.000 A 
ATOM     14  C   UNL     1       2.041   7.239  20.155  0.00  0.00    +0.000 A 
ATOM     15  C   UNL     1       1.502   8.496  20.483  0.00  0.00    +0.000 A 
ATOM     16  C   UNL     1       1.485   9.458  19.491  0.00  0.00    +0.000 A 
ATOM     17  C   UNL     1       2.011   9.194  18.249  0.00  0.00    +0.000 A 
ATOM     18  C   UNL     1       2.556   7.970  17.915  0.00  0.00    +0.000 A 
ATOM     19  O   UNL     1       1.931  10.251  17.397  0.00  0.00    +0.000 OA
ATOM     20  C   UNL     1       1.223  11.198  18.215  0.00  0.00    +0.000 C 
ATOM     21  O   UNL     1       0.997  10.728  19.557  0.00  0.00    +0.000 OA
BRANCH  15  22
ATOM     22  O   UNL     1       1.047   8.600  21.766  0.00  0.00    +0.000 OA
ATOM     23  C   UNL     1      -0.361   8.676  21.947  0.00  0.00    +0.000 C 
ENDBRANCH  15  22
ENDBRANCH   1  13
BRANCH   1  30
ATOM     24  C   UNL     1       0.876   4.229  20.505  0.00  0.00    +0.000 C 
ATOM     25  C   UNL     1       2.143   3.838  20.316  0.00  0.00    +0.000 C 
ATOM     26  C   UNL     1       2.627   2.513  20.763  0.00  0.00    +0.000 C 
ATOM     27  O   UNL     1       1.964   1.642  21.290  0.00  0.00    +0.000 OA
ATOM     28  O   UNL     1       3.968   2.465  20.550  0.00  0.00    +0.000 OA
ATOM     29  C   UNL     1       4.384   3.565  19.737  0.00  0.00    +0.000 C 
ATOM     30  C   UNL     1       3.299   4.631  19.814  0.00  0.00    +0.000 C 
ENDBRANCH   1  30
TORSDOF 5
ENDMDL
MODEL 3
REMARK VINA RESULT:      -8.5      1.522      6.293
REMARK  Name = 
REMARK  7 active torsions:
REMARK  status: ('A' for Active; 'I' for Inactive)
REMARK    1  A    between atoms: C_7  and  C_8
REMARK    2  A    between atoms: C_8  and  C_9
REMARK    3  A    between atoms: C_8  and  C_20
REMARK    4  A    between atoms: C_11  and  O_12
REMARK    5  A    between atoms: O_12  and  C_13
REMARK    6  A    between atoms: C_22  and  O_23
REMARK    7  A    between atoms: O_23  and  C_24
REMARK                            x       y       z     vdW  Elec       q    Type
REMARK                         _______ _______ _______ _____ _____    ______ ____
ROOT
ATOM      1  C   UNL     1       3.224   5.260  17.840  0.00  0.00    +0.000 C 
ENDROOT
BRANCH   1   2
ATOM      2  C   UNL     1       4.462   5.393  16.933  0.00  0.00    +0.000 A 
ATOM      3  C   UNL     1       5.512   6.285  17.280  0.00  0.00    +0.000 A 
ATOM      4  C   UNL     1       6.690   6.394  16.513  0.00  0.00    +0.000 A 
ATOM      5  C   UNL     1       6.777   5.624  15.369  0.00  0.00    +0.000 A 
ATOM      6  C   UNL     1       5.765   4.757  15.024  0.00  0.00    +0.000 A 
ATOM      7  C   UNL     1       4.626   4.601  15.787  0.00  0.00    +0.000 A 
ATOM      8  O   UNL     1       6.019   4.068  13.878  0.00  0.00    +0.000 OA
ATOM      9  C   UNL     1       7.295   4.619  13.510  0.00  0.00    +0.000 C 
ATOM     10  O   UNL     1       7.798   5.570  14.465  0.00  0.00    +0.000 OA
BRANCH   4  11
ATOM     11  O   UNL     1       7.624   7.260  17.010  0.00  0.00    +0.000 OA
ATOM     12  C   UNL     1       7.983   7.105  18.380  0.00  0.00    +0.000 C 
ENDBRANCH   4  11
ENDBRANCH   1   2
BRANCH   1  13
ATOM     13  C   UNL     1       2.687   6.613  18.356  0.00  0.00    +0.000 A 
ATOM     14  C   UNL     1       2.193   6.736  19.682  0.00  0.00    +0.000 A 
ATOM     15  C   UNL     1       1.685   7.944  20.194  0.00  0.00    +0.000 A 
ATOM     16  C   UNL     1       1.697   9.043  19.356  0.00  0.00    +0.000 A 
ATOM     17  C   UNL     1       2.220   8.952  18.088  0.00  0.00    +0.000 A 
ATOM     18  C   UNL     1       2.734   7.779  17.576  0.00  0.00    +0.000 A 
ATOM     19  O   UNL     1       2.171  10.127  17.403  0.00  0.00    +0.000 OA
ATOM     20  C   UNL     1       1.485  10.959  18.352  0.00  0.00    +0.000 C 
ATOM     21  O   UNL     1       1.242  10.302  19.609  0.00  0.00    +0.000 OA
BRANCH  15  22
ATOM     22  O   UNL     1       1.229   7.869  21.478  0.00  0.00    +0.000 OA
ATOM     23  C   UNL     1      -0.083   8.357  21.725  0.00  0.00    +0.000 C 
ENDBRANCH  15  22
ENDBRANCH   1  13
BRANCH   1  30
ATOM     24  C   UNL     1       2.063   2.233  17.953  0.00  0.00    +0.000 C 
ATOM     25  C   UNL     1       3.098   2.750  18.626  0.00  0.00    +0.000 C 
ATOM     26  C   UNL     1       4.089   1.893  19.314  0.00  0.00    +0.000 C 
ATOM     27  O   UNL     1       4.114   0.678  19.319  0.00  0.00    +0.000 OA
ATOM     28  O   UNL     1       4.932   2.704  20.007  0.00  0.00    +0.000 OA
ATOM     29  C   UNL     1       4.746   4.066  19.618  0.00  0.00    +0.000 C 
ATOM     30  C   UNL     1       3.378   4.174  18.957  0.00  0.00    +0.000 C 
ENDBRANCH   1  30
TORSDOF 5
ENDMDL
MODEL 4
REMARK VINA RESULT:      -8.5      0.968      1.375
REMARK  Name = 
REMARK  7 active torsions:
REMARK  status: ('A' for Active; 'I' for Inactive)
REMARK    1  A    between atoms: C_7  and  C_8
REMARK    2  A    between atoms: C_8  and  C_9
REMARK    3  A    between atoms: C_8  and  C_20
REMARK    4  A    between atoms: C_11  and  O_12
REMARK    5  A    between atoms: O_12  and  C_13
REMARK    6  A    between atoms: C_22  and  O_23
REMARK    7  A    between atoms: O_23  and  C_24
REMARK                            x       y       z     vdW  Elec       q    Type
REMARK                         _______ _______ _______ _____ _____    ______ ____
ROOT
ATOM      1  C   UNL     1       4.000   5.485  19.174  0.00  0.00    +0.000 C 
ENDROOT
BRANCH   1   2
ATOM      2  C   UNL     1       3.056   6.701  19.215  0.00  0.00    +0.000 A 
ATOM      3  C   UNL     1       2.235   6.933  20.350  0.00  0.00    +0.000 A 
ATOM      4  C   UNL     1       1.401   8.066  20.457  0.00  0.00    +0.000 A 
ATOM      5  C   UNL     1       1.374   8.938  19.386  0.00  0.00    +0.000 A 
ATOM      6  C   UNL     1       2.166   8.722  18.280  0.00  0.00    +0.000 A 
ATOM      7  C   UNL     1       3.022   7.646  18.178  0.00  0.00    +0.000 A 
ATOM      8  O   UNL     1       2.026   9.682  17.327  0.00  0.00    +0.000 OA
ATOM      9  C   UNL     1       1.028  10.520  17.934  0.00  0.00    +0.000 C 
ATOM     10  O   UNL     1       0.642  10.081  19.248  0.00  0.00    +0.000 OA
BRANCH   4  11
ATOM     11  O   UNL     1       0.716   8.168  21.635  0.00  0.00    +0.000 OA
ATOM     12  C   UNL     1       1.068   9.246  22.496  0.00  0.00    +0.000 C 
ENDBRANCH   4  11
ENDBRANCH   1   2
BRANCH   1  13
ATOM     13  C   UNL     1       4.967   5.493  17.969  0.00  0.00    +0.000 A 
ATOM     14  C   UNL     1       6.124   6.316  17.976  0.00  0.00    +0.000 A 
ATOM     15  C   UNL     1       7.028   6.363  16.899  0.00  0.00    +0.000 A 
ATOM     16  C   UNL     1       6.765   5.551  15.813  0.00  0.00    +0.000 A 
ATOM     17  C   UNL     1       5.678   4.710  15.814  0.00  0.00    +0.000 A 
ATOM     18  C   UNL     1       4.789   4.642  16.867  0.00  0.00    +0.000 A 
ATOM     19  O   UNL     1       5.573   3.968  14.679  0.00  0.00    +0.000 OA
ATOM     20  C   UNL     1       6.676   4.489  13.919  0.00  0.00    +0.000 C 
ATOM     21  O   UNL     1       7.470   5.439  14.653  0.00  0.00    +0.000 OA
BRANCH  15  22
ATOM     22  O   UNL     1       8.067   7.232  17.069  0.00  0.00    +0.000 OA
ATOM     23  C   UNL     1       7.771   8.480  17.680  0.00  0.00    +0.000 C 
ENDBRANCH  15  22
ENDBRANCH   1  13
BRANCH   1  30
ATOM     24  C   UNL     1       1.327   4.322  17.750  0.00  0.00    +0.000 C 
ATOM     25  C   UNL     1       2.305   3.641  18.359  0.00  0.00    +0.000 C 
ATOM     26  C   UNL     1       2.461   2.179  18.192  0.00  0.00    +0.000 C 
ATOM     27  O   UNL     1       1.787   1.457  17.486  0.00  0.00    +0.000 OA
ATOM     28  O   UNL     1       3.449   1.767  19.030  0.00  0.00    +0.000 OA
ATOM     29  C   UNL     1       4.160   2.891  19.555  0.00  0.00    +0.000 C 
ATOM     30  C   UNL     1       3.271   4.117  19.388  0.00  0.00    +0.000 C 
ENDBRANCH   1  30
TORSDOF 5
ENDMDL
MODEL 5
REMARK VINA RESULT:      -8.4      1.504      6.281
REMARK  Name = 
REMARK  7 active torsions:
REMARK  status: ('A' for Active; 'I' for Inactive)
REMARK    1  A    between atoms: C_7  and  C_8
REMARK    2  A    between atoms: C_8  and  C_9
REMARK    3  A    between atoms: C_8  and  C_20
REMARK    4  A    between atoms: C_11  and  O_12
REMARK    5  A    between atoms: O_12  and  C_13
REMARK    6  A    between atoms: C_22  and  O_23
REMARK    7  A    between atoms: O_23  and  C_24
REMARK                            x       y       z     vdW  Elec       q    Type
REMARK                         _______ _______ _______ _____ _____    ______ ____
ROOT
ATOM      1  C   UNL     1       3.070   5.208  18.023  0.00  0.00    +0.000 C 
ENDROOT
BRANCH   1   2
ATOM      2  C   UNL     1       4.310   5.402  17.131  0.00  0.00    +0.000 A 
ATOM      3  C   UNL     1       5.271   6.399  17.446  0.00  0.00    +0.000 A 
ATOM      4  C   UNL     1       6.451   6.571  16.693  0.00  0.00    +0.000 A 
ATOM      5  C   UNL     1       6.628   5.752  15.594  0.00  0.00    +0.000 A 
ATOM      6  C   UNL     1       5.702   4.783  15.280  0.00  0.00    +0.000 A 
ATOM      7  C   UNL     1       4.566   4.568  16.032  0.00  0.00    +0.000 A 
ATOM      8  O   UNL     1       6.039   4.060  14.178  0.00  0.00    +0.000 OA
ATOM      9  C   UNL     1       7.269   4.701  13.801  0.00  0.00    +0.000 C 
ATOM     10  O   UNL     1       7.668   5.741  14.711  0.00  0.00    +0.000 OA
BRANCH   4  11
ATOM     11  O   UNL     1       7.295   7.540  17.158  0.00  0.00    +0.000 OA
ATOM     12  C   UNL     1       8.043   7.236  18.332  0.00  0.00    +0.000 C 
ENDBRANCH   4  11
ENDBRANCH   1   2
BRANCH   1  13
ATOM     13  C   UNL     1       2.535   6.523  18.633  0.00  0.00    +0.000 A 
ATOM     14  C   UNL     1       2.377   7.682  17.829  0.00  0.00    +0.000 A 
ATOM     15  C   UNL     1       1.903   8.903  18.342  0.00  0.00    +0.000 A 
ATOM     16  C   UNL     1       1.567   8.942  19.681  0.00  0.00    +0.000 A 
ATOM     17  C   UNL     1       1.664   7.813  20.461  0.00  0.00    +0.000 A 
ATOM     18  C   UNL     1       2.114   6.605  19.970  0.00  0.00    +0.000 A 
ATOM     19  O   UNL     1       1.278   8.017  21.749  0.00  0.00    +0.000 OA
ATOM     20  C   UNL     1       0.997   9.427  21.722  0.00  0.00    +0.000 C 
ATOM     21  O   UNL     1       1.114  10.001  20.407  0.00  0.00    +0.000 OA
BRANCH  15  22
ATOM     22  O   UNL     1       1.843   9.917  17.429  0.00  0.00    +0.000 OA
ATOM     23  C   UNL     1       2.421  11.159  17.807  0.00  0.00    +0.000 C 
ENDBRANCH  15  22
ENDBRANCH   1  13
BRANCH   1  30
ATOM     24  C   UNL     1       1.974   2.158  17.881  0.00  0.00    +0.000 C 
ATOM     25  C   UNL     1       2.979   2.644  18.619  0.00  0.00    +0.000 C 
ATOM     26  C   UNL     1       3.971   1.759  19.269  0.00  0.00    +0.000 C 
ATOM     27  O   UNL     1       4.023   0.548  19.185  0.00  0.00    +0.000 OA
ATOM     28  O   UNL     1       4.776   2.533  20.044  0.00  0.00    +0.000 OA
ATOM     29  C   UNL     1       4.570   3.917  19.751  0.00  0.00    +0.000 C 
ATOM     30  C   UNL     1       3.218   4.046  19.061  0.00  0.00    +0.000 C 
ENDBRANCH   1  30
TORSDOF 5
ENDMDL
MODEL 6
REMARK VINA RESULT:      -8.3      0.405      1.908
REMARK  Name = 
REMARK  7 active torsions:
REMARK  status: ('A' for Active; 'I' for Inactive)
REMARK    1  A    between atoms: C_7  and  C_8
REMARK    2  A    between atoms: C_8  and  C_9
REMARK    3  A    between atoms: C_8  and  C_20
REMARK    4  A    between atoms: C_11  and  O_12
REMARK    5  A    between atoms: O_12  and  C_13
REMARK    6  A    between atoms: C_22  and  O_23
REMARK    7  A    between atoms: O_23  and  C_24
REMARK                            x       y       z     vdW  Elec       q    Type
REMARK                         _______ _______ _______ _____ _____    ______ ____
ROOT
ATOM      1  C   UNL     1       3.735   5.089  18.810  0.00  0.00    +0.000 C 
ENDROOT
BRANCH   1   2
ATOM      2  C   UNL     1       2.969   6.388  19.120  0.00  0.00    +0.000 A 
ATOM      3  C   UNL     1       2.913   7.433  18.159  0.00  0.00    +0.000 A 
ATOM      4  C   UNL     1       2.173   8.614  18.375  0.00  0.00    +0.000 A 
ATOM      5  C   UNL     1       1.525   8.746  19.588  0.00  0.00    +0.000 A 
ATOM      6  C   UNL     1       1.574   7.739  20.526  0.00  0.00    +0.000 A 
ATOM      7  C   UNL     1       2.253   6.557  20.314  0.00  0.00    +0.000 A 
ATOM      8  O   UNL     1       0.873   8.027  21.656  0.00  0.00    +0.000 OA
ATOM      9  C   UNL     1       0.398   9.348  21.348  0.00  0.00    +0.000 C 
ATOM     10  O   UNL     1       0.770   9.792  20.031  0.00  0.00    +0.000 OA
BRANCH   4  11
ATOM     11  O   UNL     1       2.180   9.497  17.332  0.00  0.00    +0.000 OA
ATOM     12  C   UNL     1       2.341  10.876  17.653  0.00  0.00    +0.000 C 
ENDBRANCH   4  11
ENDBRANCH   1   2
BRANCH   1  13
ATOM     13  C   UNL     1       4.862   5.267  17.769  0.00  0.00    +0.000 A 
ATOM     14  C   UNL     1       6.013   6.042  18.073  0.00  0.00    +0.000 A 
ATOM     15  C   UNL     1       7.059   6.240  17.154  0.00  0.00    +0.000 A 
ATOM     16  C   UNL     1       6.944   5.629  15.920  0.00  0.00    +0.000 A 
ATOM     17  C   UNL     1       5.862   4.833  15.630  0.00  0.00    +0.000 A 
ATOM     18  C   UNL     1       4.834   4.618  16.525  0.00  0.00    +0.000 A 
ATOM     19  O   UNL     1       5.912   4.295  14.382  0.00  0.00    +0.000 OA
ATOM     20  C   UNL     1       7.115   4.901  13.879  0.00  0.00    +0.000 C 
ATOM     21  O   UNL     1       7.804   5.691  14.865  0.00  0.00    +0.000 OA
BRANCH  15  22
ATOM     22  O   UNL     1       8.070   7.036  17.609  0.00  0.00    +0.000 OA
ATOM     23  C   UNL     1       7.812   8.432  17.676  0.00  0.00    +0.000 C 
ENDBRANCH  15  22
ENDBRANCH   1  13
BRANCH   1  30
ATOM     24  C   UNL     1       2.630   2.820  20.850  0.00  0.00    +0.000 C 
ATOM     25  C   UNL     1       2.120   3.194  19.669  0.00  0.00    +0.000 C 
ATOM     26  C   UNL     1       0.749   2.821  19.257  0.00  0.00    +0.000 C 
ATOM     27  O   UNL     1      -0.060   2.200  19.917  0.00  0.00    +0.000 OA
ATOM     28  O   UNL     1       0.575   3.230  17.972  0.00  0.00    +0.000 OA
ATOM     29  C   UNL     1       1.639   4.098  17.575  0.00  0.00    +0.000 C 
ATOM     30  C   UNL     1       2.804   3.863  18.528  0.00  0.00    +0.000 C 
ENDBRANCH   1  30
TORSDOF 5
ENDMDL
MODEL 7
REMARK VINA RESULT:      -8.0      1.481      6.480
REMARK  Name = 
REMARK  7 active torsions:
REMARK  status: ('A' for Active; 'I' for Inactive)
REMARK    1  A    between atoms: C_7  and  C_8
REMARK    2  A    between atoms: C_8  and  C_9
REMARK    3  A    between atoms: C_8  and  C_20
REMARK    4  A    between atoms: C_11  and  O_12
REMARK    5  A    between atoms: O_12  and  C_13
REMARK    6  A    between atoms: C_22  and  O_23
REMARK    7  A    between atoms: O_23  and  C_24
REMARK                            x       y       z     vdW  Elec       q    Type
REMARK                         _______ _______ _______ _____ _____    ______ ____
ROOT
ATOM      1  C   UNL     1       2.418   6.109  18.105  0.00  0.00    +0.000 C 
ENDROOT
BRANCH   1   2
ATOM      2  C   UNL     1       3.939   5.888  18.007  0.00  0.00    +0.000 A 
ATOM      3  C   UNL     1       4.583   5.884  16.741  0.00  0.00    +0.000 A 
ATOM      4  C   UNL     1       5.980   5.746  16.608  0.00  0.00    +0.000 A 
ATOM      5  C   UNL     1       6.714   5.570  17.765  0.00  0.00    +0.000 A 
ATOM      6  C   UNL     1       6.100   5.572  18.997  0.00  0.00    +0.000 A 
ATOM      7  C   UNL     1       4.741   5.752  19.150  0.00  0.00    +0.000 A 
ATOM      8  O   UNL     1       6.971   5.400  20.028  0.00  0.00    +0.000 OA
ATOM      9  C   UNL     1       8.209   5.252  19.313  0.00  0.00    +0.000 C 
ATOM     10  O   UNL     1       8.062   5.399  17.890  0.00  0.00    +0.000 OA
BRANCH   4  11
ATOM     11  O   UNL     1       6.446   5.814  15.325  0.00  0.00    +0.000 OA
ATOM     12  C   UNL     1       6.221   4.678  14.494  0.00  0.00    +0.000 C 
ENDBRANCH   4  11
ENDBRANCH   1   2
BRANCH   1  13
ATOM     13  C   UNL     1       2.029   7.481  18.696  0.00  0.00    +0.000 A 
ATOM     14  C   UNL     1       1.699   7.610  20.072  0.00  0.00    +0.000 A 
ATOM     15  C   UNL     1       1.329   8.836  20.653  0.00  0.00    +0.000 A 
ATOM     16  C   UNL     1       1.313   9.948  19.832  0.00  0.00    +0.000 A 
ATOM     17  C   UNL     1       1.680   9.850  18.511  0.00  0.00    +0.000 A 
ATOM     18  C   UNL     1       2.059   8.657  17.930  0.00  0.00    +0.000 A 
ATOM     19  O   UNL     1       1.626  11.037  17.850  0.00  0.00    +0.000 OA
ATOM     20  C   UNL     1       1.107  11.892  18.882  0.00  0.00    +0.000 C 
ATOM     21  O   UNL     1       0.969  11.227  20.152  0.00  0.00    +0.000 OA
BRANCH  15  22
ATOM     22  O   UNL     1       1.020   8.765  21.980  0.00  0.00    +0.000 OA
ATOM     23  C   UNL     1      -0.334   9.005  22.340  0.00  0.00    +0.000 C 
ENDBRANCH  15  22
ENDBRANCH   1  13
BRANCH   1  30
ATOM     24  C   UNL     1       2.279   3.007  17.162  0.00  0.00    +0.000 C 
ATOM     25  C   UNL     1       2.040   3.516  18.377  0.00  0.00    +0.000 C 
ATOM     26  C   UNL     1       1.975   2.662  19.583  0.00  0.00    +0.000 C 
ATOM     27  O   UNL     1       2.163   1.463  19.629  0.00  0.00    +0.000 OA
ATOM     28  O   UNL     1       1.591   3.443  20.627  0.00  0.00    +0.000 OA
ATOM     29  C   UNL     1       1.655   4.825  20.267  0.00  0.00    +0.000 C 
ATOM     30  C   UNL     1       1.649   4.905  18.745  0.00  0.00    +0.000 C 
ENDBRANCH   1  30
TORSDOF 5
ENDMDL
MODEL 8
REMARK VINA RESULT:      -8.0      1.139      2.385
REMARK  Name = 
REMARK  7 active torsions:
REMARK  status: ('A' for Active; 'I' for Inactive)
REMARK    1  A    between atoms: C_7  and  C_8
REMARK    2  A    between atoms: C_8  and  C_9
REMARK    3  A    between atoms: C_8  and  C_20
REMARK    4  A    between atoms: C_11  and  O_12
REMARK    5  A    between atoms: O_12  and  C_13
REMARK    6  A    between atoms: C_22  and  O_23
REMARK    7  A    between atoms: O_23  and  C_24
REMARK                            x       y       z     vdW  Elec       q    Type
REMARK                         _______ _______ _______ _____ _____    ______ ____
ROOT
ATOM      1  C   UNL     1       3.703   5.484  19.563  0.00  0.00    +0.000 C 
ENDROOT
BRANCH   1   2
ATOM      2  C   UNL     1       2.798   6.728  19.636  0.00  0.00    +0.000 A 
ATOM      3  C   UNL     1       2.806   7.682  18.584  0.00  0.00    +0.000 A 
ATOM      4  C   UNL     1       1.950   8.803  18.580  0.00  0.00    +0.000 A 
ATOM      5  C   UNL     1       1.117   8.971  19.670  0.00  0.00    +0.000 A 
ATOM      6  C   UNL     1       1.103   8.052  20.694  0.00  0.00    +0.000 A 
ATOM      7  C   UNL     1       1.898   6.925  20.694  0.00  0.00    +0.000 A 
ATOM      8  O   UNL     1       0.217   8.364  21.679  0.00  0.00    +0.000 OA
ATOM      9  C   UNL     1      -0.309   9.607  21.184  0.00  0.00    +0.000 C 
ATOM     10  O   UNL     1       0.223   9.975  19.899  0.00  0.00    +0.000 OA
BRANCH   4  11
ATOM     11  O   UNL     1       2.045   9.597  17.471  0.00  0.00    +0.000 OA
ATOM     12  C   UNL     1       2.381  10.965  17.683  0.00  0.00    +0.000 C 
ENDBRANCH   4  11
ENDBRANCH   1   2
BRANCH   1  13
ATOM     13  C   UNL     1       4.771   5.559  18.450  0.00  0.00    +0.000 A 
ATOM     14  C   UNL     1       5.988   6.261  18.660  0.00  0.00    +0.000 A 
ATOM     15  C   UNL     1       6.984   6.365  17.673  0.00  0.00    +0.000 A 
ATOM     16  C   UNL     1       6.751   5.733  16.466  0.00  0.00    +0.000 A 
ATOM     17  C   UNL     1       5.602   5.006  16.266  0.00  0.00    +0.000 A 
ATOM     18  C   UNL     1       4.621   4.883  17.229  0.00  0.00    +0.000 A 
ATOM     19  O   UNL     1       5.537   4.435  15.033  0.00  0.00    +0.000 OA
ATOM     20  C   UNL     1       6.743   4.946  14.441  0.00  0.00    +0.000 C 
ATOM     21  O   UNL     1       7.545   5.710  15.360  0.00  0.00    +0.000 OA
BRANCH  15  22
ATOM     22  O   UNL     1       8.073   7.100  18.042  0.00  0.00    +0.000 OA
ATOM     23  C   UNL     1       8.022   8.498  17.792  0.00  0.00    +0.000 C 
ENDBRANCH  15  22
ENDBRANCH   1  13
BRANCH   1  30
ATOM     24  C   UNL     1       1.300   4.452  17.643  0.00  0.00    +0.000 C 
ATOM     25  C   UNL     1       2.138   3.721  18.389  0.00  0.00    +0.000 C 
ATOM     26  C   UNL     1       2.287   2.262  18.194  0.00  0.00    +0.000 C 
ATOM     27  O   UNL     1       1.733   1.585  17.351  0.00  0.00    +0.000 OA
ATOM     28  O   UNL     1       3.100   1.791  19.177  0.00  0.00    +0.000 OA
ATOM     29  C   UNL     1       3.731   2.874  19.864  0.00  0.00    +0.000 C 
ATOM     30  C   UNL     1       2.916   4.131  19.591  0.00  0.00    +0.000 C 
ENDBRANCH   1  30
TORSDOF 5
ENDMDL
MODEL 9
REMARK VINA RESULT:      -7.9      1.723      6.376
REMARK  Name = 
REMARK  7 active torsions:
REMARK  status: ('A' for Active; 'I' for Inactive)
REMARK    1  A    between atoms: C_7  and  C_8
REMARK    2  A    between atoms: C_8  and  C_9
REMARK    3  A    between atoms: C_8  and  C_20
REMARK    4  A    between atoms: C_11  and  O_12
REMARK    5  A    between atoms: O_12  and  C_13
REMARK    6  A    between atoms: C_22  and  O_23
REMARK    7  A    between atoms: O_23  and  C_24
REMARK                            x       y       z     vdW  Elec       q    Type
REMARK                         _______ _______ _______ _____ _____    ______ ____
ROOT
ATOM      1  C   UNL     1       2.224   5.581  18.928  0.00  0.00    +0.000 C 
ENDROOT
BRANCH   1   2
ATOM      2  C   UNL     1       3.685   5.245  18.575  0.00  0.00    +0.000 A 
ATOM      3  C   UNL     1       3.999   4.626  17.335  0.00  0.00    +0.000 A 
ATOM      4  C   UNL     1       5.327   4.356  16.944  0.00  0.00    +0.000 A 
ATOM      5  C   UNL     1       6.330   4.679  17.838  0.00  0.00    +0.000 A 
ATOM      6  C   UNL     1       6.036   5.278  19.041  0.00  0.00    +0.000 A 
ATOM      7  C   UNL     1       4.748   5.594  19.421  0.00  0.00    +0.000 A 
ATOM      8  O   UNL     1       7.141   5.540  19.792  0.00  0.00    +0.000 OA
ATOM      9  C   UNL     1       8.173   5.007  18.945  0.00  0.00    +0.000 C 
ATOM     10  O   UNL     1       7.675   4.500  17.695  0.00  0.00    +0.000 OA
BRANCH   4  11
ATOM     11  O   UNL     1       5.460   3.804  15.701  0.00  0.00    +0.000 OA
ATOM     12  C   UNL     1       5.643   4.704  14.612  0.00  0.00    +0.000 C 
ENDBRANCH   4  11
ENDBRANCH   1   2
BRANCH   1  13
ATOM     13  C   UNL     1       1.968   7.090  19.133  0.00  0.00    +0.000 A 
ATOM     14  C   UNL     1       1.533   7.586  20.390  0.00  0.00    +0.000 A 
ATOM     15  C   UNL     1       1.278   8.949  20.621  0.00  0.00    +0.000 A 
ATOM     16  C   UNL     1       1.485   9.821  19.570  0.00  0.00    +0.000 A 
ATOM     17  C   UNL     1       1.955   9.364  18.362  0.00  0.00    +0.000 A 
ATOM     18  C   UNL     1       2.224   8.031  18.123  0.00  0.00    +0.000 A 
ATOM     19  O   UNL     1       2.120  10.352  17.442  0.00  0.00    +0.000 OA
ATOM     20  C   UNL     1       1.626  11.484  18.176  0.00  0.00    +0.000 C 
ATOM     21  O   UNL     1       1.286  11.169  19.539  0.00  0.00    +0.000 OA
BRANCH  15  22
ATOM     22  O   UNL     1       0.841   9.239  21.882  0.00  0.00    +0.000 OA
ATOM     23  C   UNL     1      -0.482   8.838  22.213  0.00  0.00    +0.000 C 
ENDBRANCH  15  22
ENDBRANCH   1  13
BRANCH   1  30
ATOM     24  C   UNL     1       1.146   2.524  18.788  0.00  0.00    +0.000 C 
ATOM     25  C   UNL     1       1.568   3.206  19.860  0.00  0.00    +0.000 C 
ATOM     26  C   UNL     1       1.905   2.532  21.133  0.00  0.00    +0.000 C 
ATOM     27  O   UNL     1       1.885   1.336  21.344  0.00  0.00    +0.000 OA
ATOM     28  O   UNL     1       2.171   3.493  22.057  0.00  0.00    +0.000 OA
ATOM     29  C   UNL     1       2.303   4.769  21.425  0.00  0.00    +0.000 C 
ATOM     30  C   UNL     1       1.629   4.680  20.062  0.00  0.00    +0.000 C 
ENDBRANCH   1  30
TORSDOF 5
ENDMDL
