MODEL 1
REMARK VINA RESULT:      -7.1      0.000      0.000
REMARK  Name = 
REMARK  7 active torsions:
REMARK  status: ('A' for Active; 'I' for Inactive)
REMARK    1  A    between atoms: C_1  and  O_2
REMARK    2  A    between atoms: O_2  and  C_3
REMARK    3  A    between atoms: C_6  and  S_7
REMARK    4  A    between atoms: S_7  and  N_10
REMARK    5  A    between atoms: N_10  and  C_11
REMARK    6  A    between atoms: C_11  and  C_12
REMARK    7  A    between atoms: N_14  and  O_15
REMARK                            x       y       z     vdW  Elec       q    Type
REMARK                         _______ _______ _______ _____ _____    ______ ____
ROOT
ATOM      1  S   UNL     1       5.998   4.885  15.801  0.00  0.00    +0.000 S 
ATOM      2  O   UNL     1       6.185   3.688  15.012  0.00  0.00    +0.000 OA
ATOM      3  O   UNL     1       5.866   6.187  15.192  0.00  0.00    +0.000 OA
ENDROOT
BRANCH   1   7
ATOM      4  C   UNL     1       2.336   4.170  18.434  0.00  0.00    +0.000 A 
ATOM      5  C   UNL     1       2.713   5.467  18.078  0.00  0.00    +0.000 A 
ATOM      6  C   UNL     1       3.842   5.688  17.290  0.00  0.00    +0.000 A 
ATOM      7  C   UNL     1       4.613   4.602  16.871  0.00  0.00    +0.000 A 
ATOM      8  C   UNL     1       4.254   3.299  17.230  0.00  0.00    +0.000 A 
ATOM      9  C   UNL     1       3.114   3.085  18.017  0.00  0.00    +0.000 A 
BRANCH   4  11
ATOM     10  C   UNL     1       1.339   3.354  20.422  0.00  0.00    +0.000 C 
ATOM     11  O   UNL     1       1.216   4.096  19.214  0.00  0.00    +0.000 OA
ENDBRANCH   4  11
ENDBRANCH   1   7
BRANCH   1  12
ATOM     12  N   UNL     1       7.316   4.948  16.858  0.00  0.00    +0.000 NA
ATOM     13  H   UNL     1       8.173   4.851  16.305  0.00  0.00    +0.000 HD
BRANCH  12  14
ATOM     14  C   UNL     1       7.315   6.067  17.828  0.00  0.00    +0.000 C 
BRANCH  14  15
ATOM     15  C   UNL     1       7.233   5.575  19.264  0.00  0.00    +0.000 C 
ATOM     16  O   UNL     1       6.192   5.190  19.789  0.00  0.00    +0.000 OA
ATOM     17  N   UNL     1       8.429   5.559  19.936  0.00  0.00    +0.000 N 
ATOM     18  H   UNL     1       9.326   5.745  19.498  0.00  0.00    +0.000 HD
BRANCH  17  19
ATOM     19  O   UNL     1       8.419   5.071  21.259  0.00  0.00    +0.000 OA
ATOM     20  H   UNL     1       7.480   4.810  21.384  0.00  0.00    +0.000 HD
ENDBRANCH  17  19
ENDBRANCH  14  15
ENDBRANCH  12  14
ENDBRANCH   1  12
TORSDOF 6
ENDMDL
MODEL 2
REMARK VINA RESULT:      -6.9      1.107      1.600
REMARK  Name = 
REMARK  7 active torsions:
REMARK  status: ('A' for Active; 'I' for Inactive)
REMARK    1  A    between atoms: C_1  and  O_2
REMARK    2  A    between atoms: O_2  and  C_3
REMARK    3  A    between atoms: C_6  and  S_7
REMARK    4  A    between atoms: S_7  and  N_10
REMARK    5  A    between atoms: N_10  and  C_11
REMARK    6  A    between atoms: C_11  and  C_12
REMARK    7  A    between atoms: N_14  and  O_15
REMARK                            x       y       z     vdW  Elec       q    Type
REMARK                         _______ _______ _______ _____ _____    ______ ____
ROOT
ATOM      1  S   UNL     1       5.529   5.644  15.452  0.00  0.00    +0.000 S 
ATOM      2  O   UNL     1       5.534   4.622  14.429  0.00  0.00    +0.000 OA
ATOM      3  O   UNL     1       5.123   7.001  15.173  0.00  0.00    +0.000 OA
ENDROOT
BRANCH   1   7
ATOM      4  C   UNL     1       3.210   4.052  19.050  0.00  0.00    +0.000 A 
ATOM      5  C   UNL     1       3.979   3.191  18.263  0.00  0.00    +0.000 A 
ATOM      6  C   UNL     1       4.673   3.673  17.153  0.00  0.00    +0.000 A 
ATOM      7  C   UNL     1       4.579   5.024  16.815  0.00  0.00    +0.000 A 
ATOM      8  C   UNL     1       3.803   5.894  17.587  0.00  0.00    +0.000 A 
ATOM      9  C   UNL     1       3.115   5.403  18.705  0.00  0.00    +0.000 A 
BRANCH   4  11
ATOM     10  C   UNL     1       1.517   2.561  19.773  0.00  0.00    +0.000 C 
ATOM     11  O   UNL     1       2.578   3.450  20.102  0.00  0.00    +0.000 OA
ENDBRANCH   4  11
ENDBRANCH   1   7
BRANCH   1  12
ATOM     12  N   UNL     1       7.108   5.697  16.054  0.00  0.00    +0.000 NA
ATOM     13  H   UNL     1       7.728   6.000  15.296  0.00  0.00    +0.000 HD
BRANCH  12  14
ATOM     14  C   UNL     1       7.287   6.415  17.338  0.00  0.00    +0.000 C 
BRANCH  14  15
ATOM     15  C   UNL     1       7.732   5.481  18.452  0.00  0.00    +0.000 C 
ATOM     16  O   UNL     1       7.979   4.290  18.279  0.00  0.00    +0.000 OA
ATOM     17  N   UNL     1       7.871   6.076  19.680  0.00  0.00    +0.000 N 
ATOM     18  H   UNL     1       7.803   7.077  19.834  0.00  0.00    +0.000 HD
BRANCH  17  19
ATOM     19  O   UNL     1       8.323   5.265  20.742  0.00  0.00    +0.000 OA
ATOM     20  H   UNL     1       9.284   5.470  20.773  0.00  0.00    +0.000 HD
ENDBRANCH  17  19
ENDBRANCH  14  15
ENDBRANCH  12  14
ENDBRANCH   1  12
TORSDOF 6
ENDMDL
MODEL 3
REMARK VINA RESULT:      -6.7      1.981      3.855
REMARK  Name = 
REMARK  7 active torsions:
REMARK  status: ('A' for Active; 'I' for Inactive)
REMARK    1  A    between atoms: C_1  and  O_2
REMARK    2  A    between atoms: O_2  and  C_3
REMARK    3  A    between atoms: C_6  and  S_7
REMARK    4  A    between atoms: S_7  and  N_10
REMARK    5  A    between atoms: N_10  and  C_11
REMARK    6  A    between atoms: C_11  and  C_12
REMARK    7  A    between atoms: N_14  and  O_15
REMARK                            x       y       z     vdW  Elec       q    Type
REMARK                         _______ _______ _______ _____ _____    ______ ____
ROOT
ATOM      1  S   UNL     1       6.919   6.017  17.576  0.00  0.00    +0.000 S 
ATOM      2  O   UNL     1       6.711   7.116  16.660  0.00  0.00    +0.000 OA
ATOM      3  O   UNL     1       7.730   6.155  18.763  0.00  0.00    +0.000 OA
ENDROOT
BRANCH   1   7
ATOM      4  C   UNL     1       2.816   4.505  18.892  0.00  0.00    +0.000 A 
ATOM      5  C   UNL     1       3.981   3.873  19.333  0.00  0.00    +0.000 A 
ATOM      6  C   UNL     1       5.235   4.322  18.917  0.00  0.00    +0.000 A 
ATOM      7  C   UNL     1       5.322   5.400  18.035  0.00  0.00    +0.000 A 
ATOM      8  C   UNL     1       4.163   6.034  17.575  0.00  0.00    +0.000 A 
ATOM      9  C   UNL     1       2.907   5.581  18.004  0.00  0.00    +0.000 A 
BRANCH   4  11
ATOM     10  C   UNL     1       1.212   4.439  20.634  0.00  0.00    +0.000 C 
ATOM     11  O   UNL     1       1.657   3.960  19.370  0.00  0.00    +0.000 OA
ENDBRANCH   4  11
ENDBRANCH   1   7
BRANCH   1  12
ATOM     12  N   UNL     1       7.581   4.768  16.648  0.00  0.00    +0.000 NA
ATOM     13  H   UNL     1       8.080   4.132  17.279  0.00  0.00    +0.000 HD
BRANCH  12  14
ATOM     14  C   UNL     1       6.658   4.111  15.694  0.00  0.00    +0.000 C 
BRANCH  14  15
ATOM     15  C   UNL     1       6.964   4.493  14.255  0.00  0.00    +0.000 C 
ATOM     16  O   UNL     1       6.425   3.964  13.285  0.00  0.00    +0.000 OA
ATOM     17  N   UNL     1       7.875   5.507  14.109  0.00  0.00    +0.000 N 
ATOM     18  H   UNL     1       8.241   6.053  14.883  0.00  0.00    +0.000 HD
BRANCH  17  19
ATOM     19  O   UNL     1       8.165   5.931  12.795  0.00  0.00    +0.000 OA
ATOM     20  H   UNL     1       7.493   5.451  12.263  0.00  0.00    +0.000 HD
ENDBRANCH  17  19
ENDBRANCH  14  15
ENDBRANCH  12  14
ENDBRANCH   1  12
TORSDOF 6
ENDMDL
MODEL 4
REMARK VINA RESULT:      -6.6      2.983      5.599
REMARK  Name = 
REMARK  7 active torsions:
REMARK  status: ('A' for Active; 'I' for Inactive)
REMARK    1  A    between atoms: C_1  and  O_2
REMARK    2  A    between atoms: O_2  and  C_3
REMARK    3  A    between atoms: C_6  and  S_7
REMARK    4  A    between atoms: S_7  and  N_10
REMARK    5  A    between atoms: N_10  and  C_11
REMARK    6  A    between atoms: C_11  and  C_12
REMARK    7  A    between atoms: N_14  and  O_15
REMARK                            x       y       z     vdW  Elec       q    Type
REMARK                         _______ _______ _______ _____ _____    ______ ____
ROOT
ATOM      1  S   UNL     1       5.369   4.633  19.088  0.00  0.00    +0.000 S 
ATOM      2  O   UNL     1       6.507   5.138  19.822  0.00  0.00    +0.000 OA
ATOM      3  O   UNL     1       4.064   5.245  19.186  0.00  0.00    +0.000 OA
ENDROOT
BRANCH   1   7
ATOM      4  C   UNL     1       6.528   4.542  14.672  0.00  0.00    +0.000 A 
ATOM      5  C   UNL     1       5.207   4.317  15.064  0.00  0.00    +0.000 A 
ATOM      6  C   UNL     1       4.854   4.326  16.414  0.00  0.00    +0.000 A 
ATOM      7  C   UNL     1       5.838   4.541  17.381  0.00  0.00    +0.000 A 
ATOM      8  C   UNL     1       7.167   4.756  17.003  0.00  0.00    +0.000 A 
ATOM      9  C   UNL     1       7.511   4.752  15.643  0.00  0.00    +0.000 A 
BRANCH   4  11
ATOM     10  C   UNL     1       6.089   3.445  12.618  0.00  0.00    +0.000 C 
ATOM     11  O   UNL     1       6.737   4.499  13.322  0.00  0.00    +0.000 OA
ENDBRANCH   4  11
ENDBRANCH   1   7
BRANCH   1  12
ATOM     12  N   UNL     1       5.208   3.014  19.548  0.00  0.00    +0.000 NA
ATOM     13  H   UNL     1       6.015   2.767  20.131  0.00  0.00    +0.000 HD
BRANCH  12  14
ATOM     14  C   UNL     1       3.890   2.627  20.102  0.00  0.00    +0.000 C 
BRANCH  14  15
ATOM     15  C   UNL     1       2.946   2.125  19.021  0.00  0.00    +0.000 C 
ATOM     16  O   UNL     1       3.327   1.555  18.001  0.00  0.00    +0.000 OA
ATOM     17  N   UNL     1       1.615   2.328  19.279  0.00  0.00    +0.000 N 
ATOM     18  H   UNL     1       1.257   2.676  20.164  0.00  0.00    +0.000 HD
BRANCH  17  19
ATOM     19  O   UNL     1       0.691   1.844  18.329  0.00  0.00    +0.000 OA
ATOM     20  H   UNL     1       0.326   2.671  17.946  0.00  0.00    +0.000 HD
ENDBRANCH  17  19
ENDBRANCH  14  15
ENDBRANCH  12  14
ENDBRANCH   1  12
TORSDOF 6
ENDMDL
MODEL 5
REMARK VINA RESULT:      -6.5      2.095      4.075
REMARK  Name = 
REMARK  7 active torsions:
REMARK  status: ('A' for Active; 'I' for Inactive)
REMARK    1  A    between atoms: C_1  and  O_2
REMARK    2  A    between atoms: O_2  and  C_3
REMARK    3  A    between atoms: C_6  and  S_7
REMARK    4  A    between atoms: S_7  and  N_10
REMARK    5  A    between atoms: N_10  and  C_11
REMARK    6  A    between atoms: C_11  and  C_12
REMARK    7  A    between atoms: N_14  and  O_15
REMARK                            x       y       z     vdW  Elec       q    Type
REMARK                         _______ _______ _______ _____ _____    ______ ____
ROOT
ATOM      1  S   UNL     1       7.077   5.517  18.049  0.00  0.00    +0.000 S 
ATOM      2  O   UNL     1       7.160   6.795  17.378  0.00  0.00    +0.000 OA
ATOM      3  O   UNL     1       7.859   5.220  19.226  0.00  0.00    +0.000 OA
ENDROOT
BRANCH   1   7
ATOM      4  C   UNL     1       2.690   4.795  19.093  0.00  0.00    +0.000 A 
ATOM      5  C   UNL     1       3.675   3.895  19.505  0.00  0.00    +0.000 A 
ATOM      6  C   UNL     1       5.014   4.104  19.171  0.00  0.00    +0.000 A 
ATOM      7  C   UNL     1       5.366   5.213  18.400  0.00  0.00    +0.000 A 
ATOM      8  C   UNL     1       4.388   6.116  17.970  0.00  0.00    +0.000 A 
ATOM      9  C   UNL     1       3.046   5.902  18.316  0.00  0.00    +0.000 A 
BRANCH   4  11
ATOM     10  C   UNL     1       1.078   3.089  19.412  0.00  0.00    +0.000 C 
ATOM     11  O   UNL     1       1.421   4.468  19.482  0.00  0.00    +0.000 OA
ENDBRANCH   4  11
ENDBRANCH   1   7
BRANCH   1  12
ATOM     12  N   UNL     1       7.459   4.359  16.878  0.00  0.00    +0.000 NA
ATOM     13  H   UNL     1       7.832   3.532  17.356  0.00  0.00    +0.000 HD
BRANCH  12  14
ATOM     14  C   UNL     1       6.406   4.083  15.874  0.00  0.00    +0.000 C 
BRANCH  14  15
ATOM     15  C   UNL     1       6.859   4.433  14.466  0.00  0.00    +0.000 C 
ATOM     16  O   UNL     1       7.631   5.355  14.213  0.00  0.00    +0.000 OA
ATOM     17  N   UNL     1       6.365   3.617  13.481  0.00  0.00    +0.000 N 
ATOM     18  H   UNL     1       5.833   2.771  13.663  0.00  0.00    +0.000 HD
BRANCH  17  19
ATOM     19  O   UNL     1       6.787   3.870  12.159  0.00  0.00    +0.000 OA
ATOM     20  H   UNL     1       6.963   2.967  11.814  0.00  0.00    +0.000 HD
ENDBRANCH  17  19
ENDBRANCH  14  15
ENDBRANCH  12  14
ENDBRANCH   1  12
TORSDOF 6
ENDMDL
MODEL 6
REMARK VINA RESULT:      -6.5      2.961      5.463
REMARK  Name = 
REMARK  7 active torsions:
REMARK  status: ('A' for Active; 'I' for Inactive)
REMARK    1  A    between atoms: C_1  and  O_2
REMARK    2  A    between atoms: O_2  and  C_3
REMARK    3  A    between atoms: C_6  and  S_7
REMARK    4  A    between atoms: S_7  and  N_10
REMARK    5  A    between atoms: N_10  and  C_11
REMARK    6  A    between atoms: C_11  and  C_12
REMARK    7  A    between atoms: N_14  and  O_15
REMARK                            x       y       z     vdW  Elec       q    Type
REMARK                         _______ _______ _______ _____ _____    ______ ____
ROOT
ATOM      1  S   UNL     1       5.270   4.623  19.049  0.00  0.00    +0.000 S 
ATOM      2  O   UNL     1       6.351   5.225  19.798  0.00  0.00    +0.000 OA
ATOM      3  O   UNL     1       3.924   5.143  19.100  0.00  0.00    +0.000 OA
ENDROOT
BRANCH   1   7
ATOM      4  C   UNL     1       6.555   4.508  14.669  0.00  0.00    +0.000 A 
ATOM      5  C   UNL     1       5.229   4.253  15.027  0.00  0.00    +0.000 A 
ATOM      6  C   UNL     1       4.839   4.269  16.366  0.00  0.00    +0.000 A 
ATOM      7  C   UNL     1       5.789   4.522  17.357  0.00  0.00    +0.000 A 
ATOM      8  C   UNL     1       7.123   4.767  17.013  0.00  0.00    +0.000 A 
ATOM      9  C   UNL     1       7.505   4.756  15.665  0.00  0.00    +0.000 A 
BRANCH   4  11
ATOM     10  C   UNL     1       6.099   3.455  12.596  0.00  0.00    +0.000 C 
ATOM     11  O   UNL     1       6.803   4.454  13.326  0.00  0.00    +0.000 OA
ENDBRANCH   4  11
ENDBRANCH   1   7
BRANCH   1  12
ATOM     12  N   UNL     1       5.211   3.008  19.549  0.00  0.00    +0.000 NA
ATOM     13  H   UNL     1       5.545   2.961  20.517  0.00  0.00    +0.000 HD
BRANCH  12  14
ATOM     14  C   UNL     1       3.940   2.296  19.286  0.00  0.00    +0.000 C 
BRANCH  14  15
ATOM     15  C   UNL     1       2.918   2.536  20.386  0.00  0.00    +0.000 C 
ATOM     16  O   UNL     1       3.176   2.439  21.583  0.00  0.00    +0.000 OA
ATOM     17  N   UNL     1       1.673   2.906  19.944  0.00  0.00    +0.000 N 
ATOM     18  H   UNL     1       1.458   3.122  18.976  0.00  0.00    +0.000 HD
BRANCH  17  19
ATOM     19  O   UNL     1       0.696   3.183  20.923  0.00  0.00    +0.000 OA
ATOM     20  H   UNL     1       0.640   4.164  20.897  0.00  0.00    +0.000 HD
ENDBRANCH  17  19
ENDBRANCH  14  15
ENDBRANCH  12  14
ENDBRANCH   1  12
TORSDOF 6
ENDMDL
MODEL 7
REMARK VINA RESULT:      -6.4      1.028      1.575
REMARK  Name = 
REMARK  7 active torsions:
REMARK  status: ('A' for Active; 'I' for Inactive)
REMARK    1  A    between atoms: C_1  and  O_2
REMARK    2  A    between atoms: O_2  and  C_3
REMARK    3  A    between atoms: C_6  and  S_7
REMARK    4  A    between atoms: S_7  and  N_10
REMARK    5  A    between atoms: N_10  and  C_11
REMARK    6  A    between atoms: C_11  and  C_12
REMARK    7  A    between atoms: N_14  and  O_15
REMARK                            x       y       z     vdW  Elec       q    Type
REMARK                         _______ _______ _______ _____ _____    ______ ____
ROOT
ATOM      1  S   UNL     1       5.550   5.084  15.791  0.00  0.00    +0.000 S 
ATOM      2  O   UNL     1       5.685   3.835  15.075  0.00  0.00    +0.000 OA
ATOM      3  O   UNL     1       5.396   6.345  15.104  0.00  0.00    +0.000 OA
ENDROOT
BRANCH   1   7
ATOM      4  C   UNL     1       2.233   4.534  18.881  0.00  0.00    +0.000 A 
ATOM      5  C   UNL     1       2.702   3.446  18.142  0.00  0.00    +0.000 A 
ATOM      6  C   UNL     1       3.702   3.616  17.184  0.00  0.00    +0.000 A 
ATOM      7  C   UNL     1       4.222   4.890  16.950  0.00  0.00    +0.000 A 
ATOM      8  C   UNL     1       3.753   5.990  17.675  0.00  0.00    +0.000 A 
ATOM      9  C   UNL     1       2.753   5.810  18.640  0.00  0.00    +0.000 A 
BRANCH   4  11
ATOM     10  C   UNL     1       1.084   2.851  20.089  0.00  0.00    +0.000 C 
ATOM     11  O   UNL     1       1.249   4.231  19.780  0.00  0.00    +0.000 OA
ENDBRANCH   4  11
ENDBRANCH   1   7
BRANCH   1  12
ATOM     12  N   UNL     1       6.924   5.202  16.770  0.00  0.00    +0.000 NA
ATOM     13  H   UNL     1       7.680   4.673  16.323  0.00  0.00    +0.000 HD
BRANCH  12  14
ATOM     14  C   UNL     1       7.287   6.567  17.212  0.00  0.00    +0.000 C 
BRANCH  14  15
ATOM     15  C   UNL     1       7.910   6.567  18.599  0.00  0.00    +0.000 C 
ATOM     16  O   UNL     1       8.610   7.482  19.027  0.00  0.00    +0.000 OA
ATOM     17  N   UNL     1       7.607   5.472  19.366  0.00  0.00    +0.000 N 
ATOM     18  H   UNL     1       6.931   4.763  19.098  0.00  0.00    +0.000 HD
BRANCH  17  19
ATOM     19  O   UNL     1       8.123   5.439  20.679  0.00  0.00    +0.000 OA
ATOM     20  H   UNL     1       8.470   4.523  20.749  0.00  0.00    +0.000 HD
ENDBRANCH  17  19
ENDBRANCH  14  15
ENDBRANCH  12  14
ENDBRANCH   1  12
TORSDOF 6
ENDMDL
MODEL 8
REMARK VINA RESULT:      -6.4      2.854      5.347
REMARK  Name = 
REMARK  7 active torsions:
REMARK  status: ('A' for Active; 'I' for Inactive)
REMARK    1  A    between atoms: C_1  and  O_2
REMARK    2  A    between atoms: O_2  and  C_3
REMARK    3  A    between atoms: C_6  and  S_7
REMARK    4  A    between atoms: S_7  and  N_10
REMARK    5  A    between atoms: N_10  and  C_11
REMARK    6  A    between atoms: C_11  and  C_12
REMARK    7  A    between atoms: N_14  and  O_15
REMARK                            x       y       z     vdW  Elec       q    Type
REMARK                         _______ _______ _______ _____ _____    ______ ____
ROOT
ATOM      1  S   UNL     1       5.391   4.705  19.137  0.00  0.00    +0.000 S 
ATOM      2  O   UNL     1       6.608   5.057  19.833  0.00  0.00    +0.000 OA
ATOM      3  O   UNL     1       4.158   5.429  19.340  0.00  0.00    +0.000 OA
ENDROOT
BRANCH   1   7
ATOM      4  C   UNL     1       6.384   4.466  14.686  0.00  0.00    +0.000 A 
ATOM      5  C   UNL     1       7.401   4.601  15.634  0.00  0.00    +0.000 A 
ATOM      6  C   UNL     1       7.098   4.693  16.992  0.00  0.00    +0.000 A 
ATOM      7  C   UNL     1       5.764   4.671  17.404  0.00  0.00    +0.000 A 
ATOM      8  C   UNL     1       4.735   4.548  16.464  0.00  0.00    +0.000 A 
ATOM      9  C   UNL     1       5.049   4.449  15.101  0.00  0.00    +0.000 A 
BRANCH   4  11
ATOM     10  C   UNL     1       6.129   3.477  12.548  0.00  0.00    +0.000 C 
ATOM     11  O   UNL     1       6.818   4.393  13.391  0.00  0.00    +0.000 OA
ENDBRANCH   4  11
ENDBRANCH   1   7
BRANCH   1  12
ATOM     12  N   UNL     1       5.099   3.083  19.517  0.00  0.00    +0.000 NA
ATOM     13  H   UNL     1       5.153   2.980  20.535  0.00  0.00    +0.000 HD
BRANCH  12  14
ATOM     14  C   UNL     1       3.904   2.476  18.885  0.00  0.00    +0.000 C 
BRANCH  14  15
ATOM     15  C   UNL     1       2.728   2.408  19.846  0.00  0.00    +0.000 C 
ATOM     16  O   UNL     1       1.620   1.982  19.530  0.00  0.00    +0.000 OA
ATOM     17  N   UNL     1       3.001   2.832  21.121  0.00  0.00    +0.000 N 
ATOM     18  H   UNL     1       3.932   3.066  21.452  0.00  0.00    +0.000 HD
BRANCH  17  19
ATOM     19  O   UNL     1       1.957   2.750  22.066  0.00  0.00    +0.000 OA
ATOM     20  H   UNL     1       2.166   1.918  22.545  0.00  0.00    +0.000 HD
ENDBRANCH  17  19
ENDBRANCH  14  15
ENDBRANCH  12  14
ENDBRANCH   1  12
TORSDOF 6
ENDMDL
MODEL 9
REMARK VINA RESULT:      -6.4      2.679      3.648
REMARK  Name = 
REMARK  7 active torsions:
REMARK  status: ('A' for Active; 'I' for Inactive)
REMARK    1  A    between atoms: C_1  and  O_2
REMARK    2  A    between atoms: O_2  and  C_3
REMARK    3  A    between atoms: C_6  and  S_7
REMARK    4  A    between atoms: S_7  and  N_10
REMARK    5  A    between atoms: N_10  and  C_11
REMARK    6  A    between atoms: C_11  and  C_12
REMARK    7  A    between atoms: N_14  and  O_15
REMARK                            x       y       z     vdW  Elec       q    Type
REMARK                         _______ _______ _______ _____ _____    ______ ____
ROOT
ATOM      1  S   UNL     1       3.877   3.626  18.043  0.00  0.00    +0.000 S 
ATOM      2  O   UNL     1       3.115   2.509  18.554  0.00  0.00    +0.000 OA
ATOM      3  O   UNL     1       4.077   3.831  16.627  0.00  0.00    +0.000 OA
ENDROOT
BRANCH   1   7
ATOM      4  C   UNL     1       1.989   7.400  19.787  0.00  0.00    +0.000 A 
ATOM      5  C   UNL     1       2.585   7.423  18.524  0.00  0.00    +0.000 A 
ATOM      6  C   UNL     1       3.179   6.275  17.998  0.00  0.00    +0.000 A 
ATOM      7  C   UNL     1       3.195   5.101  18.751  0.00  0.00    +0.000 A 
ATOM      8  C   UNL     1       2.613   5.068  20.023  0.00  0.00    +0.000 A 
ATOM      9  C   UNL     1       2.012   6.223  20.541  0.00  0.00    +0.000 A 
BRANCH   4  11
ATOM     10  C   UNL     1       0.720   8.577  21.405  0.00  0.00    +0.000 C 
ATOM     11  O   UNL     1       1.452   8.593  20.184  0.00  0.00    +0.000 OA
ENDBRANCH   4  11
ENDBRANCH   1   7
BRANCH   1  12
ATOM     12  N   UNL     1       5.404   3.504  18.760  0.00  0.00    +0.000 NA
ATOM     13  H   UNL     1       5.865   2.669  18.388  0.00  0.00    +0.000 HD
BRANCH  12  14
ATOM     14  C   UNL     1       6.225   4.737  18.745  0.00  0.00    +0.000 C 
BRANCH  14  15
ATOM     15  C   UNL     1       7.225   4.738  17.600  0.00  0.00    +0.000 C 
ATOM     16  O   UNL     1       8.305   4.154  17.644  0.00  0.00    +0.000 OA
ATOM     17  N   UNL     1       6.819   5.422  16.483  0.00  0.00    +0.000 N 
ATOM     18  H   UNL     1       5.887   5.804  16.362  0.00  0.00    +0.000 HD
BRANCH  17  19
ATOM     19  O   UNL     1       7.690   5.420  15.373  0.00  0.00    +0.000 OA
ATOM     20  H   UNL     1       8.506   5.826  15.741  0.00  0.00    +0.000 HD
ENDBRANCH  17  19
ENDBRANCH  14  15
ENDBRANCH  12  14
ENDBRANCH   1  12
TORSDOF 6
ENDMDL
