MODEL 1
REMARK VINA RESULT:      -6.0      0.000      0.000
REMARK  Name = 
REMARK  6 active torsions:
REMARK  status: ('A' for Active; 'I' for Inactive)
REMARK    1  A    between atoms: C_1  and  N_2
REMARK    2  A    between atoms: N_2  and  C_3
REMARK    3  A    between atoms: N_2  and  C_4
REMARK    4  A    between atoms: C_4  and  C_5
REMARK    5  A    between atoms: C_5  and  N_6
REMARK    6  A    between atoms: C_7  and  C_9
REMARK                            x       y       z     vdW  Elec       q    Type
REMARK                         _______ _______ _______ _____ _____    ______ ____
ROOT
ATOM      1  N   UNL     1       4.566   4.162  16.206  0.00  0.00    +0.000 N 
ATOM      2  C   UNL     1       3.375   3.887  16.900  0.00  0.00    +0.000 C 
ATOM      3  O   UNL     1       2.600   3.024  16.497  0.00  0.00    +0.000 OA
ATOM      4  C   UNL     1       5.455   5.083  16.706  0.00  0.00    +0.000 A 
ATOM      5  N   UNL     1       6.441   4.825  17.526  0.00  0.00    +0.000 NA
ATOM      6  C   UNL     1       7.052   6.014  17.882  0.00  0.00    +0.000 A 
ATOM      7  C   UNL     1       8.068   6.161  18.851  0.00  0.00    +0.000 A 
ATOM      8  C   UNL     1       8.602   7.427  19.104  0.00  0.00    +0.000 A 
ATOM      9  C   UNL     1       8.141   8.529  18.395  0.00  0.00    +0.000 A 
ATOM     10  F   UNL     1       8.679   9.731  18.640  0.00  0.00    +0.000 F 
ATOM     11  C   UNL     1       7.131   8.422  17.443  0.00  0.00    +0.000 A 
ATOM     12  C   UNL     1       6.584   7.152  17.213  0.00  0.00    +0.000 A 
ATOM     13  S   UNL     1       5.294   6.689  16.161  0.00  0.00    +0.000 S 
ENDROOT
BRANCH   2  14
ATOM     14  C   UNL     1       3.031   4.650  18.118  0.00  0.00    +0.000 A 
ATOM     15  C   UNL     1       2.640   6.037  18.211  0.00  0.00    +0.000 A 
ATOM     16  C   UNL     1       2.392   6.426  19.501  0.00  0.00    +0.000 A 
ATOM     17 CL   UNL     1       1.848   7.969  20.019  0.00  0.00    +0.000 Cl
ATOM     18  S   UNL     1       2.694   5.211  20.630  0.00  0.00    +0.000 S 
ATOM     19  C   UNL     1       3.135   4.129  19.395  0.00  0.00    +0.000 A 
ATOM     20 CL   UNL     1       3.607   2.540  19.868  0.00  0.00    +0.000 Cl
ENDBRANCH   2  14
BRANCH   1  21
ATOM     21  C   UNL     1       4.996   3.252  15.129  0.00  0.00    +0.000 C 
BRANCH  21  22
ATOM     22  C   UNL     1       5.982   3.926  14.146  0.00  0.00    +0.000 C 
BRANCH  22  24
ATOM     23  C   UNL     1       4.813   3.377  12.117  0.00  0.00    +0.000 C 
ATOM     24  N   UNL     1       6.107   3.297  12.812  0.00  0.00    +0.000 NA
ATOM     25  C   UNL     1       7.139   3.917  11.980  0.00  0.00    +0.000 C 
ENDBRANCH  22  24
ENDBRANCH  21  22
ENDBRANCH   1  21
TORSDOF 4
ENDMDL
MODEL 2
REMARK VINA RESULT:      -5.9      9.185     11.623
REMARK  Name = 
REMARK  6 active torsions:
REMARK  status: ('A' for Active; 'I' for Inactive)
REMARK    1  A    between atoms: C_1  and  N_2
REMARK    2  A    between atoms: N_2  and  C_3
REMARK    3  A    between atoms: N_2  and  C_4
REMARK    4  A    between atoms: C_4  and  C_5
REMARK    5  A    between atoms: C_5  and  N_6
REMARK    6  A    between atoms: C_7  and  C_9
REMARK                            x       y       z     vdW  Elec       q    Type
REMARK                         _______ _______ _______ _____ _____    ______ ____
ROOT
ATOM      1  N   UNL     1      -0.680  13.939  20.559  0.00  0.00    +0.000 N 
ATOM      2  C   UNL     1      -0.009  13.341  21.640  0.00  0.00    +0.000 C 
ATOM      3  O   UNL     1       0.563  14.029  22.480  0.00  0.00    +0.000 OA
ATOM      4  C   UNL     1      -1.373  13.159  19.663  0.00  0.00    +0.000 A 
ATOM      5  N   UNL     1      -2.632  12.819  19.763  0.00  0.00    +0.000 NA
ATOM      6  C   UNL     1      -2.946  11.953  18.731  0.00  0.00    +0.000 A 
ATOM      7  C   UNL     1      -4.169  11.265  18.575  0.00  0.00    +0.000 A 
ATOM      8  C   UNL     1      -4.352  10.424  17.474  0.00  0.00    +0.000 A 
ATOM      9  C   UNL     1      -3.338  10.278  16.537  0.00  0.00    +0.000 A 
ATOM     10  F   UNL     1      -3.540   9.481  15.479  0.00  0.00    +0.000 F 
ATOM     11  C   UNL     1      -2.115  10.930  16.668  0.00  0.00    +0.000 A 
ATOM     12  C   UNL     1      -1.931  11.753  17.787  0.00  0.00    +0.000 A 
ATOM     13  S   UNL     1      -0.532  12.641  18.275  0.00  0.00    +0.000 S 
ENDROOT
BRANCH   2  14
ATOM     14  C   UNL     1       0.030  11.870  21.767  0.00  0.00    +0.000 A 
ATOM     15  C   UNL     1       0.924  10.948  21.104  0.00  0.00    +0.000 A 
ATOM     16  C   UNL     1       0.683   9.645  21.451  0.00  0.00    +0.000 A 
ATOM     17 CL   UNL     1       1.565   8.268  20.929  0.00  0.00    +0.000 Cl
ATOM     18  S   UNL     1      -0.637   9.464  22.483  0.00  0.00    +0.000 S 
ATOM     19  C   UNL     1      -0.890  11.146  22.505  0.00  0.00    +0.000 A 
ATOM     20 CL   UNL     1      -2.203  11.735  23.454  0.00  0.00    +0.000 Cl
ENDBRANCH   2  14
BRANCH   1  21
ATOM     21  C   UNL     1      -0.895  15.397  20.565  0.00  0.00    +0.000 C 
BRANCH  21  22
ATOM     22  C   UNL     1      -0.059  16.122  19.484  0.00  0.00    +0.000 C 
BRANCH  22  24
ATOM     23  C   UNL     1      -1.881  17.651  19.130  0.00  0.00    +0.000 C 
ATOM     24  N   UNL     1      -0.822  16.877  18.465  0.00  0.00    +0.000 NA
ATOM     25  C   UNL     1       0.014  17.784  17.677  0.00  0.00    +0.000 C 
ENDBRANCH  22  24
ENDBRANCH  21  22
ENDBRANCH   1  21
TORSDOF 4
ENDMDL
MODEL 3
REMARK VINA RESULT:      -5.8      9.149     11.445
REMARK  Name = 
REMARK  6 active torsions:
REMARK  status: ('A' for Active; 'I' for Inactive)
REMARK    1  A    between atoms: C_1  and  N_2
REMARK    2  A    between atoms: N_2  and  C_3
REMARK    3  A    between atoms: N_2  and  C_4
REMARK    4  A    between atoms: C_4  and  C_5
REMARK    5  A    between atoms: C_5  and  N_6
REMARK    6  A    between atoms: C_7  and  C_9
REMARK                            x       y       z     vdW  Elec       q    Type
REMARK                         _______ _______ _______ _____ _____    ______ ____
ROOT
ATOM      1  N   UNL     1      -0.707  13.947  20.604  0.00  0.00    +0.000 N 
ATOM      2  C   UNL     1       0.002  13.331  21.650  0.00  0.00    +0.000 C 
ATOM      3  O   UNL     1       0.577  14.007  22.499  0.00  0.00    +0.000 OA
ATOM      4  C   UNL     1      -1.401  13.179  19.699  0.00  0.00    +0.000 A 
ATOM      5  N   UNL     1      -2.649  12.803  19.816  0.00  0.00    +0.000 NA
ATOM      6  C   UNL     1      -2.965  11.964  18.763  0.00  0.00    +0.000 A 
ATOM      7  C   UNL     1      -4.174  11.250  18.612  0.00  0.00    +0.000 A 
ATOM      8  C   UNL     1      -4.361  10.440  17.488  0.00  0.00    +0.000 A 
ATOM      9  C   UNL     1      -3.365  10.351  16.524  0.00  0.00    +0.000 A 
ATOM     10  F   UNL     1      -3.572   9.583  15.446  0.00  0.00    +0.000 F 
ATOM     11  C   UNL     1      -2.156  11.028  16.650  0.00  0.00    +0.000 A 
ATOM     12  C   UNL     1      -1.967  11.819  17.791  0.00  0.00    +0.000 A 
ATOM     13  S   UNL     1      -0.580  12.727  18.277  0.00  0.00    +0.000 S 
ENDROOT
BRANCH   2  14
ATOM     14  C   UNL     1       0.081  11.858  21.729  0.00  0.00    +0.000 A 
ATOM     15  C   UNL     1       0.994  10.983  21.030  0.00  0.00    +0.000 A 
ATOM     16  C   UNL     1       0.790   9.663  21.335  0.00  0.00    +0.000 A 
ATOM     17 CL   UNL     1       1.703   8.328  20.762  0.00  0.00    +0.000 Cl
ATOM     18  S   UNL     1      -0.518   9.414  22.369  0.00  0.00    +0.000 S 
ATOM     19  C   UNL     1      -0.815  11.087  22.448  0.00  0.00    +0.000 A 
ATOM     20 CL   UNL     1      -2.136  11.610  23.423  0.00  0.00    +0.000 Cl
ENDBRANCH   2  14
BRANCH   1  21
ATOM     21  C   UNL     1      -0.958  15.398  20.663  0.00  0.00    +0.000 C 
BRANCH  21  22
ATOM     22  C   UNL     1      -0.235  16.168  19.533  0.00  0.00    +0.000 C 
BRANCH  22  24
ATOM     23  C   UNL     1       2.013  15.560  18.931  0.00  0.00    +0.000 C 
ATOM     24  N   UNL     1       1.198  16.463  19.757  0.00  0.00    +0.000 NA
ATOM     25  C   UNL     1       1.554  17.849  19.448  0.00  0.00    +0.000 C 
ENDBRANCH  22  24
ENDBRANCH  21  22
ENDBRANCH   1  21
TORSDOF 4
ENDMDL
MODEL 4
REMARK VINA RESULT:      -5.7     11.266     13.972
REMARK  Name = 
REMARK  6 active torsions:
REMARK  status: ('A' for Active; 'I' for Inactive)
REMARK    1  A    between atoms: C_1  and  N_2
REMARK    2  A    between atoms: N_2  and  C_3
REMARK    3  A    between atoms: N_2  and  C_4
REMARK    4  A    between atoms: C_4  and  C_5
REMARK    5  A    between atoms: C_5  and  N_6
REMARK    6  A    between atoms: C_7  and  C_9
REMARK                            x       y       z     vdW  Elec       q    Type
REMARK                         _______ _______ _______ _____ _____    ______ ____
ROOT
ATOM      1  N   UNL     1      -5.424  13.730  22.921  0.00  0.00    +0.000 N 
ATOM      2  C   UNL     1      -5.408  14.901  23.698  0.00  0.00    +0.000 C 
ATOM      3  O   UNL     1      -6.456  15.422  24.069  0.00  0.00    +0.000 OA
ATOM      4  C   UNL     1      -4.242  13.122  22.569  0.00  0.00    +0.000 A 
ATOM      5  N   UNL     1      -3.624  12.199  23.260  0.00  0.00    +0.000 NA
ATOM      6  C   UNL     1      -2.423  11.903  22.641  0.00  0.00    +0.000 A 
ATOM      7  C   UNL     1      -1.418  11.055  23.155  0.00  0.00    +0.000 A 
ATOM      8  C   UNL     1      -0.253  10.840  22.414  0.00  0.00    +0.000 A 
ATOM      9  C   UNL     1      -0.095  11.449  21.175  0.00  0.00    +0.000 A 
ATOM     10  F   UNL     1       1.021  11.215  20.473  0.00  0.00    +0.000 F 
ATOM     11  C   UNL     1      -1.060  12.302  20.647  0.00  0.00    +0.000 A 
ATOM     12  C   UNL     1      -2.215  12.532  21.407  0.00  0.00    +0.000 A 
ATOM     13  S   UNL     1      -3.556  13.568  21.076  0.00  0.00    +0.000 S 
ENDROOT
BRANCH   2  14
ATOM     14  C   UNL     1      -4.123  15.532  24.063  0.00  0.00    +0.000 A 
ATOM     15  C   UNL     1      -3.271  15.218  25.187  0.00  0.00    +0.000 A 
ATOM     16  C   UNL     1      -2.148  16.002  25.228  0.00  0.00    +0.000 A 
ATOM     17 CL   UNL     1      -0.868  15.897  26.366  0.00  0.00    +0.000 Cl
ATOM     18  S   UNL     1      -2.108  17.170  24.013  0.00  0.00    +0.000 S 
ATOM     19  C   UNL     1      -3.592  16.619  23.391  0.00  0.00    +0.000 A 
ATOM     20 CL   UNL     1      -4.221  17.435  22.008  0.00  0.00    +0.000 Cl
ENDBRANCH   2  14
BRANCH   1  21
ATOM     21  C   UNL     1      -6.692  12.998  22.752  0.00  0.00    +0.000 C 
BRANCH  21  22
ATOM     22  C   UNL     1      -7.197  13.021  21.290  0.00  0.00    +0.000 C 
BRANCH  22  24
ATOM     23  C   UNL     1      -7.917  10.740  21.040  0.00  0.00    +0.000 C 
ATOM     24  N   UNL     1      -7.012  11.774  20.515  0.00  0.00    +0.000 NA
ATOM     25  C   UNL     1      -7.259  11.947  19.083  0.00  0.00    +0.000 C 
ENDBRANCH  22  24
ENDBRANCH  21  22
ENDBRANCH   1  21
TORSDOF 4
ENDMDL
MODEL 5
REMARK VINA RESULT:      -5.7      7.101      9.467
REMARK  Name = 
REMARK  6 active torsions:
REMARK  status: ('A' for Active; 'I' for Inactive)
REMARK    1  A    between atoms: C_1  and  N_2
REMARK    2  A    between atoms: N_2  and  C_3
REMARK    3  A    between atoms: N_2  and  C_4
REMARK    4  A    between atoms: C_4  and  C_5
REMARK    5  A    between atoms: C_5  and  N_6
REMARK    6  A    between atoms: C_7  and  C_9
REMARK                            x       y       z     vdW  Elec       q    Type
REMARK                         _______ _______ _______ _____ _____    ______ ____
ROOT
ATOM      1  N   UNL     1       0.791  13.031  19.394  0.00  0.00    +0.000 N 
ATOM      2  C   UNL     1      -0.450  13.435  18.871  0.00  0.00    +0.000 C 
ATOM      3  O   UNL     1      -0.743  14.625  18.802  0.00  0.00    +0.000 OA
ATOM      4  C   UNL     1       1.132  11.699  19.404  0.00  0.00    +0.000 A 
ATOM      5  N   UNL     1       1.758  11.065  18.446  0.00  0.00    +0.000 NA
ATOM      6  C   UNL     1       1.836   9.723  18.772  0.00  0.00    +0.000 A 
ATOM      7  C   UNL     1       2.321   8.697  17.933  0.00  0.00    +0.000 A 
ATOM      8  C   UNL     1       2.348   7.380  18.398  0.00  0.00    +0.000 A 
ATOM      9  C   UNL     1       1.910   7.089  19.684  0.00  0.00    +0.000 A 
ATOM     10  F   UNL     1       1.962   5.822  20.117  0.00  0.00    +0.000 F 
ATOM     11  C   UNL     1       1.412   8.074  20.532  0.00  0.00    +0.000 A 
ATOM     12  C   UNL     1       1.366   9.389  20.049  0.00  0.00    +0.000 A 
ATOM     13  S   UNL     1       0.757  10.815  20.810  0.00  0.00    +0.000 S 
ENDROOT
BRANCH   2  14
ATOM     14  C   UNL     1      -1.428  12.426  18.415  0.00  0.00    +0.000 A 
ATOM     15  C   UNL     1      -1.459  11.736  17.146  0.00  0.00    +0.000 A 
ATOM     16  C   UNL     1      -2.509  10.861  17.052  0.00  0.00    +0.000 A 
ATOM     17 CL   UNL     1      -2.855   9.815  15.736  0.00  0.00    +0.000 Cl
ATOM     18  S   UNL     1      -3.522  10.890  18.400  0.00  0.00    +0.000 S 
ATOM     19  C   UNL     1      -2.544  12.063  19.148  0.00  0.00    +0.000 A 
ATOM     20 CL   UNL     1      -3.026  12.615  20.708  0.00  0.00    +0.000 Cl
ENDBRANCH   2  14
BRANCH   1  21
ATOM     21  C   UNL     1       1.832  14.046  19.638  0.00  0.00    +0.000 C 
BRANCH  21  22
ATOM     22  C   UNL     1       2.705  14.308  18.389  0.00  0.00    +0.000 C 
BRANCH  22  24
ATOM     23  C   UNL     1       5.033  14.678  17.910  0.00  0.00    +0.000 C 
ATOM     24  N   UNL     1       3.844  15.236  18.571  0.00  0.00    +0.000 NA
ATOM     25  C   UNL     1       3.582  16.575  18.040  0.00  0.00    +0.000 C 
ENDBRANCH  22  24
ENDBRANCH  21  22
ENDBRANCH   1  21
TORSDOF 4
ENDMDL
MODEL 6
REMARK VINA RESULT:      -5.6      9.090     11.958
REMARK  Name = 
REMARK  6 active torsions:
REMARK  status: ('A' for Active; 'I' for Inactive)
REMARK    1  A    between atoms: C_1  and  N_2
REMARK    2  A    between atoms: N_2  and  C_3
REMARK    3  A    between atoms: N_2  and  C_4
REMARK    4  A    between atoms: C_4  and  C_5
REMARK    5  A    between atoms: C_5  and  N_6
REMARK    6  A    between atoms: C_7  and  C_9
REMARK                            x       y       z     vdW  Elec       q    Type
REMARK                         _______ _______ _______ _____ _____    ______ ____
ROOT
ATOM      1  N   UNL     1      -0.672  13.842  20.538  0.00  0.00    +0.000 N 
ATOM      2  C   UNL     1       0.020  13.215  21.589  0.00  0.00    +0.000 C 
ATOM      3  O   UNL     1       0.607  13.881  22.437  0.00  0.00    +0.000 OA
ATOM      4  C   UNL     1      -1.380  13.085  19.634  0.00  0.00    +0.000 A 
ATOM      5  N   UNL     1      -2.637  12.740  19.748  0.00  0.00    +0.000 NA
ATOM      6  C   UNL     1      -2.969  11.903  18.698  0.00  0.00    +0.000 A 
ATOM      7  C   UNL     1      -4.194  11.217  18.546  0.00  0.00    +0.000 A 
ATOM      8  C   UNL     1      -4.396  10.406  17.426  0.00  0.00    +0.000 A 
ATOM      9  C   UNL     1      -3.399  10.288  16.466  0.00  0.00    +0.000 A 
ATOM     10  F   UNL     1      -3.620   9.520  15.391  0.00  0.00    +0.000 F 
ATOM     11  C   UNL     1      -2.174  10.938  16.593  0.00  0.00    +0.000 A 
ATOM     12  C   UNL     1      -1.971  11.730  17.731  0.00  0.00    +0.000 A 
ATOM     13  S   UNL     1      -0.565  12.608  18.217  0.00  0.00    +0.000 S 
ENDROOT
BRANCH   2  14
ATOM     14  C   UNL     1       0.063  11.741  21.675  0.00  0.00    +0.000 A 
ATOM     15  C   UNL     1       0.951  10.840  20.976  0.00  0.00    +0.000 A 
ATOM     16  C   UNL     1       0.717   9.528  21.290  0.00  0.00    +0.000 A 
ATOM     17 CL   UNL     1       1.595   8.167  20.718  0.00  0.00    +0.000 Cl
ATOM     18  S   UNL     1      -0.590   9.315  22.333  0.00  0.00    +0.000 S 
ATOM     19  C   UNL     1      -0.846  10.995  22.405  0.00  0.00    +0.000 A 
ATOM     20 CL   UNL     1      -2.148  11.555  23.385  0.00  0.00    +0.000 Cl
ENDBRANCH   2  14
BRANCH   1  21
ATOM     21  C   UNL     1      -0.889  15.299  20.589  0.00  0.00    +0.000 C 
BRANCH  21  22
ATOM     22  C   UNL     1      -2.228  15.673  21.265  0.00  0.00    +0.000 C 
BRANCH  22  24
ATOM     23  C   UNL     1      -2.331  15.415  23.654  0.00  0.00    +0.000 C 
ATOM     24  N   UNL     1      -2.131  16.380  22.562  0.00  0.00    +0.000 NA
ATOM     25  C   UNL     1      -0.849  17.059  22.750  0.00  0.00    +0.000 C 
ENDBRANCH  22  24
ENDBRANCH  21  22
ENDBRANCH   1  21
TORSDOF 4
ENDMDL
MODEL 7
REMARK VINA RESULT:      -5.6      9.840     11.804
REMARK  Name = 
REMARK  6 active torsions:
REMARK  status: ('A' for Active; 'I' for Inactive)
REMARK    1  A    between atoms: C_1  and  N_2
REMARK    2  A    between atoms: N_2  and  C_3
REMARK    3  A    between atoms: N_2  and  C_4
REMARK    4  A    between atoms: C_4  and  C_5
REMARK    5  A    between atoms: C_5  and  N_6
REMARK    6  A    between atoms: C_7  and  C_9
REMARK                            x       y       z     vdW  Elec       q    Type
REMARK                         _______ _______ _______ _____ _____    ______ ____
ROOT
ATOM      1  N   UNL     1       6.353  15.839  19.562  0.00  0.00    +0.000 N 
ATOM      2  C   UNL     1       6.689  17.203  19.519  0.00  0.00    +0.000 C 
ATOM      3  O   UNL     1       5.814  18.064  19.553  0.00  0.00    +0.000 OA
ATOM      4  C   UNL     1       7.346  14.888  19.590  0.00  0.00    +0.000 A 
ATOM      5  N   UNL     1       7.900  14.395  20.668  0.00  0.00    +0.000 NA
ATOM      6  C   UNL     1       8.922  13.540  20.296  0.00  0.00    +0.000 A 
ATOM      7  C   UNL     1       9.838  12.920  21.174  0.00  0.00    +0.000 A 
ATOM      8  C   UNL     1      10.820  12.070  20.658  0.00  0.00    +0.000 A 
ATOM      9  C   UNL     1      10.882  11.831  19.291  0.00  0.00    +0.000 A 
ATOM     10  F   UNL     1      11.820  10.999  18.819  0.00  0.00    +0.000 F 
ATOM     11  C   UNL     1      10.005  12.438  18.397  0.00  0.00    +0.000 A 
ATOM     12  C   UNL     1       9.039  13.308  18.920  0.00  0.00    +0.000 A 
ATOM     13  S   UNL     1       7.856  14.257  18.092  0.00  0.00    +0.000 S 
ENDROOT
BRANCH   2  14
ATOM     14  C   UNL     1       8.102  17.618  19.412  0.00  0.00    +0.000 A 
ATOM     15  C   UNL     1       8.872  17.835  18.209  0.00  0.00    +0.000 A 
ATOM     16  C   UNL     1      10.161  18.215  18.474  0.00  0.00    +0.000 A 
ATOM     17 CL   UNL     1      11.365  18.623  17.321  0.00  0.00    +0.000 Cl
ATOM     18  S   UNL     1      10.521  18.243  20.121  0.00  0.00    +0.000 S 
ATOM     19  C   UNL     1       8.934  17.771  20.508  0.00  0.00    +0.000 A 
ATOM     20 CL   UNL     1       8.550  17.585  22.178  0.00  0.00    +0.000 Cl
ENDBRANCH   2  14
BRANCH   1  21
ATOM     21  C   UNL     1       4.969  15.449  19.886  0.00  0.00    +0.000 C 
BRANCH  21  22
ATOM     22  C   UNL     1       4.307  14.629  18.754  0.00  0.00    +0.000 C 
BRANCH  22  24
ATOM     23  C   UNL     1       2.077  13.811  18.381  0.00  0.00    +0.000 C 
ATOM     24  N   UNL     1       2.924  15.013  18.393  0.00  0.00    +0.000 NA
ATOM     25  C   UNL     1       2.345  15.999  19.306  0.00  0.00    +0.000 C 
ENDBRANCH  22  24
ENDBRANCH  21  22
ENDBRANCH   1  21
TORSDOF 4
ENDMDL
MODEL 8
REMARK VINA RESULT:      -5.6      8.259     10.775
REMARK  Name = 
REMARK  6 active torsions:
REMARK  status: ('A' for Active; 'I' for Inactive)
REMARK    1  A    between atoms: C_1  and  N_2
REMARK    2  A    between atoms: N_2  and  C_3
REMARK    3  A    between atoms: N_2  and  C_4
REMARK    4  A    between atoms: C_4  and  C_5
REMARK    5  A    between atoms: C_5  and  N_6
REMARK    6  A    between atoms: C_7  and  C_9
REMARK                            x       y       z     vdW  Elec       q    Type
REMARK                         _______ _______ _______ _____ _____    ______ ____
ROOT
ATOM      1  N   UNL     1       0.355  11.209  19.494  0.00  0.00    +0.000 N 
ATOM      2  C   UNL     1       1.207  12.174  18.931  0.00  0.00    +0.000 C 
ATOM      3  O   UNL     1       2.148  11.839  18.217  0.00  0.00    +0.000 OA
ATOM      4  C   UNL     1      -0.733  11.603  20.237  0.00  0.00    +0.000 A 
ATOM      5  N   UNL     1      -1.932  11.835  19.769  0.00  0.00    +0.000 NA
ATOM      6  C   UNL     1      -2.731  12.304  20.796  0.00  0.00    +0.000 A 
ATOM      7  C   UNL     1      -4.050  12.789  20.659  0.00  0.00    +0.000 A 
ATOM      8  C   UNL     1      -4.746  13.226  21.789  0.00  0.00    +0.000 A 
ATOM      9  C   UNL     1      -4.143  13.169  23.039  0.00  0.00    +0.000 A 
ATOM     10  F   UNL     1      -4.834  13.575  24.113  0.00  0.00    +0.000 F 
ATOM     11  C   UNL     1      -2.840  12.710  23.208  0.00  0.00    +0.000 A 
ATOM     12  C   UNL     1      -2.141  12.297  22.066  0.00  0.00    +0.000 A 
ATOM     13  S   UNL     1      -0.512  11.741  21.920  0.00  0.00    +0.000 S 
ENDROOT
BRANCH   2  14
ATOM     14  C   UNL     1       0.991  13.609  19.208  0.00  0.00    +0.000 A 
ATOM     15  C   UNL     1       0.029  14.494  18.591  0.00  0.00    +0.000 A 
ATOM     16  C   UNL     1       0.099  15.769  19.086  0.00  0.00    +0.000 A 
ATOM     17 CL   UNL     1      -0.911  17.089  18.657  0.00  0.00    +0.000 Cl
ATOM     18  S   UNL     1       1.337  15.980  20.210  0.00  0.00    +0.000 S 
ATOM     19  C   UNL     1       1.782  14.344  20.073  0.00  0.00    +0.000 A 
ATOM     20 CL   UNL     1       3.108  13.803  21.033  0.00  0.00    +0.000 Cl
ENDBRANCH   2  14
BRANCH   1  21
ATOM     21  C   UNL     1       0.451   9.811  19.036  0.00  0.00    +0.000 C 
BRANCH  21  22
ATOM     22  C   UNL     1       1.228   8.916  20.030  0.00  0.00    +0.000 C 
BRANCH  22  24
ATOM     23  C   UNL     1       2.049   6.659  19.910  0.00  0.00    +0.000 C 
ATOM     24  N   UNL     1       2.265   8.037  19.444  0.00  0.00    +0.000 NA
ATOM     25  C   UNL     1       2.272   8.054  17.981  0.00  0.00    +0.000 C 
ENDBRANCH  22  24
ENDBRANCH  21  22
ENDBRANCH   1  21
TORSDOF 4
ENDMDL
MODEL 9
REMARK VINA RESULT:      -5.6      9.646     12.604
REMARK  Name = 
REMARK  6 active torsions:
REMARK  status: ('A' for Active; 'I' for Inactive)
REMARK    1  A    between atoms: C_1  and  N_2
REMARK    2  A    between atoms: N_2  and  C_3
REMARK    3  A    between atoms: N_2  and  C_4
REMARK    4  A    between atoms: C_4  and  C_5
REMARK    5  A    between atoms: C_5  and  N_6
REMARK    6  A    between atoms: C_7  and  C_9
REMARK                            x       y       z     vdW  Elec       q    Type
REMARK                         _______ _______ _______ _____ _____    ______ ____
ROOT
ATOM      1  N   UNL     1      -1.206  13.302  22.163  0.00  0.00    +0.000 N 
ATOM      2  C   UNL     1      -0.340  14.408  22.115  0.00  0.00    +0.000 C 
ATOM      3  O   UNL     1      -0.053  15.023  23.138  0.00  0.00    +0.000 OA
ATOM      4  C   UNL     1      -1.465  12.582  21.021  0.00  0.00    +0.000 A 
ATOM      5  N   UNL     1      -0.784  11.548  20.600  0.00  0.00    +0.000 NA
ATOM      6  C   UNL     1      -1.280  11.153  19.371  0.00  0.00    +0.000 A 
ATOM      7  C   UNL     1      -0.724  10.159  18.537  0.00  0.00    +0.000 A 
ATOM      8  C   UNL     1      -1.338   9.857  17.319  0.00  0.00    +0.000 A 
ATOM      9  C   UNL     1      -2.496  10.525  16.941  0.00  0.00    +0.000 A 
ATOM     10  F   UNL     1      -3.080  10.207  15.778  0.00  0.00    +0.000 F 
ATOM     11  C   UNL     1      -3.063  11.521  17.732  0.00  0.00    +0.000 A 
ATOM     12  C   UNL     1      -2.426  11.834  18.941  0.00  0.00    +0.000 A 
ATOM     13  S   UNL     1      -2.827  13.043  20.108  0.00  0.00    +0.000 S 
ENDROOT
BRANCH   2  14
ATOM     14  C   UNL     1       0.223  14.855  20.825  0.00  0.00    +0.000 A 
ATOM     15  C   UNL     1       1.443  14.411  20.191  0.00  0.00    +0.000 A 
ATOM     16  C   UNL     1       1.667  15.037  18.993  0.00  0.00    +0.000 A 
ATOM     17 CL   UNL     1       2.969  14.742  17.913  0.00  0.00    +0.000 Cl
ATOM     18  S   UNL     1       0.513  16.210  18.629  0.00  0.00    +0.000 S 
ATOM     19  C   UNL     1      -0.329  15.873  20.067  0.00  0.00    +0.000 A 
ATOM     20 CL   UNL     1      -1.755  16.789  20.381  0.00  0.00    +0.000 Cl
ENDBRANCH   2  14
BRANCH   1  21
ATOM     21  C   UNL     1      -1.581  12.739  23.473  0.00  0.00    +0.000 C 
BRANCH  21  22
ATOM     22  C   UNL     1      -3.096  12.443  23.576  0.00  0.00    +0.000 C 
BRANCH  22  24
ATOM     23  C   UNL     1      -3.066  14.424  24.939  0.00  0.00    +0.000 C 
ATOM     24  N   UNL     1      -3.930  13.504  24.183  0.00  0.00    +0.000 NA
ATOM     25  C   UNL     1      -4.697  14.266  23.197  0.00  0.00    +0.000 C 
ENDBRANCH  22  24
ENDBRANCH  21  22
ENDBRANCH   1  21
TORSDOF 4
ENDMDL
