MODEL 1
REMARK VINA RESULT:      -7.7      0.000      0.000
REMARK  Name = 
REMARK  13 active torsions:
REMARK  status: ('A' for Active; 'I' for Inactive)
REMARK    1  A    between atoms: C_1  and  O_2
REMARK    2  A    between atoms: O_2  and  C_3
REMARK    3  A    between atoms: C_6  and  C_7
REMARK    4  A    between atoms: C_9  and  C_10
REMARK    5  A    between atoms: C_10  and  C_11
REMARK    6  A    between atoms: C_11  and  C_12
REMARK    7  A    between atoms: C_12  and  C_13
REMARK    8  A    between atoms: C_13  and  N_14
REMARK    9  A    between atoms: N_17  and  C_18
REMARK   10  A    between atoms: C_23  and  O_24
REMARK   11  A    between atoms: O_24  and  C_25
REMARK   12  A    between atoms: C_31  and  O_32
REMARK   13  A    between atoms: O_32  and  C_33
REMARK                            x       y       z     vdW  Elec       q    Type
REMARK                         _______ _______ _______ _____ _____    ______ ____
ROOT
ATOM      1  C   UNL     1       1.072   5.013  20.536  0.00  0.00    +0.000 C 
ENDROOT
BRANCH   1   2
ATOM      2  C   UNL     1       2.421   5.731  20.422  0.00  0.00    +0.000 C 
BRANCH   2   5
ATOM      3  C   UNL     1       1.756   8.969  18.913  0.00  0.00    +0.000 A 
ATOM      4  C   UNL     1       1.590   8.109  19.977  0.00  0.00    +0.000 A 
ATOM      5  C   UNL     1       2.261   6.977  19.606  0.00  0.00    +0.000 A 
ATOM      6  O   UNL     1       2.788   7.163  18.420  0.00  0.00    +0.000 OA
ATOM      7  N   UNL     1       2.503   8.346  17.966  0.00  0.00    +0.000 NA
BRANCH   3  11
ATOM      8  C   UNL     1       0.175  12.960  18.582  0.00  0.00    +0.000 A 
ATOM      9  C   UNL     1       1.543  12.698  18.351  0.00  0.00    +0.000 A 
ATOM     10  C   UNL     1       2.056  11.408  18.447  0.00  0.00    +0.000 A 
ATOM     11  C   UNL     1       1.223  10.334  18.776  0.00  0.00    +0.000 A 
ATOM     12  C   UNL     1      -0.136  10.579  19.000  0.00  0.00    +0.000 A 
ATOM     13  C   UNL     1      -0.674  11.863  18.917  0.00  0.00    +0.000 A 
BRANCH   8  15
ATOM     14  C   UNL     1      -0.603  15.057  19.567  0.00  0.00    +0.000 C 
ATOM     15  O   UNL     1      -0.324  14.226  18.493  0.00  0.00    +0.000 OA
ENDBRANCH   8  15
BRANCH  13  16
ATOM     16  O   UNL     1      -2.005  11.954  19.180  0.00  0.00    +0.000 OA
ATOM     17  C   UNL     1      -3.074  11.586  18.395  0.00  0.00    +0.000 C 
ENDBRANCH  13  16
ENDBRANCH   3  11
ENDBRANCH   2   5
ENDBRANCH   1   2
BRANCH   1  18
ATOM     18  C   UNL     1       1.014   3.702  19.722  0.00  0.00    +0.000 C 
BRANCH  18  19
ATOM     19  C   UNL     1       1.921   2.594  20.301  0.00  0.00    +0.000 C 
BRANCH  19  20
ATOM     20  N   UNL     1       2.697   1.903  19.239  0.00  0.00    +0.000 NA
ATOM     21  C   UNL     1       2.405   2.384  17.870  0.00  0.00    +0.000 C 
ATOM     22  C   UNL     1       2.970   3.788  17.640  0.00  0.00    +0.000 C 
ATOM     23  N   UNL     1       4.409   3.752  17.881  0.00  0.00    +0.000 N 
ATOM     24  C   UNL     1       4.801   3.272  19.204  0.00  0.00    +0.000 C 
ATOM     25  C   UNL     1       4.160   1.897  19.481  0.00  0.00    +0.000 C 
BRANCH  23  26
ATOM     26  C   UNL     1       5.332   4.217  16.865  0.00  0.00    +0.000 A 
ATOM     27  C   UNL     1       5.221   3.668  15.562  0.00  0.00    +0.000 A 
ATOM     28  C   UNL     1       6.054   4.064  14.526  0.00  0.00    +0.000 A 
ATOM     29  C   UNL     1       7.039   5.010  14.747  0.00  0.00    +0.000 A 
ATOM     30  C   UNL     1       7.178   5.586  16.006  0.00  0.00    +0.000 A 
ATOM     31  C   UNL     1       6.331   5.218  17.081  0.00  0.00    +0.000 A 
BRANCH  31  32
ATOM     32  O   UNL     1       6.487   5.796  18.303  0.00  0.00    +0.000 OA
ATOM     33  C   UNL     1       7.692   5.927  18.973  0.00  0.00    +0.000 C 
ENDBRANCH  31  32
ENDBRANCH  23  26
ENDBRANCH  19  20
ENDBRANCH  18  19
ENDBRANCH   1  18
TORSDOF 10
ENDMDL
MODEL 2
REMARK VINA RESULT:      -7.6      3.604      4.233
REMARK  Name = 
REMARK  13 active torsions:
REMARK  status: ('A' for Active; 'I' for Inactive)
REMARK    1  A    between atoms: C_1  and  O_2
REMARK    2  A    between atoms: O_2  and  C_3
REMARK    3  A    between atoms: C_6  and  C_7
REMARK    4  A    between atoms: C_9  and  C_10
REMARK    5  A    between atoms: C_10  and  C_11
REMARK    6  A    between atoms: C_11  and  C_12
REMARK    7  A    between atoms: C_12  and  C_13
REMARK    8  A    between atoms: C_13  and  N_14
REMARK    9  A    between atoms: N_17  and  C_18
REMARK   10  A    between atoms: C_23  and  O_24
REMARK   11  A    between atoms: O_24  and  C_25
REMARK   12  A    between atoms: C_31  and  O_32
REMARK   13  A    between atoms: O_32  and  C_33
REMARK                            x       y       z     vdW  Elec       q    Type
REMARK                         _______ _______ _______ _____ _____    ______ ____
ROOT
ATOM      1  C   UNL     1       1.356   7.506  21.058  0.00  0.00    +0.000 C 
ENDROOT
BRANCH   1   2
ATOM      2  C   UNL     1       0.991   8.901  20.541  0.00  0.00    +0.000 C 
BRANCH   2   5
ATOM      3  C   UNL     1      -0.865  11.105  22.756  0.00  0.00    +0.000 A 
ATOM      4  C   UNL     1      -0.500  10.760  21.472  0.00  0.00    +0.000 A 
ATOM      5  C   UNL     1       0.332   9.687  21.633  0.00  0.00    +0.000 A 
ATOM      6  O   UNL     1       0.439   9.419  22.912  0.00  0.00    +0.000 OA
ATOM      7  N   UNL     1      -0.261  10.252  23.622  0.00  0.00    +0.000 NA
BRANCH   3  11
ATOM      8  C   UNL     1      -3.455  14.304  24.022  0.00  0.00    +0.000 A 
ATOM      9  C   UNL     1      -2.108  14.552  23.676  0.00  0.00    +0.000 A 
ATOM     10  C   UNL     1      -1.271  13.522  23.256  0.00  0.00    +0.000 A 
ATOM     11  C   UNL     1      -1.746  12.210  23.167  0.00  0.00    +0.000 A 
ATOM     12  C   UNL     1      -3.080  11.952  23.500  0.00  0.00    +0.000 A 
ATOM     13  C   UNL     1      -3.939  12.964  23.929  0.00  0.00    +0.000 A 
BRANCH   8  15
ATOM     14  C   UNL     1      -3.848  16.536  24.934  0.00  0.00    +0.000 C 
ATOM     15  O   UNL     1      -4.272  15.313  24.438  0.00  0.00    +0.000 OA
ENDBRANCH   8  15
BRANCH  13  16
ATOM     16  O   UNL     1      -5.201  12.563  24.238  0.00  0.00    +0.000 OA
ATOM     17  C   UNL     1      -6.376  12.785  23.556  0.00  0.00    +0.000 C 
ENDBRANCH  13  16
ENDBRANCH   3  11
ENDBRANCH   2   5
ENDBRANCH   1   2
BRANCH   1  18
ATOM     18  C   UNL     1       2.105   6.650  20.012  0.00  0.00    +0.000 C 
BRANCH  18  19
ATOM     19  C   UNL     1       2.323   5.193  20.473  0.00  0.00    +0.000 C 
BRANCH  19  20
ATOM     20  N   UNL     1       2.400   4.255  19.322  0.00  0.00    +0.000 NA
ATOM     21  C   UNL     1       2.244   4.907  18.002  0.00  0.00    +0.000 C 
ATOM     22  C   UNL     1       3.472   5.749  17.648  0.00  0.00    +0.000 C 
ATOM     23  N   UNL     1       4.646   4.882  17.662  0.00  0.00    +0.000 N 
ATOM     24  C   UNL     1       4.877   4.178  18.921  0.00  0.00    +0.000 C 
ATOM     25  C   UNL     1       3.611   3.399  19.333  0.00  0.00    +0.000 C 
BRANCH  23  26
ATOM     26  C   UNL     1       5.510   4.804  16.502  0.00  0.00    +0.000 A 
ATOM     27  C   UNL     1       5.029   4.122  15.356  0.00  0.00    +0.000 A 
ATOM     28  C   UNL     1       5.784   4.010  14.198  0.00  0.00    +0.000 A 
ATOM     29  C   UNL     1       7.053   4.558  14.137  0.00  0.00    +0.000 A 
ATOM     30  C   UNL     1       7.563   5.248  15.233  0.00  0.00    +0.000 A 
ATOM     31  C   UNL     1       6.810   5.398  16.425  0.00  0.00    +0.000 A 
BRANCH  31  32
ATOM     32  O   UNL     1       7.332   6.077  17.482  0.00  0.00    +0.000 OA
ATOM     33  C   UNL     1       7.568   7.441  17.513  0.00  0.00    +0.000 C 
ENDBRANCH  31  32
ENDBRANCH  23  26
ENDBRANCH  19  20
ENDBRANCH  18  19
ENDBRANCH   1  18
TORSDOF 10
ENDMDL
MODEL 3
REMARK VINA RESULT:      -7.5      1.499      1.568
REMARK  Name = 
REMARK  13 active torsions:
REMARK  status: ('A' for Active; 'I' for Inactive)
REMARK    1  A    between atoms: C_1  and  O_2
REMARK    2  A    between atoms: O_2  and  C_3
REMARK    3  A    between atoms: C_6  and  C_7
REMARK    4  A    between atoms: C_9  and  C_10
REMARK    5  A    between atoms: C_10  and  C_11
REMARK    6  A    between atoms: C_11  and  C_12
REMARK    7  A    between atoms: C_12  and  C_13
REMARK    8  A    between atoms: C_13  and  N_14
REMARK    9  A    between atoms: N_17  and  C_18
REMARK   10  A    between atoms: C_23  and  O_24
REMARK   11  A    between atoms: O_24  and  C_25
REMARK   12  A    between atoms: C_31  and  O_32
REMARK   13  A    between atoms: O_32  and  C_33
REMARK                            x       y       z     vdW  Elec       q    Type
REMARK                         _______ _______ _______ _____ _____    ______ ____
ROOT
ATOM      1  C   UNL     1       0.684   4.573  20.322  0.00  0.00    +0.000 C 
ENDROOT
BRANCH   1   2
ATOM      2  C   UNL     1       1.953   5.355  20.678  0.00  0.00    +0.000 C 
BRANCH   2   5
ATOM      3  C   UNL     1       1.400   8.878  19.976  0.00  0.00    +0.000 A 
ATOM      4  C   UNL     1       1.211   7.800  20.815  0.00  0.00    +0.000 A 
ATOM      5  C   UNL     1       1.834   6.763  20.178  0.00  0.00    +0.000 A 
ATOM      6  O   UNL     1       2.357   7.202  19.058  0.00  0.00    +0.000 OA
ATOM      7  N   UNL     1       2.114   8.467  18.897  0.00  0.00    +0.000 NA
BRANCH   3  11
ATOM      8  C   UNL     1       0.041  12.915  20.604  0.00  0.00    +0.000 A 
ATOM      9  C   UNL     1       0.620  12.525  19.376  0.00  0.00    +0.000 A 
ATOM     10  C   UNL     1       1.051  11.219  19.166  0.00  0.00    +0.000 A 
ATOM     11  C   UNL     1       0.920  10.256  20.172  0.00  0.00    +0.000 A 
ATOM     12  C   UNL     1       0.341  10.627  21.389  0.00  0.00    +0.000 A 
ATOM     13  C   UNL     1      -0.094  11.930  21.628  0.00  0.00    +0.000 A 
BRANCH   8  15
ATOM     14  C   UNL     1      -1.672  14.658  20.632  0.00  0.00    +0.000 C 
ATOM     15  O   UNL     1      -0.376  14.197  20.808  0.00  0.00    +0.000 OA
ENDBRANCH   8  15
BRANCH  13  16
ATOM     16  O   UNL     1      -0.617  12.152  22.864  0.00  0.00    +0.000 OA
ATOM     17  C   UNL     1      -1.917  12.021  23.294  0.00  0.00    +0.000 C 
ENDBRANCH  13  16
ENDBRANCH   3  11
ENDBRANCH   2   5
ENDBRANCH   1   2
BRANCH   1  18
ATOM     18  C   UNL     1       0.942   3.063  20.121  0.00  0.00    +0.000 C 
BRANCH  18  19
ATOM     19  C   UNL     1       2.352   2.629  20.575  0.00  0.00    +0.000 C 
BRANCH  19  20
ATOM     20  N   UNL     1       3.079   1.902  19.501  0.00  0.00    +0.000 NA
ATOM     21  C   UNL     1       2.668   2.283  18.131  0.00  0.00    +0.000 C 
ATOM     22  C   UNL     1       3.153   3.690  17.775  0.00  0.00    +0.000 C 
ATOM     23  N   UNL     1       4.605   3.725  17.908  0.00  0.00    +0.000 N 
ATOM     24  C   UNL     1       5.113   3.347  19.224  0.00  0.00    +0.000 C 
ATOM     25  C   UNL     1       4.555   1.968  19.632  0.00  0.00    +0.000 C 
BRANCH  23  26
ATOM     26  C   UNL     1       5.431   4.160  16.800  0.00  0.00    +0.000 A 
ATOM     27  C   UNL     1       4.972   3.897  15.484  0.00  0.00    +0.000 A 
ATOM     28  C   UNL     1       5.692   4.288  14.364  0.00  0.00    +0.000 A 
ATOM     29  C   UNL     1       6.902   4.944  14.507  0.00  0.00    +0.000 A 
ATOM     30  C   UNL     1       7.386   5.235  15.779  0.00  0.00    +0.000 A 
ATOM     31  C   UNL     1       6.666   4.867  16.943  0.00  0.00    +0.000 A 
BRANCH  31  32
ATOM     32  O   UNL     1       7.162   5.164  18.176  0.00  0.00    +0.000 OA
ATOM     33  C   UNL     1       7.723   6.378  18.536  0.00  0.00    +0.000 C 
ENDBRANCH  31  32
ENDBRANCH  23  26
ENDBRANCH  19  20
ENDBRANCH  18  19
ENDBRANCH   1  18
TORSDOF 10
ENDMDL
MODEL 4
REMARK VINA RESULT:      -7.5      6.171      8.428
REMARK  Name = 
REMARK  13 active torsions:
REMARK  status: ('A' for Active; 'I' for Inactive)
REMARK    1  A    between atoms: C_1  and  O_2
REMARK    2  A    between atoms: O_2  and  C_3
REMARK    3  A    between atoms: C_6  and  C_7
REMARK    4  A    between atoms: C_9  and  C_10
REMARK    5  A    between atoms: C_10  and  C_11
REMARK    6  A    between atoms: C_11  and  C_12
REMARK    7  A    between atoms: C_12  and  C_13
REMARK    8  A    between atoms: C_13  and  N_14
REMARK    9  A    between atoms: N_17  and  C_18
REMARK   10  A    between atoms: C_23  and  O_24
REMARK   11  A    between atoms: O_24  and  C_25
REMARK   12  A    between atoms: C_31  and  O_32
REMARK   13  A    between atoms: O_32  and  C_33
REMARK                            x       y       z     vdW  Elec       q    Type
REMARK                         _______ _______ _______ _____ _____    ______ ____
ROOT
ATOM      1  C   UNL     1       8.087   7.878  18.266  0.00  0.00    +0.000 C 
ENDROOT
BRANCH   1   2
ATOM      2  C   UNL     1       7.840   9.276  17.689  0.00  0.00    +0.000 C 
BRANCH   2   5
ATOM      3  C   UNL     1       9.879  12.039  18.879  0.00  0.00    +0.000 A 
ATOM      4  C   UNL     1       9.030  11.529  17.920  0.00  0.00    +0.000 A 
ATOM      5  C   UNL     1       8.748  10.263  18.355  0.00  0.00    +0.000 A 
ATOM      6  O   UNL     1       9.377  10.052  19.487  0.00  0.00    +0.000 OA
ATOM      7  N   UNL     1      10.071  11.093  19.833  0.00  0.00    +0.000 NA
BRANCH   3  11
ATOM      8  C   UNL     1      11.649  15.963  18.981  0.00  0.00    +0.000 A 
ATOM      9  C   UNL     1      12.323  14.846  19.521  0.00  0.00    +0.000 A 
ATOM     10  C   UNL     1      11.759  13.574  19.480  0.00  0.00    +0.000 A 
ATOM     11  C   UNL     1      10.503  13.371  18.901  0.00  0.00    +0.000 A 
ATOM     12  C   UNL     1       9.828  14.468  18.355  0.00  0.00    +0.000 A 
ATOM     13  C   UNL     1      10.368  15.753  18.387  0.00  0.00    +0.000 A 
BRANCH   8  15
ATOM     14  C   UNL     1      12.061  18.111  20.068  0.00  0.00    +0.000 C 
ATOM     15  O   UNL     1      12.202  17.208  19.026  0.00  0.00    +0.000 OA
ENDBRANCH   8  15
BRANCH  13  16
ATOM     16  O   UNL     1       9.591  16.725  17.839  0.00  0.00    +0.000 OA
ATOM     17  C   UNL     1       8.507  17.380  18.378  0.00  0.00    +0.000 C 
ENDBRANCH  13  16
ENDBRANCH   3  11
ENDBRANCH   2   5
ENDBRANCH   1   2
BRANCH   1  18
ATOM     18  C   UNL     1       7.957   6.757  17.210  0.00  0.00    +0.000 C 
BRANCH  18  19
ATOM     19  C   UNL     1       6.501   6.535  16.746  0.00  0.00    +0.000 C 
BRANCH  19  20
ATOM     20  N   UNL     1       6.093   5.111  16.868  0.00  0.00    +0.000 NA
ATOM     21  C   UNL     1       6.281   4.545  18.223  0.00  0.00    +0.000 C 
ATOM     22  C   UNL     1       5.267   5.122  19.214  0.00  0.00    +0.000 C 
ATOM     23  N   UNL     1       3.924   4.842  18.717  0.00  0.00    +0.000 N 
ATOM     24  C   UNL     1       3.645   5.347  17.375  0.00  0.00    +0.000 C 
ATOM     25  C   UNL     1       4.716   4.843  16.386  0.00  0.00    +0.000 C 
BRANCH  23  26
ATOM     26  C   UNL     1       2.964   4.154  19.555  0.00  0.00    +0.000 A 
ATOM     27  C   UNL     1       1.873   4.900  20.070  0.00  0.00    +0.000 A 
ATOM     28  C   UNL     1       0.899   4.320  20.870  0.00  0.00    +0.000 A 
ATOM     29  C   UNL     1       0.979   2.979  21.203  0.00  0.00    +0.000 A 
ATOM     30  C   UNL     1       2.025   2.204  20.711  0.00  0.00    +0.000 A 
ATOM     31  C   UNL     1       3.025   2.761  19.875  0.00  0.00    +0.000 A 
BRANCH  31  32
ATOM     32  O   UNL     1       4.037   1.981  19.408  0.00  0.00    +0.000 OA
ATOM     33  C   UNL     1       4.036   1.322  18.189  0.00  0.00    +0.000 C 
ENDBRANCH  31  32
ENDBRANCH  23  26
ENDBRANCH  19  20
ENDBRANCH  18  19
ENDBRANCH   1  18
TORSDOF 10
ENDMDL
MODEL 5
REMARK VINA RESULT:      -7.4      1.986      2.479
REMARK  Name = 
REMARK  13 active torsions:
REMARK  status: ('A' for Active; 'I' for Inactive)
REMARK    1  A    between atoms: C_1  and  O_2
REMARK    2  A    between atoms: O_2  and  C_3
REMARK    3  A    between atoms: C_6  and  C_7
REMARK    4  A    between atoms: C_9  and  C_10
REMARK    5  A    between atoms: C_10  and  C_11
REMARK    6  A    between atoms: C_11  and  C_12
REMARK    7  A    between atoms: C_12  and  C_13
REMARK    8  A    between atoms: C_13  and  N_14
REMARK    9  A    between atoms: N_17  and  C_18
REMARK   10  A    between atoms: C_23  and  O_24
REMARK   11  A    between atoms: O_24  and  C_25
REMARK   12  A    between atoms: C_31  and  O_32
REMARK   13  A    between atoms: O_32  and  C_33
REMARK                            x       y       z     vdW  Elec       q    Type
REMARK                         _______ _______ _______ _____ _____    ______ ____
ROOT
ATOM      1  C   UNL     1       0.788   4.748  19.881  0.00  0.00    +0.000 C 
ENDROOT
BRANCH   1   2
ATOM      2  C   UNL     1       1.816   5.520  20.715  0.00  0.00    +0.000 C 
BRANCH   2   5
ATOM      3  C   UNL     1       0.880   9.023  20.958  0.00  0.00    +0.000 A 
ATOM      4  C   UNL     1       0.792   7.743  21.461  0.00  0.00    +0.000 A 
ATOM      5  C   UNL     1       1.550   6.991  20.607  0.00  0.00    +0.000 A 
ATOM      6  O   UNL     1       2.050   7.772  19.680  0.00  0.00    +0.000 OA
ATOM      7  N   UNL     1       1.667   9.001  19.852  0.00  0.00    +0.000 NA
BRANCH   3  11
ATOM      8  C   UNL     1      -1.031  12.584  22.444  0.00  0.00    +0.000 A 
ATOM      9  C   UNL     1      -1.241  11.333  23.064  0.00  0.00    +0.000 A 
ATOM     10  C   UNL     1      -0.617  10.182  22.592  0.00  0.00    +0.000 A 
ATOM     11  C   UNL     1       0.238  10.237  21.488  0.00  0.00    +0.000 A 
ATOM     12  C   UNL     1       0.461  11.472  20.870  0.00  0.00    +0.000 A 
ATOM     13  C   UNL     1      -0.155  12.640  21.318  0.00  0.00    +0.000 A 
BRANCH   8  15
ATOM     14  C   UNL     1      -1.204  14.494  23.959  0.00  0.00    +0.000 C 
ATOM     15  O   UNL     1      -1.647  13.710  22.905  0.00  0.00    +0.000 OA
ENDBRANCH   8  15
BRANCH  13  16
ATOM     16  O   UNL     1       0.138  13.762  20.608  0.00  0.00    +0.000 OA
ATOM     17  C   UNL     1       1.080  14.732  20.865  0.00  0.00    +0.000 C 
ENDBRANCH  13  16
ENDBRANCH   3  11
ENDBRANCH   2   5
ENDBRANCH   1   2
BRANCH   1  18
ATOM     18  C   UNL     1       0.882   3.218  20.072  0.00  0.00    +0.000 C 
BRANCH  18  19
ATOM     19  C   UNL     1       2.191   2.778  20.764  0.00  0.00    +0.000 C 
BRANCH  19  20
ATOM     20  N   UNL     1       3.065   2.001  19.848  0.00  0.00    +0.000 NA
ATOM     21  C   UNL     1       2.712   2.138  18.416  0.00  0.00    +0.000 C 
ATOM     22  C   UNL     1       3.065   3.529  17.886  0.00  0.00    +0.000 C 
ATOM     23  N   UNL     1       4.493   3.754  18.091  0.00  0.00    +0.000 N 
ATOM     24  C   UNL     1       4.945   3.623  19.474  0.00  0.00    +0.000 C 
ATOM     25  C   UNL     1       4.512   2.258  20.047  0.00  0.00    +0.000 C 
BRANCH  23  26
ATOM     26  C   UNL     1       5.341   4.125  16.978  0.00  0.00    +0.000 A 
ATOM     27  C   UNL     1       4.787   4.082  15.674  0.00  0.00    +0.000 A 
ATOM     28  C   UNL     1       5.523   4.433  14.551  0.00  0.00    +0.000 A 
ATOM     29  C   UNL     1       6.844   4.827  14.679  0.00  0.00    +0.000 A 
ATOM     30  C   UNL     1       7.427   4.898  15.941  0.00  0.00    +0.000 A 
ATOM     31  C   UNL     1       6.697   4.565  17.109  0.00  0.00    +0.000 A 
BRANCH  31  32
ATOM     32  O   UNL     1       7.291   4.642  18.331  0.00  0.00    +0.000 OA
ATOM     33  C   UNL     1       7.756   5.808  18.917  0.00  0.00    +0.000 C 
ENDBRANCH  31  32
ENDBRANCH  23  26
ENDBRANCH  19  20
ENDBRANCH  18  19
ENDBRANCH   1  18
TORSDOF 10
ENDMDL
MODEL 6
REMARK VINA RESULT:      -7.4      6.409      8.212
REMARK  Name = 
REMARK  13 active torsions:
REMARK  status: ('A' for Active; 'I' for Inactive)
REMARK    1  A    between atoms: C_1  and  O_2
REMARK    2  A    between atoms: O_2  and  C_3
REMARK    3  A    between atoms: C_6  and  C_7
REMARK    4  A    between atoms: C_9  and  C_10
REMARK    5  A    between atoms: C_10  and  C_11
REMARK    6  A    between atoms: C_11  and  C_12
REMARK    7  A    between atoms: C_12  and  C_13
REMARK    8  A    between atoms: C_13  and  N_14
REMARK    9  A    between atoms: N_17  and  C_18
REMARK   10  A    between atoms: C_23  and  O_24
REMARK   11  A    between atoms: O_24  and  C_25
REMARK   12  A    between atoms: C_31  and  O_32
REMARK   13  A    between atoms: O_32  and  C_33
REMARK                            x       y       z     vdW  Elec       q    Type
REMARK                         _______ _______ _______ _____ _____    ______ ____
ROOT
ATOM      1  C   UNL     1       8.656   9.490  18.659  0.00  0.00    +0.000 C 
ENDROOT
BRANCH   1   2
ATOM      2  C   UNL     1       9.451  10.594  17.955  0.00  0.00    +0.000 C 
BRANCH   2   5
ATOM      3  C   UNL     1       9.288  13.464  20.177  0.00  0.00    +0.000 A 
ATOM      4  C   UNL     1       9.616  12.139  19.987  0.00  0.00    +0.000 A 
ATOM      5  C   UNL     1       9.274  11.889  18.687  0.00  0.00    +0.000 A 
ATOM      6  O   UNL     1       8.793  12.986  18.154  0.00  0.00    +0.000 OA
ATOM      7  N   UNL     1       8.780  13.955  19.018  0.00  0.00    +0.000 NA
BRANCH   3  11
ATOM      8  C   UNL     1       9.737  15.709  23.824  0.00  0.00    +0.000 A 
ATOM      9  C   UNL     1      10.545  15.981  22.699  0.00  0.00    +0.000 A 
ATOM     10  C   UNL     1      10.396  15.264  21.515  0.00  0.00    +0.000 A 
ATOM     11  C   UNL     1       9.437  14.253  21.411  0.00  0.00    +0.000 A 
ATOM     12  C   UNL     1       8.624  13.979  22.516  0.00  0.00    +0.000 A 
ATOM     13  C   UNL     1       8.756  14.678  23.716  0.00  0.00    +0.000 A 
BRANCH   8  15
ATOM     14  C   UNL     1       9.402  17.686  25.221  0.00  0.00    +0.000 C 
ATOM     15  O   UNL     1       9.888  16.409  24.985  0.00  0.00    +0.000 OA
ENDBRANCH   8  15
BRANCH  13  16
ATOM     16  O   UNL     1       7.914  14.291  24.711  0.00  0.00    +0.000 OA
ATOM     17  C   UNL     1       6.563  14.519  24.845  0.00  0.00    +0.000 C 
ENDBRANCH  13  16
ENDBRANCH   3  11
ENDBRANCH   2   5
ENDBRANCH   1   2
BRANCH   1  18
ATOM     18  C   UNL     1       7.960   8.524  17.675  0.00  0.00    +0.000 C 
BRANCH  18  19
ATOM     19  C   UNL     1       7.878   7.078  18.209  0.00  0.00    +0.000 C 
BRANCH  19  20
ATOM     20  N   UNL     1       7.192   6.173  17.250  0.00  0.00    +0.000 NA
ATOM     21  C   UNL     1       7.072   4.775  17.722  0.00  0.00    +0.000 C 
ATOM     22  C   UNL     1       6.057   4.656  18.861  0.00  0.00    +0.000 C 
ATOM     23  N   UNL     1       4.770   5.154  18.388  0.00  0.00    +0.000 N 
ATOM     24  C   UNL     1       4.788   6.525  17.884  0.00  0.00    +0.000 C 
ATOM     25  C   UNL     1       5.873   6.677  16.797  0.00  0.00    +0.000 C 
BRANCH  23  26
ATOM     26  C   UNL     1       3.586   4.325  18.481  0.00  0.00    +0.000 A 
ATOM     27  C   UNL     1       3.462   3.236  17.582  0.00  0.00    +0.000 A 
ATOM     28  C   UNL     1       2.369   2.382  17.608  0.00  0.00    +0.000 A 
ATOM     29  C   UNL     1       1.347   2.587  18.520  0.00  0.00    +0.000 A 
ATOM     30  C   UNL     1       1.431   3.636  19.431  0.00  0.00    +0.000 A 
ATOM     31  C   UNL     1       2.544   4.513  19.443  0.00  0.00    +0.000 A 
BRANCH  31  32
ATOM     32  O   UNL     1       2.601   5.532  20.345  0.00  0.00    +0.000 OA
ATOM     33  C   UNL     1       1.857   6.698  20.276  0.00  0.00    +0.000 C 
ENDBRANCH  31  32
ENDBRANCH  23  26
ENDBRANCH  19  20
ENDBRANCH  18  19
ENDBRANCH   1  18
TORSDOF 10
ENDMDL
MODEL 7
REMARK VINA RESULT:      -7.4      1.180      1.754
REMARK  Name = 
REMARK  13 active torsions:
REMARK  status: ('A' for Active; 'I' for Inactive)
REMARK    1  A    between atoms: C_1  and  O_2
REMARK    2  A    between atoms: O_2  and  C_3
REMARK    3  A    between atoms: C_6  and  C_7
REMARK    4  A    between atoms: C_9  and  C_10
REMARK    5  A    between atoms: C_10  and  C_11
REMARK    6  A    between atoms: C_11  and  C_12
REMARK    7  A    between atoms: C_12  and  C_13
REMARK    8  A    between atoms: C_13  and  N_14
REMARK    9  A    between atoms: N_17  and  C_18
REMARK   10  A    between atoms: C_23  and  O_24
REMARK   11  A    between atoms: O_24  and  C_25
REMARK   12  A    between atoms: C_31  and  O_32
REMARK   13  A    between atoms: O_32  and  C_33
REMARK                            x       y       z     vdW  Elec       q    Type
REMARK                         _______ _______ _______ _____ _____    ______ ____
ROOT
ATOM      1  C   UNL     1       1.042   5.264  20.485  0.00  0.00    +0.000 C 
ENDROOT
BRANCH   1   2
ATOM      2  C   UNL     1       2.309   6.083  20.214  0.00  0.00    +0.000 C 
BRANCH   2   5
ATOM      3  C   UNL     1       1.227   9.439  19.337  0.00  0.00    +0.000 A 
ATOM      4  C   UNL     1       1.323   8.443  20.285  0.00  0.00    +0.000 A 
ATOM      5  C   UNL     1       1.936   7.411  19.629  0.00  0.00    +0.000 A 
ATOM      6  O   UNL     1       2.188   7.779  18.396  0.00  0.00    +0.000 OA
ATOM      7  N   UNL     1       1.773   8.990  18.179  0.00  0.00    +0.000 NA
BRANCH   3  11
ATOM      8  C   UNL     1      -0.449  13.378  19.812  0.00  0.00    +0.000 A 
ATOM      9  C   UNL     1      -0.959  12.481  18.847  0.00  0.00    +0.000 A 
ATOM     10  C   UNL     1      -0.427  11.204  18.698  0.00  0.00    +0.000 A 
ATOM     11  C   UNL     1       0.632  10.775  19.505  0.00  0.00    +0.000 A 
ATOM     12  C   UNL     1       1.141  11.650  20.469  0.00  0.00    +0.000 A 
ATOM     13  C   UNL     1       0.631  12.938  20.636  0.00  0.00    +0.000 A 
BRANCH   8  15
ATOM     14  C   UNL     1      -0.489  15.773  19.331  0.00  0.00    +0.000 C 
ATOM     15  O   UNL     1      -0.969  14.630  19.952  0.00  0.00    +0.000 OA
ENDBRANCH   8  15
BRANCH  13  16
ATOM     16  O   UNL     1       1.237  13.685  21.596  0.00  0.00    +0.000 OA
ATOM     17  C   UNL     1       2.307  14.544  21.484  0.00  0.00    +0.000 C 
ENDBRANCH  13  16
ENDBRANCH   3  11
ENDBRANCH   2   5
ENDBRANCH   1   2
BRANCH   1  18
ATOM     18  C   UNL     1       1.069   3.872  19.818  0.00  0.00    +0.000 C 
BRANCH  18  19
ATOM     19  C   UNL     1       2.073   2.906  20.482  0.00  0.00    +0.000 C 
BRANCH  19  20
ATOM     20  N   UNL     1       2.847   2.134  19.476  0.00  0.00    +0.000 NA
ATOM     21  C   UNL     1       2.521   2.477  18.073  0.00  0.00    +0.000 C 
ATOM     22  C   UNL     1       3.051   3.864  17.702  0.00  0.00    +0.000 C 
ATOM     23  N   UNL     1       4.494   3.881  17.917  0.00  0.00    +0.000 N 
ATOM     24  C   UNL     1       4.919   3.537  19.272  0.00  0.00    +0.000 C 
ATOM     25  C   UNL     1       4.314   2.181  19.689  0.00  0.00    +0.000 C 
BRANCH  23  26
ATOM     26  C   UNL     1       5.389   4.267  16.845  0.00  0.00    +0.000 A 
ATOM     27  C   UNL     1       5.133   3.757  15.547  0.00  0.00    +0.000 A 
ATOM     28  C   UNL     1       5.930   4.084  14.460  0.00  0.00    +0.000 A 
ATOM     29  C   UNL     1       7.021   4.919  14.622  0.00  0.00    +0.000 A 
ATOM     30  C   UNL     1       7.305   5.454  15.875  0.00  0.00    +0.000 A 
ATOM     31  C   UNL     1       6.499   5.156  17.003  0.00  0.00    +0.000 A 
BRANCH  31  32
ATOM     32  O   UNL     1       6.797   5.692  18.217  0.00  0.00    +0.000 OA
ATOM     33  C   UNL     1       7.838   6.572  18.464  0.00  0.00    +0.000 C 
ENDBRANCH  31  32
ENDBRANCH  23  26
ENDBRANCH  19  20
ENDBRANCH  18  19
ENDBRANCH   1  18
TORSDOF 10
ENDMDL
MODEL 8
REMARK VINA RESULT:      -7.3      6.315     10.669
REMARK  Name = 
REMARK  13 active torsions:
REMARK  status: ('A' for Active; 'I' for Inactive)
REMARK    1  A    between atoms: C_1  and  O_2
REMARK    2  A    between atoms: O_2  and  C_3
REMARK    3  A    between atoms: C_6  and  C_7
REMARK    4  A    between atoms: C_9  and  C_10
REMARK    5  A    between atoms: C_10  and  C_11
REMARK    6  A    between atoms: C_11  and  C_12
REMARK    7  A    between atoms: C_12  and  C_13
REMARK    8  A    between atoms: C_13  and  N_14
REMARK    9  A    between atoms: N_17  and  C_18
REMARK   10  A    between atoms: C_23  and  O_24
REMARK   11  A    between atoms: O_24  and  C_25
REMARK   12  A    between atoms: C_31  and  O_32
REMARK   13  A    between atoms: O_32  and  C_33
REMARK                            x       y       z     vdW  Elec       q    Type
REMARK                         _______ _______ _______ _____ _____    ______ ____
ROOT
ATOM      1  C   UNL     1       8.194   9.627  18.018  0.00  0.00    +0.000 C 
ENDROOT
BRANCH   1   2
ATOM      2  C   UNL     1       8.633   8.214  18.416  0.00  0.00    +0.000 C 
BRANCH   2   5
ATOM      3  C   UNL     1       6.115   5.729  17.583  0.00  0.00    +0.000 A 
ATOM      4  C   UNL     1       6.767   6.467  18.547  0.00  0.00    +0.000 A 
ATOM      5  C   UNL     1       7.677   7.210  17.846  0.00  0.00    +0.000 A 
ATOM      6  O   UNL     1       7.560   6.935  16.569  0.00  0.00    +0.000 OA
ATOM      7  N   UNL     1       6.636   6.045  16.369  0.00  0.00    +0.000 NA
BRANCH   3  11
ATOM      8  C   UNL     1       2.930   2.902  18.215  0.00  0.00    +0.000 A 
ATOM      9  C   UNL     1       3.386   3.204  16.914  0.00  0.00    +0.000 A 
ATOM     10  C   UNL     1       4.422   4.109  16.706  0.00  0.00    +0.000 A 
ATOM     11  C   UNL     1       5.040   4.745  17.788  0.00  0.00    +0.000 A 
ATOM     12  C   UNL     1       4.603   4.448  19.083  0.00  0.00    +0.000 A 
ATOM     13  C   UNL     1       3.563   3.549  19.319  0.00  0.00    +0.000 A 
BRANCH   8  15
ATOM     14  C   UNL     1       0.599   2.358  18.703  0.00  0.00    +0.000 C 
ATOM     15  O   UNL     1       1.911   2.018  18.416  0.00  0.00    +0.000 OA
ENDBRANCH   8  15
BRANCH  13  16
ATOM     16  O   UNL     1       3.230   3.374  20.625  0.00  0.00    +0.000 OA
ATOM     17  C   UNL     1       2.295   4.044  21.382  0.00  0.00    +0.000 C 
ENDBRANCH  13  16
ENDBRANCH   3  11
ENDBRANCH   2   5
ENDBRANCH   1   2
BRANCH   1  18
ATOM     18  C   UNL     1       9.333  10.665  18.123  0.00  0.00    +0.000 C 
BRANCH  18  19
ATOM     19  C   UNL     1       8.827  12.122  18.037  0.00  0.00    +0.000 C 
BRANCH  19  20
ATOM     20  N   UNL     1       9.841  13.089  18.535  0.00  0.00    +0.000 NA
ATOM     21  C   UNL     1       9.285  14.414  18.890  0.00  0.00    +0.000 C 
ATOM     22  C   UNL     1       8.444  14.342  20.166  0.00  0.00    +0.000 C 
ATOM     23  N   UNL     1       9.281  13.826  21.244  0.00  0.00    +0.000 N 
ATOM     24  C   UNL     1       9.891  12.525  20.981  0.00  0.00    +0.000 C 
ATOM     25  C   UNL     1      10.667  12.563  19.648  0.00  0.00    +0.000 C 
BRANCH  23  26
ATOM     26  C   UNL     1       9.421  14.568  22.480  0.00  0.00    +0.000 A 
ATOM     27  C   UNL     1      10.349  15.639  22.514  0.00  0.00    +0.000 A 
ATOM     28  C   UNL     1      10.538  16.411  23.651  0.00  0.00    +0.000 A 
ATOM     29  C   UNL     1       9.823  16.139  24.805  0.00  0.00    +0.000 A 
ATOM     30  C   UNL     1       8.891  15.106  24.815  0.00  0.00    +0.000 A 
ATOM     31  C   UNL     1       8.660  14.311  23.664  0.00  0.00    +0.000 A 
BRANCH  31  32
ATOM     32  O   UNL     1       7.743  13.306  23.701  0.00  0.00    +0.000 OA
ATOM     33  C   UNL     1       7.921  12.090  24.341  0.00  0.00    +0.000 C 
ENDBRANCH  31  32
ENDBRANCH  23  26
ENDBRANCH  19  20
ENDBRANCH  18  19
ENDBRANCH   1  18
TORSDOF 10
ENDMDL
MODEL 9
REMARK VINA RESULT:      -7.2      2.715      9.968
REMARK  Name = 
REMARK  13 active torsions:
REMARK  status: ('A' for Active; 'I' for Inactive)
REMARK    1  A    between atoms: C_1  and  O_2
REMARK    2  A    between atoms: O_2  and  C_3
REMARK    3  A    between atoms: C_6  and  C_7
REMARK    4  A    between atoms: C_9  and  C_10
REMARK    5  A    between atoms: C_10  and  C_11
REMARK    6  A    between atoms: C_11  and  C_12
REMARK    7  A    between atoms: C_12  and  C_13
REMARK    8  A    between atoms: C_13  and  N_14
REMARK    9  A    between atoms: N_17  and  C_18
REMARK   10  A    between atoms: C_23  and  O_24
REMARK   11  A    between atoms: O_24  and  C_25
REMARK   12  A    between atoms: C_31  and  O_32
REMARK   13  A    between atoms: O_32  and  C_33
REMARK                            x       y       z     vdW  Elec       q    Type
REMARK                         _______ _______ _______ _____ _____    ______ ____
ROOT
ATOM      1  C   UNL     1       0.114   8.335  21.991  0.00  0.00    +0.000 C 
ENDROOT
BRANCH   1   2
ATOM      2  C   UNL     1       0.854   8.736  20.711  0.00  0.00    +0.000 C 
BRANCH   2   5
ATOM      3  C   UNL     1       2.964   6.281  19.059  0.00  0.00    +0.000 A 
ATOM      4  C   UNL     1       2.435   7.554  19.084  0.00  0.00    +0.000 A 
ATOM      5  C   UNL     1       1.644   7.571  20.199  0.00  0.00    +0.000 A 
ATOM      6  O   UNL     1       1.712   6.401  20.787  0.00  0.00    +0.000 OA
ATOM      7  N   UNL     1       2.491   5.595  20.131  0.00  0.00    +0.000 NA
BRANCH   3  11
ATOM      8  C   UNL     1       5.695   4.618  16.176  0.00  0.00    +0.000 A 
ATOM      9  C   UNL     1       4.466   3.984  16.464  0.00  0.00    +0.000 A 
ATOM     10  C   UNL     1       3.577   4.524  17.388  0.00  0.00    +0.000 A 
ATOM     11  C   UNL     1       3.880   5.714  18.056  0.00  0.00    +0.000 A 
ATOM     12  C   UNL     1       5.090   6.356  17.774  0.00  0.00    +0.000 A 
ATOM     13  C   UNL     1       6.002   5.834  16.857  0.00  0.00    +0.000 A 
BRANCH   8  15
ATOM     14  C   UNL     1       6.399   4.081  13.898  0.00  0.00    +0.000 C 
ATOM     15  O   UNL     1       6.567   4.083  15.274  0.00  0.00    +0.000 OA
ENDBRANCH   8  15
BRANCH  13  16
ATOM     16  O   UNL     1       7.145   6.553  16.699  0.00  0.00    +0.000 OA
ATOM     17  C   UNL     1       7.629   7.595  17.457  0.00  0.00    +0.000 C 
ENDBRANCH  13  16
ENDBRANCH   3  11
ENDBRANCH   2   5
ENDBRANCH   1   2
BRANCH   1  18
ATOM     18  C   UNL     1      -0.629   9.515  22.655  0.00  0.00    +0.000 C 
BRANCH  18  19
ATOM     19  C   UNL     1      -0.013  10.887  22.304  0.00  0.00    +0.000 C 
BRANCH  19  20
ATOM     20  N   UNL     1      -1.041  11.847  21.824  0.00  0.00    +0.000 NA
ATOM     21  C   UNL     1      -0.870  13.223  22.345  0.00  0.00    +0.000 C 
ATOM     22  C   UNL     1       0.345  13.909  21.717  0.00  0.00    +0.000 C 
ATOM     23  N   UNL     1       0.172  13.922  20.268  0.00  0.00    +0.000 N 
ATOM     24  C   UNL     1      -0.022  12.609  19.659  0.00  0.00    +0.000 C 
ATOM     25  C   UNL     1      -1.188  11.871  20.348  0.00  0.00    +0.000 C 
BRANCH  23  26
ATOM     26  C   UNL     1       0.246  15.169  19.534  0.00  0.00    +0.000 A 
ATOM     27  C   UNL     1      -0.915  15.980  19.479  0.00  0.00    +0.000 A 
ATOM     28  C   UNL     1      -0.931  17.195  18.810  0.00  0.00    +0.000 A 
ATOM     29  C   UNL     1       0.203  17.646  18.157  0.00  0.00    +0.000 A 
ATOM     30  C   UNL     1       1.371  16.890  18.194  0.00  0.00    +0.000 A 
ATOM     31  C   UNL     1       1.426  15.653  18.886  0.00  0.00    +0.000 A 
BRANCH  31  32
ATOM     32  O   UNL     1       2.580  14.933  18.907  0.00  0.00    +0.000 OA
ATOM     33  C   UNL     1       3.813  15.418  19.313  0.00  0.00    +0.000 C 
ENDBRANCH  31  32
ENDBRANCH  23  26
ENDBRANCH  19  20
ENDBRANCH  18  19
ENDBRANCH   1  18
TORSDOF 10
ENDMDL
