MODEL 1
REMARK VINA RESULT:      -7.5      0.000      0.000
REMARK  Name = 
REMARK  5 active torsions:
REMARK  status: ('A' for Active; 'I' for Inactive)
REMARK    1  A    between atoms: C_2  and  C_3
REMARK    2  A    between atoms: C_3  and  N_4
REMARK    3  A    between atoms: C_5  and  C_7
REMARK    4  A    between atoms: N_14  and  C_15
REMARK    5  A    between atoms: C_15  and  C_16
REMARK                            x       y       z     vdW  Elec       q    Type
REMARK                         _______ _______ _______ _____ _____    ______ ____
ROOT
ATOM      1  C   UNL     1       7.644   4.551  17.778  0.00  0.00    +0.000 C 
ENDROOT
BRANCH   1   3
ATOM      2  O   UNL     1       6.798   5.397  19.879  0.00  0.00    +0.000 OA
ATOM      3  C   UNL     1       6.581   4.739  18.865  0.00  0.00    +0.000 C 
ATOM      4  N   UNL     1       5.410   4.051  18.634  0.00  0.00    +0.000 N 
ATOM      5  H   UNL     1       5.390   3.391  17.861  0.00  0.00    +0.000 HD
BRANCH   4   6
ATOM      6  C   UNL     1       4.271   4.107  19.532  0.00  0.00    +0.000 C 
BRANCH   6   7
ATOM      7  C   UNL     1       3.752   2.706  19.924  0.00  0.00    +0.000 C 
ATOM      8  C   UNL     1       2.528   2.761  20.855  0.00  0.00    +0.000 C 
ATOM      9  C   UNL     1       1.282   3.294  20.149  0.00  0.00    +0.000 C 
ATOM     10  C   UNL     1       0.953   2.479  18.901  0.00  0.00    +0.000 C 
ATOM     11  C   UNL     1       2.148   2.350  17.959  0.00  0.00    +0.000 C 
ATOM     12  C   UNL     1       3.404   1.864  18.681  0.00  0.00    +0.000 C 
ENDBRANCH   6   7
ENDBRANCH   4   6
ENDBRANCH   1   3
BRANCH   1  13
ATOM     13  N   UNL     1       7.053   4.132  16.521  0.00  0.00    +0.000 N 
ATOM     14  C   UNL     1       7.144   4.914  15.396  0.00  0.00    +0.000 C 
ATOM     15  O   UNL     1       7.730   5.994  15.394  0.00  0.00    +0.000 OA
ATOM     16  H   UNL     1       6.560   3.252  16.508  0.00  0.00    +0.000 HD
BRANCH  14  17
ATOM     17  C   UNL     1       6.508   4.355  14.157  0.00  0.00    +0.000 A 
ATOM     18  C   UNL     1       7.236   4.050  12.936  0.00  0.00    +0.000 A 
ATOM     19  C   UNL     1       6.608   3.529  11.868  0.00  0.00    +0.000 A 
ATOM     20  C   UNL     1       5.150   3.245  11.927  0.00  0.00    +0.000 A 
ATOM     21  O   UNL     1       4.555   2.774  10.968  0.00  0.00    +0.000 OA
ATOM     22  N   UNL     1       4.539   3.543  13.122  0.00  0.00    +0.000 N 
ATOM     23  C   UNL     1       5.193   4.076  14.211  0.00  0.00    +0.000 A 
ATOM     24  H   UNL     1       3.549   3.337  13.173  0.00  0.00    +0.000 HD
ENDBRANCH  14  17
ENDBRANCH   1  13
TORSDOF 5
ENDMDL
MODEL 2
REMARK VINA RESULT:      -7.4      1.152      1.558
REMARK  Name = 
REMARK  5 active torsions:
REMARK  status: ('A' for Active; 'I' for Inactive)
REMARK    1  A    between atoms: C_2  and  C_3
REMARK    2  A    between atoms: C_3  and  N_4
REMARK    3  A    between atoms: C_5  and  C_7
REMARK    4  A    between atoms: N_14  and  C_15
REMARK    5  A    between atoms: C_15  and  C_16
REMARK                            x       y       z     vdW  Elec       q    Type
REMARK                         _______ _______ _______ _____ _____    ______ ____
ROOT
ATOM      1  C   UNL     1       7.503   5.191  18.131  0.00  0.00    +0.000 C 
ENDROOT
BRANCH   1   3
ATOM      2  O   UNL     1       5.799   5.701  19.768  0.00  0.00    +0.000 OA
ATOM      3  C   UNL     1       6.246   4.897  18.954  0.00  0.00    +0.000 C 
ATOM      4  N   UNL     1       5.719   3.640  18.752  0.00  0.00    +0.000 N 
ATOM      5  H   UNL     1       6.260   2.981  18.197  0.00  0.00    +0.000 HD
BRANCH   4   6
ATOM      6  C   UNL     1       4.521   3.168  19.421  0.00  0.00    +0.000 C 
BRANCH   6   7
ATOM      7  C   UNL     1       3.259   3.293  18.540  0.00  0.00    +0.000 C 
ATOM      8  C   UNL     1       2.181   2.251  18.889  0.00  0.00    +0.000 C 
ATOM      9  C   UNL     1       1.549   2.500  20.258  0.00  0.00    +0.000 C 
ATOM     10  C   UNL     1       0.967   3.908  20.358  0.00  0.00    +0.000 C 
ATOM     11  C   UNL     1       1.980   4.985  19.977  0.00  0.00    +0.000 C 
ATOM     12  C   UNL     1       2.644   4.703  18.629  0.00  0.00    +0.000 C 
ENDBRANCH   6   7
ENDBRANCH   4   6
ENDBRANCH   1   3
BRANCH   1  13
ATOM     13  N   UNL     1       7.399   4.652  16.787  0.00  0.00    +0.000 N 
ATOM     14  C   UNL     1       6.811   5.371  15.776  0.00  0.00    +0.000 C 
ATOM     15  O   UNL     1       6.353   6.498  15.952  0.00  0.00    +0.000 OA
ATOM     16  H   UNL     1       7.762   3.724  16.629  0.00  0.00    +0.000 HD
BRANCH  14  17
ATOM     17  C   UNL     1       6.788   4.707  14.431  0.00  0.00    +0.000 A 
ATOM     18  C   UNL     1       7.585   5.142  13.294  0.00  0.00    +0.000 A 
ATOM     19  C   UNL     1       7.532   4.487  12.122  0.00  0.00    +0.000 A 
ATOM     20  C   UNL     1       6.659   3.294  11.973  0.00  0.00    +0.000 A 
ATOM     21  O   UNL     1       6.592   2.683  10.916  0.00  0.00    +0.000 OA
ATOM     22  N   UNL     1       5.954   2.936  13.098  0.00  0.00    +0.000 N 
ATOM     23  C   UNL     1       6.016   3.613  14.296  0.00  0.00    +0.000 A 
ATOM     24  H   UNL     1       5.370   2.113  13.007  0.00  0.00    +0.000 HD
ENDBRANCH  14  17
ENDBRANCH   1  13
TORSDOF 5
ENDMDL
MODEL 3
REMARK VINA RESULT:      -7.3      5.137      7.996
REMARK  Name = 
REMARK  5 active torsions:
REMARK  status: ('A' for Active; 'I' for Inactive)
REMARK    1  A    between atoms: C_2  and  C_3
REMARK    2  A    between atoms: C_3  and  N_4
REMARK    3  A    between atoms: C_5  and  C_7
REMARK    4  A    between atoms: N_14  and  C_15
REMARK    5  A    between atoms: C_15  and  C_16
REMARK                            x       y       z     vdW  Elec       q    Type
REMARK                         _______ _______ _______ _____ _____    ______ ____
ROOT
ATOM      1  C   UNL     1       7.057   7.220  16.906  0.00  0.00    +0.000 C 
ENDROOT
BRANCH   1   3
ATOM      2  O   UNL     1       8.344   6.996  18.940  0.00  0.00    +0.000 OA
ATOM      3  C   UNL     1       7.960   7.729  18.033  0.00  0.00    +0.000 C 
ATOM      4  N   UNL     1       8.232   9.078  17.972  0.00  0.00    +0.000 N 
ATOM      5  H   UNL     1       7.724   9.636  17.289  0.00  0.00    +0.000 HD
BRANCH   4   6
ATOM      6  C   UNL     1       9.080   9.758  18.934  0.00  0.00    +0.000 C 
BRANCH   6   7
ATOM      7  C   UNL     1       9.229  11.266  18.637  0.00  0.00    +0.000 C 
ATOM      8  C   UNL     1       9.250  12.127  19.912  0.00  0.00    +0.000 C 
ATOM      9  C   UNL     1      10.519  11.915  20.737  0.00  0.00    +0.000 C 
ATOM     10  C   UNL     1      11.775  12.174  19.910  0.00  0.00    +0.000 C 
ATOM     11  C   UNL     1      11.788  11.380  18.606  0.00  0.00    +0.000 C 
ATOM     12  C   UNL     1      10.495  11.557  17.809  0.00  0.00    +0.000 C 
ENDBRANCH   6   7
ENDBRANCH   4   6
ENDBRANCH   1   3
BRANCH   1  13
ATOM     13  N   UNL     1       6.033   6.322  17.406  0.00  0.00    +0.000 N 
ATOM     14  C   UNL     1       5.085   5.787  16.569  0.00  0.00    +0.000 C 
ATOM     15  O   UNL     1       5.059   6.031  15.365  0.00  0.00    +0.000 OA
ATOM     16  H   UNL     1       6.035   6.118  18.394  0.00  0.00    +0.000 HD
BRANCH  14  17
ATOM     17  C   UNL     1       4.097   4.857  17.211  0.00  0.00    +0.000 A 
ATOM     18  C   UNL     1       2.834   5.286  17.791  0.00  0.00    +0.000 A 
ATOM     19  C   UNL     1       1.984   4.396  18.331  0.00  0.00    +0.000 A 
ATOM     20  C   UNL     1       2.322   2.949  18.332  0.00  0.00    +0.000 A 
ATOM     21  O   UNL     1       1.566   2.120  18.820  0.00  0.00    +0.000 OA
ATOM     22  N   UNL     1       3.522   2.623  17.748  0.00  0.00    +0.000 N 
ATOM     23  C   UNL     1       4.387   3.543  17.196  0.00  0.00    +0.000 A 
ATOM     24  H   UNL     1       3.750   1.636  17.731  0.00  0.00    +0.000 HD
ENDBRANCH  14  17
ENDBRANCH   1  13
TORSDOF 5
ENDMDL
MODEL 4
REMARK VINA RESULT:      -7.3      1.270      1.662
REMARK  Name = 
REMARK  5 active torsions:
REMARK  status: ('A' for Active; 'I' for Inactive)
REMARK    1  A    between atoms: C_2  and  C_3
REMARK    2  A    between atoms: C_3  and  N_4
REMARK    3  A    between atoms: C_5  and  C_7
REMARK    4  A    between atoms: N_14  and  C_15
REMARK    5  A    between atoms: C_15  and  C_16
REMARK                            x       y       z     vdW  Elec       q    Type
REMARK                         _______ _______ _______ _____ _____    ______ ____
ROOT
ATOM      1  C   UNL     1       7.326   6.081  17.800  0.00  0.00    +0.000 C 
ENDROOT
BRANCH   1   3
ATOM      2  O   UNL     1       6.978   5.335  20.074  0.00  0.00    +0.000 OA
ATOM      3  C   UNL     1       6.581   5.335  18.911  0.00  0.00    +0.000 C 
ATOM      4  N   UNL     1       5.488   4.618  18.476  0.00  0.00    +0.000 N 
ATOM      5  H   UNL     1       5.344   4.533  17.472  0.00  0.00    +0.000 HD
BRANCH   4   6
ATOM      6  C   UNL     1       4.635   3.856  19.370  0.00  0.00    +0.000 C 
BRANCH   6   7
ATOM      7  C   UNL     1       3.347   4.615  19.756  0.00  0.00    +0.000 C 
ATOM      8  C   UNL     1       2.534   5.072  18.531  0.00  0.00    +0.000 C 
ATOM      9  C   UNL     1       1.910   3.900  17.775  0.00  0.00    +0.000 C 
ATOM     10  C   UNL     1       1.039   3.043  18.691  0.00  0.00    +0.000 C 
ATOM     11  C   UNL     1       1.781   2.597  19.949  0.00  0.00    +0.000 C 
ATOM     12  C   UNL     1       2.445   3.768  20.674  0.00  0.00    +0.000 C 
ENDBRANCH   6   7
ENDBRANCH   4   6
ENDBRANCH   1   3
BRANCH   1  13
ATOM     13  N   UNL     1       7.314   5.334  16.556  0.00  0.00    +0.000 N 
ATOM     14  C   UNL     1       6.479   5.685  15.524  0.00  0.00    +0.000 C 
ATOM     15  O   UNL     1       5.711   6.641  15.597  0.00  0.00    +0.000 OA
ATOM     16  H   UNL     1       7.932   4.540  16.484  0.00  0.00    +0.000 HD
BRANCH  14  17
ATOM     17  C   UNL     1       6.582   4.843  14.286  0.00  0.00    +0.000 A 
ATOM     18  C   UNL     1       7.437   5.162  13.153  0.00  0.00    +0.000 A 
ATOM     19  C   UNL     1       7.498   4.353  12.083  0.00  0.00    +0.000 A 
ATOM     20  C   UNL     1       6.694   3.104  12.047  0.00  0.00    +0.000 A 
ATOM     21  O   UNL     1       6.730   2.351  11.083  0.00  0.00    +0.000 OA
ATOM     22  N   UNL     1       5.928   2.863  13.163  0.00  0.00    +0.000 N 
ATOM     23  C   UNL     1       5.873   3.700  14.256  0.00  0.00    +0.000 A 
ATOM     24  H   UNL     1       5.390   2.005  13.151  0.00  0.00    +0.000 HD
ENDBRANCH  14  17
ENDBRANCH   1  13
TORSDOF 5
ENDMDL
MODEL 5
REMARK VINA RESULT:      -7.2      6.935      8.505
REMARK  Name = 
REMARK  5 active torsions:
REMARK  status: ('A' for Active; 'I' for Inactive)
REMARK    1  A    between atoms: C_2  and  C_3
REMARK    2  A    between atoms: C_3  and  N_4
REMARK    3  A    between atoms: C_5  and  C_7
REMARK    4  A    between atoms: N_14  and  C_15
REMARK    5  A    between atoms: C_15  and  C_16
REMARK                            x       y       z     vdW  Elec       q    Type
REMARK                         _______ _______ _______ _____ _____    ______ ____
ROOT
ATOM      1  C   UNL     1       2.199   9.221  18.012  0.00  0.00    +0.000 C 
ENDROOT
BRANCH   1   3
ATOM      2  O   UNL     1       1.891   7.795  19.940  0.00  0.00    +0.000 OA
ATOM      3  C   UNL     1       2.278   7.898  18.779  0.00  0.00    +0.000 C 
ATOM      4  N   UNL     1       2.881   6.874  18.080  0.00  0.00    +0.000 N 
ATOM      5  H   UNL     1       3.331   7.103  17.197  0.00  0.00    +0.000 HD
BRANCH   4   6
ATOM      6  C   UNL     1       3.041   5.536  18.619  0.00  0.00    +0.000 C 
BRANCH   6   7
ATOM      7  C   UNL     1       1.901   4.584  18.195  0.00  0.00    +0.000 C 
ATOM      8  C   UNL     1       2.366   3.501  17.205  0.00  0.00    +0.000 C 
ATOM      9  C   UNL     1       3.305   2.484  17.852  0.00  0.00    +0.000 C 
ATOM     10  C   UNL     1       2.670   1.834  19.078  0.00  0.00    +0.000 C 
ATOM     11  C   UNL     1       2.146   2.864  20.077  0.00  0.00    +0.000 C 
ATOM     12  C   UNL     1       1.247   3.907  19.414  0.00  0.00    +0.000 C 
ENDBRANCH   6   7
ENDBRANCH   4   6
ENDBRANCH   1   3
BRANCH   1  13
ATOM     13  N   UNL     1       0.830   9.561  17.673  0.00  0.00    +0.000 N 
ATOM     14  C   UNL     1       0.083  10.386  18.475  0.00  0.00    +0.000 C 
ATOM     15  O   UNL     1       0.531  10.880  19.508  0.00  0.00    +0.000 OA
ATOM     16  H   UNL     1       0.444   9.156  16.833  0.00  0.00    +0.000 HD
BRANCH  14  17
ATOM     17  C   UNL     1      -1.311  10.674  17.999  0.00  0.00    +0.000 A 
ATOM     18  C   UNL     1      -2.003   9.892  16.987  0.00  0.00    +0.000 A 
ATOM     19  C   UNL     1      -3.261  10.192  16.622  0.00  0.00    +0.000 A 
ATOM     20  C   UNL     1      -3.971  11.330  17.261  0.00  0.00    +0.000 A 
ATOM     21  O   UNL     1      -5.115  11.625  16.945  0.00  0.00    +0.000 OA
ATOM     22  N   UNL     1      -3.256  12.006  18.222  0.00  0.00    +0.000 N 
ATOM     23  C   UNL     1      -1.967  11.690  18.589  0.00  0.00    +0.000 A 
ATOM     24  H   UNL     1      -3.741  12.773  18.672  0.00  0.00    +0.000 HD
ENDBRANCH  14  17
ENDBRANCH   1  13
TORSDOF 5
ENDMDL
MODEL 6
REMARK VINA RESULT:      -7.1      5.198      8.179
REMARK  Name = 
REMARK  5 active torsions:
REMARK  status: ('A' for Active; 'I' for Inactive)
REMARK    1  A    between atoms: C_2  and  C_3
REMARK    2  A    between atoms: C_3  and  N_4
REMARK    3  A    between atoms: C_5  and  C_7
REMARK    4  A    between atoms: N_14  and  C_15
REMARK    5  A    between atoms: C_15  and  C_16
REMARK                            x       y       z     vdW  Elec       q    Type
REMARK                         _______ _______ _______ _____ _____    ______ ____
ROOT
ATOM      1  C   UNL     1       6.870   7.380  16.933  0.00  0.00    +0.000 C 
ENDROOT
BRANCH   1   3
ATOM      2  O   UNL     1       8.263   7.094  18.888  0.00  0.00    +0.000 OA
ATOM      3  C   UNL     1       7.845   7.851  18.016  0.00  0.00    +0.000 C 
ATOM      4  N   UNL     1       8.143   9.195  17.963  0.00  0.00    +0.000 N 
ATOM      5  H   UNL     1       7.610   9.775  17.319  0.00  0.00    +0.000 HD
BRANCH   4   6
ATOM      6  C   UNL     1       9.058   9.839  18.887  0.00  0.00    +0.000 C 
BRANCH   6   7
ATOM      7  C   UNL     1       9.236  11.346  18.596  0.00  0.00    +0.000 C 
ATOM      8  C   UNL     1       9.203  12.208  19.870  0.00  0.00    +0.000 C 
ATOM      9  C   UNL     1      10.426  11.985  20.758  0.00  0.00    +0.000 C 
ATOM     10  C   UNL     1      11.725  12.231  19.994  0.00  0.00    +0.000 C 
ATOM     11  C   UNL     1      11.794  11.435  18.692  0.00  0.00    +0.000 C 
ATOM     12  C   UNL     1      10.545  11.624  17.832  0.00  0.00    +0.000 C 
ENDBRANCH   6   7
ENDBRANCH   4   6
ENDBRANCH   1   3
BRANCH   1  13
ATOM     13  N   UNL     1       5.740   6.671  17.504  0.00  0.00    +0.000 N 
ATOM     14  C   UNL     1       4.912   5.906  16.721  0.00  0.00    +0.000 C 
ATOM     15  O   UNL     1       5.086   5.778  15.511  0.00  0.00    +0.000 OA
ATOM     16  H   UNL     1       5.578   6.774  18.494  0.00  0.00    +0.000 HD
BRANCH  14  17
ATOM     17  C   UNL     1       3.794   5.209  17.439  0.00  0.00    +0.000 A 
ATOM     18  C   UNL     1       3.337   3.864  17.125  0.00  0.00    +0.000 A 
ATOM     19  C   UNL     1       2.344   3.290  17.824  0.00  0.00    +0.000 A 
ATOM     20  C   UNL     1       1.700   4.024  18.944  0.00  0.00    +0.000 A 
ATOM     21  O   UNL     1       0.792   3.525  19.593  0.00  0.00    +0.000 OA
ATOM     22  N   UNL     1       2.201   5.280  19.190  0.00  0.00    +0.000 N 
ATOM     23  C   UNL     1       3.221   5.860  18.468  0.00  0.00    +0.000 A 
ATOM     24  H   UNL     1       1.777   5.779  19.963  0.00  0.00    +0.000 HD
ENDBRANCH  14  17
ENDBRANCH   1  13
TORSDOF 5
ENDMDL
MODEL 7
REMARK VINA RESULT:      -7.1      5.131      8.019
REMARK  Name = 
REMARK  5 active torsions:
REMARK  status: ('A' for Active; 'I' for Inactive)
REMARK    1  A    between atoms: C_2  and  C_3
REMARK    2  A    between atoms: C_3  and  N_4
REMARK    3  A    between atoms: C_5  and  C_7
REMARK    4  A    between atoms: N_14  and  C_15
REMARK    5  A    between atoms: C_15  and  C_16
REMARK                            x       y       z     vdW  Elec       q    Type
REMARK                         _______ _______ _______ _____ _____    ______ ____
ROOT
ATOM      1  C   UNL     1       7.873   6.320  18.693  0.00  0.00    +0.000 C 
ENDROOT
BRANCH   1   3
ATOM      2  O   UNL     1       7.427   7.936  16.950  0.00  0.00    +0.000 OA
ATOM      3  C   UNL     1       7.918   7.711  18.053  0.00  0.00    +0.000 C 
ATOM      4  N   UNL     1       8.612   8.648  18.787  0.00  0.00    +0.000 N 
ATOM      5  H   UNL     1       9.135   8.325  19.598  0.00  0.00    +0.000 HD
BRANCH   4   6
ATOM      6  C   UNL     1       8.758  10.030  18.368  0.00  0.00    +0.000 C 
BRANCH   6   7
ATOM      7  C   UNL     1      10.099  10.650  18.821  0.00  0.00    +0.000 C 
ATOM      8  C   UNL     1      10.685  11.625  17.784  0.00  0.00    +0.000 C 
ATOM      9  C   UNL     1       9.858  12.903  17.652  0.00  0.00    +0.000 C 
ATOM     10  C   UNL     1       9.694  13.606  18.996  0.00  0.00    +0.000 C 
ATOM     11  C   UNL     1       9.157  12.672  20.080  0.00  0.00    +0.000 C 
ATOM     12  C   UNL     1       9.959  11.374  20.173  0.00  0.00    +0.000 C 
ENDBRANCH   6   7
ENDBRANCH   4   6
ENDBRANCH   1   3
BRANCH   1  13
ATOM     13  N   UNL     1       6.521   5.795  18.735  0.00  0.00    +0.000 N 
ATOM     14  C   UNL     1       6.117   4.803  17.876  0.00  0.00    +0.000 C 
ATOM     15  O   UNL     1       6.871   4.309  17.041  0.00  0.00    +0.000 OA
ATOM     16  H   UNL     1       5.887   6.197  19.409  0.00  0.00    +0.000 HD
BRANCH  14  17
ATOM     17  C   UNL     1       4.700   4.336  18.039  0.00  0.00    +0.000 A 
ATOM     18  C   UNL     1       3.885   4.600  19.215  0.00  0.00    +0.000 A 
ATOM     19  C   UNL     1       2.614   4.171  19.286  0.00  0.00    +0.000 A 
ATOM     20  C   UNL     1       2.016   3.421  18.151  0.00  0.00    +0.000 A 
ATOM     21  O   UNL     1       0.863   3.017  18.193  0.00  0.00    +0.000 OA
ATOM     22  N   UNL     1       2.844   3.229  17.071  0.00  0.00    +0.000 N 
ATOM     23  C   UNL     1       4.146   3.675  17.007  0.00  0.00    +0.000 A 
ATOM     24  H   UNL     1       2.436   2.733  16.287  0.00  0.00    +0.000 HD
ENDBRANCH  14  17
ENDBRANCH   1  13
TORSDOF 5
ENDMDL
MODEL 8
REMARK VINA RESULT:      -7.1      5.095      8.143
REMARK  Name = 
REMARK  5 active torsions:
REMARK  status: ('A' for Active; 'I' for Inactive)
REMARK    1  A    between atoms: C_2  and  C_3
REMARK    2  A    between atoms: C_3  and  N_4
REMARK    3  A    between atoms: C_5  and  C_7
REMARK    4  A    between atoms: N_14  and  C_15
REMARK    5  A    between atoms: C_15  and  C_16
REMARK                            x       y       z     vdW  Elec       q    Type
REMARK                         _______ _______ _______ _____ _____    ______ ____
ROOT
ATOM      1  C   UNL     1       7.946   6.400  18.871  0.00  0.00    +0.000 C 
ENDROOT
BRANCH   1   3
ATOM      2  O   UNL     1       7.483   7.813  16.964  0.00  0.00    +0.000 OA
ATOM      3  C   UNL     1       7.986   7.711  18.080  0.00  0.00    +0.000 C 
ATOM      4  N   UNL     1       8.693   8.721  18.696  0.00  0.00    +0.000 N 
ATOM      5  H   UNL     1       9.225   8.487  19.531  0.00  0.00    +0.000 HD
BRANCH   4   6
ATOM      6  C   UNL     1       8.839  10.046  18.123  0.00  0.00    +0.000 C 
BRANCH   6   7
ATOM      7  C   UNL     1       9.213  11.112  19.177  0.00  0.00    +0.000 C 
ATOM      8  C   UNL     1      10.698  11.060  19.576  0.00  0.00    +0.000 C 
ATOM      9  C   UNL     1      11.623  11.502  18.443  0.00  0.00    +0.000 C 
ATOM     10  C   UNL     1      11.265  12.899  17.941  0.00  0.00    +0.000 C 
ATOM     11  C   UNL     1       9.788  13.024  17.572  0.00  0.00    +0.000 C 
ATOM     12  C   UNL     1       8.870  12.533  18.691  0.00  0.00    +0.000 C 
ENDBRANCH   6   7
ENDBRANCH   4   6
ENDBRANCH   1   3
BRANCH   1  13
ATOM     13  N   UNL     1       6.606   5.846  18.918  0.00  0.00    +0.000 N 
ATOM     14  C   UNL     1       6.237   4.805  18.103  0.00  0.00    +0.000 C 
ATOM     15  O   UNL     1       7.016   4.288  17.305  0.00  0.00    +0.000 OA
ATOM     16  H   UNL     1       5.951   6.265  19.562  0.00  0.00    +0.000 HD
BRANCH  14  17
ATOM     17  C   UNL     1       4.829   4.313  18.267  0.00  0.00    +0.000 A 
ATOM     18  C   UNL     1       3.700   4.801  17.491  0.00  0.00    +0.000 A 
ATOM     19  C   UNL     1       2.467   4.301  17.674  0.00  0.00    +0.000 A 
ATOM     20  C   UNL     1       2.240   3.225  18.674  0.00  0.00    +0.000 A 
ATOM     21  O   UNL     1       1.126   2.755  18.861  0.00  0.00    +0.000 OA
ATOM     22  N   UNL     1       3.359   2.805  19.352  0.00  0.00    +0.000 N 
ATOM     23  C   UNL     1       4.620   3.324  19.156  0.00  0.00    +0.000 A 
ATOM     24  H   UNL     1       3.214   2.060  20.023  0.00  0.00    +0.000 HD
ENDBRANCH  14  17
ENDBRANCH   1  13
TORSDOF 5
ENDMDL
MODEL 9
REMARK VINA RESULT:      -7.0      5.591      8.519
REMARK  Name = 
REMARK  5 active torsions:
REMARK  status: ('A' for Active; 'I' for Inactive)
REMARK    1  A    between atoms: C_2  and  C_3
REMARK    2  A    between atoms: C_3  and  N_4
REMARK    3  A    between atoms: C_5  and  C_7
REMARK    4  A    between atoms: N_14  and  C_15
REMARK    5  A    between atoms: C_15  and  C_16
REMARK                            x       y       z     vdW  Elec       q    Type
REMARK                         _______ _______ _______ _____ _____    ______ ____
ROOT
ATOM      1  C   UNL     1       8.150   7.126  18.294  0.00  0.00    +0.000 C 
ENDROOT
BRANCH   1   3
ATOM      2  O   UNL     1       7.534   9.278  17.379  0.00  0.00    +0.000 OA
ATOM      3  C   UNL     1       8.186   8.655  18.213  0.00  0.00    +0.000 C 
ATOM      4  N   UNL     1       9.059   9.247  19.100  0.00  0.00    +0.000 N 
ATOM      5  H   UNL     1       9.686   8.642  19.625  0.00  0.00    +0.000 HD
BRANCH   4   6
ATOM      6  C   UNL     1       9.232  10.685  19.198  0.00  0.00    +0.000 C 
BRANCH   6   7
ATOM      7  C   UNL     1      10.346  11.215  18.270  0.00  0.00    +0.000 C 
ATOM      8  C   UNL     1       9.953  12.517  17.549  0.00  0.00    +0.000 C 
ATOM      9  C   UNL     1       9.847  13.704  18.505  0.00  0.00    +0.000 C 
ATOM     10  C   UNL     1      11.141  13.910  19.289  0.00  0.00    +0.000 C 
ATOM     11  C   UNL     1      11.606  12.635  19.989  0.00  0.00    +0.000 C 
ATOM     12  C   UNL     1      11.662  11.440  19.037  0.00  0.00    +0.000 C 
ENDBRANCH   6   7
ENDBRANCH   4   6
ENDBRANCH   1   3
BRANCH   1  13
ATOM     13  N   UNL     1       6.815   6.610  18.057  0.00  0.00    +0.000 N 
ATOM     14  C   UNL     1       6.281   5.626  18.852  0.00  0.00    +0.000 C 
ATOM     15  O   UNL     1       6.897   5.142  19.799  0.00  0.00    +0.000 OA
ATOM     16  H   UNL     1       6.300   6.991  17.277  0.00  0.00    +0.000 HD
BRANCH  14  17
ATOM     17  C   UNL     1       4.884   5.198  18.512  0.00  0.00    +0.000 A 
ATOM     18  C   UNL     1       3.768   6.116  18.346  0.00  0.00    +0.000 A 
ATOM     19  C   UNL     1       2.546   5.666  18.019  0.00  0.00    +0.000 A 
ATOM     20  C   UNL     1       2.317   4.212  17.811  0.00  0.00    +0.000 A 
ATOM     21  O   UNL     1       1.213   3.778  17.516  0.00  0.00    +0.000 OA
ATOM     22  N   UNL     1       3.425   3.414  17.968  0.00  0.00    +0.000 N 
ATOM     23  C   UNL     1       4.675   3.885  18.303  0.00  0.00    +0.000 A 
ATOM     24  H   UNL     1       3.279   2.423  17.812  0.00  0.00    +0.000 HD
ENDBRANCH  14  17
ENDBRANCH   1  13
TORSDOF 5
ENDMDL
