MODEL 1
REMARK VINA RESULT:      -8.1      0.000      0.000
REMARK  Name = 
REMARK  5 active torsions:
REMARK  status: ('A' for Active; 'I' for Inactive)
REMARK    1  A    between atoms: N_1  and  C_2
REMARK    2  A    between atoms: C_2  and  C_3
REMARK    3  A    between atoms: C_6  and  C_7
REMARK    4  A    between atoms: C_12  and  C_13
REMARK    5  A    between atoms: C_18  and  C_19
REMARK                            x       y       z     vdW  Elec       q    Type
REMARK                         _______ _______ _______ _____ _____    ______ ____
ROOT
ATOM      1  C   UNL     1       1.255  11.370  19.040  0.00  0.00    +0.000 A 
ATOM      2  N   UNL     1       2.205  12.304  19.385  0.00  0.00    +0.000 NA
ATOM      3  C   UNL     1       1.618  13.465  19.238  0.00  0.00    +0.000 A 
ATOM      4  C   UNL     1       2.125  14.784  19.419  0.00  0.00    +0.000 A 
ATOM      5  C   UNL     1       1.335  15.849  19.182  0.00  0.00    +0.000 A 
ATOM      6  C   UNL     1      -0.060  15.689  18.766  0.00  0.00    +0.000 A 
ATOM      7  C   UNL     1      -0.537  14.430  18.650  0.00  0.00    +0.000 A 
ATOM      8  N   UNL     1       0.292  13.330  18.848  0.00  0.00    +0.000 N 
ATOM      9  C   UNL     1       0.031  11.962  18.718  0.00  0.00    +0.000 A 
ENDROOT
BRANCH   1  13
ATOM     10  C   UNL     1       2.275   7.184  19.056  0.00  0.00    +0.000 A 
ATOM     11  C   UNL     1       2.491   8.005  17.932  0.00  0.00    +0.000 A 
ATOM     12  C   UNL     1       2.152   9.364  17.926  0.00  0.00    +0.000 A 
ATOM     13  C   UNL     1       1.580   9.953  19.056  0.00  0.00    +0.000 A 
ATOM     14  C   UNL     1       1.333   9.153  20.170  0.00  0.00    +0.000 A 
ATOM     15  C   UNL     1       1.706   7.810  20.179  0.00  0.00    +0.000 A 
BRANCH  10  16
ATOM     16  C   UNL     1       2.619   5.649  19.056  0.00  0.00    +0.000 C 
ATOM     17  C   UNL     1       1.504   4.581  19.258  0.00  0.00    +0.000 C 
ATOM     18  C   UNL     1       1.487   4.419  17.726  0.00  0.00    +0.000 C 
ATOM     19  C   UNL     1       2.944   4.920  17.720  0.00  0.00    +0.000 C 
BRANCH  16  20
ATOM     20  N   UNL     1       3.691   5.367  20.010  0.00  0.00    +0.000 NA
ATOM     21  H   UNL     1       3.921   6.173  20.590  0.00  0.00    +0.000 HD
ATOM     22  H   UNL     1       4.567   5.109  19.557  0.00  0.00    +0.000 HD
ENDBRANCH  16  20
ENDBRANCH  10  16
ENDBRANCH   1  13
BRANCH   9  23
ATOM     23  C   UNL     1      -1.281  11.383  18.358  0.00  0.00    +0.000 A 
ATOM     24  C   UNL     1      -2.485  11.905  18.858  0.00  0.00    +0.000 A 
ATOM     25  C   UNL     1      -3.715  11.318  18.547  0.00  0.00    +0.000 A 
ATOM     26  C   UNL     1      -3.771  10.248  17.660  0.00  0.00    +0.000 A 
ATOM     27  C   UNL     1      -2.598   9.756  17.100  0.00  0.00    +0.000 A 
ATOM     28  C   UNL     1      -1.365  10.296  17.473  0.00  0.00    +0.000 A 
ENDBRANCH   9  23
BRANCH   6  29
ATOM     29  C   UNL     1      -0.877  16.890  18.543  0.00  0.00    +0.000 C 
ATOM     30  C   UNL     1      -0.342  18.273  18.813  0.00  0.00    +0.000 C 
ATOM     31  C   UNL     1      -0.503  17.804  17.397  0.00  0.00    +0.000 C 
ENDBRANCH   6  29
TORSDOF 5
ENDMDL
MODEL 2
REMARK VINA RESULT:      -8.0      0.084      1.261
REMARK  Name = 
REMARK  5 active torsions:
REMARK  status: ('A' for Active; 'I' for Inactive)
REMARK    1  A    between atoms: N_1  and  C_2
REMARK    2  A    between atoms: C_2  and  C_3
REMARK    3  A    between atoms: C_6  and  C_7
REMARK    4  A    between atoms: C_12  and  C_13
REMARK    5  A    between atoms: C_18  and  C_19
REMARK                            x       y       z     vdW  Elec       q    Type
REMARK                         _______ _______ _______ _____ _____    ______ ____
ROOT
ATOM      1  C   UNL     1       1.253  11.436  19.009  0.00  0.00    +0.000 A 
ATOM      2  N   UNL     1       2.190  12.381  19.358  0.00  0.00    +0.000 NA
ATOM      3  C   UNL     1       1.585  13.534  19.228  0.00  0.00    +0.000 A 
ATOM      4  C   UNL     1       2.074  14.859  19.421  0.00  0.00    +0.000 A 
ATOM      5  C   UNL     1       1.265  15.915  19.201  0.00  0.00    +0.000 A 
ATOM      6  C   UNL     1      -0.130  15.739  18.791  0.00  0.00    +0.000 A 
ATOM      7  C   UNL     1      -0.589  14.473  18.665  0.00  0.00    +0.000 A 
ATOM      8  N   UNL     1       0.259  13.384  18.845  0.00  0.00    +0.000 N 
ATOM      9  C   UNL     1       0.018  12.013  18.702  0.00  0.00    +0.000 A 
ENDROOT
BRANCH   1  13
ATOM     10  C   UNL     1       2.219   7.238  19.031  0.00  0.00    +0.000 A 
ATOM     11  C   UNL     1       1.597   7.871  20.125  0.00  0.00    +0.000 A 
ATOM     12  C   UNL     1       1.290   9.237  20.119  0.00  0.00    +0.000 A 
ATOM     13  C   UNL     1       1.599  10.025  19.007  0.00  0.00    +0.000 A 
ATOM     14  C   UNL     1       2.238   9.425  17.924  0.00  0.00    +0.000 A 
ATOM     15  C   UNL     1       2.506   8.057  17.924  0.00  0.00    +0.000 A 
BRANCH  10  16
ATOM     16  C   UNL     1       2.599   5.712  19.046  0.00  0.00    +0.000 C 
ATOM     17  C   UNL     1       1.513   4.622  19.292  0.00  0.00    +0.000 C 
ATOM     18  C   UNL     1       1.462   4.435  17.764  0.00  0.00    +0.000 C 
ATOM     19  C   UNL     1       2.906   4.969  17.714  0.00  0.00    +0.000 C 
BRANCH  16  20
ATOM     20  N   UNL     1       3.700   5.469  19.976  0.00  0.00    +0.000 NA
ATOM     21  H   UNL     1       3.578   4.612  20.514  0.00  0.00    +0.000 HD
ATOM     22  H   UNL     1       3.799   6.207  20.674  0.00  0.00    +0.000 HD
ENDBRANCH  16  20
ENDBRANCH  10  16
ENDBRANCH   1  13
BRANCH   9  23
ATOM     23  C   UNL     1      -1.288  11.419  18.343  0.00  0.00    +0.000 A 
ATOM     24  C   UNL     1      -1.386  10.291  17.512  0.00  0.00    +0.000 A 
ATOM     25  C   UNL     1      -2.628   9.768  17.142  0.00  0.00    +0.000 A 
ATOM     26  C   UNL     1      -3.796  10.312  17.666  0.00  0.00    +0.000 A 
ATOM     27  C   UNL     1      -3.721  11.387  18.544  0.00  0.00    +0.000 A 
ATOM     28  C   UNL     1      -2.482  11.955  18.850  0.00  0.00    +0.000 A 
ENDBRANCH   9  23
BRANCH   6  29
ATOM     29  C   UNL     1      -0.966  16.929  18.588  0.00  0.00    +0.000 C 
ATOM     30  C   UNL     1      -0.442  18.318  18.846  0.00  0.00    +0.000 C 
ATOM     31  C   UNL     1      -0.629  17.848  17.434  0.00  0.00    +0.000 C 
ENDBRANCH   6  29
TORSDOF 5
ENDMDL
MODEL 3
REMARK VINA RESULT:      -7.9      0.470      1.127
REMARK  Name = 
REMARK  5 active torsions:
REMARK  status: ('A' for Active; 'I' for Inactive)
REMARK    1  A    between atoms: N_1  and  C_2
REMARK    2  A    between atoms: C_2  and  C_3
REMARK    3  A    between atoms: C_6  and  C_7
REMARK    4  A    between atoms: C_12  and  C_13
REMARK    5  A    between atoms: C_18  and  C_19
REMARK                            x       y       z     vdW  Elec       q    Type
REMARK                         _______ _______ _______ _____ _____    ______ ____
ROOT
ATOM      1  C   UNL     1       1.244  11.338  19.128  0.00  0.00    +0.000 A 
ATOM      2  N   UNL     1       2.194  12.266  19.489  0.00  0.00    +0.000 NA
ATOM      3  C   UNL     1       1.627  13.431  19.305  0.00  0.00    +0.000 A 
ATOM      4  C   UNL     1       2.145  14.747  19.482  0.00  0.00    +0.000 A 
ATOM      5  C   UNL     1       1.376  15.818  19.203  0.00  0.00    +0.000 A 
ATOM      6  C   UNL     1      -0.006  15.669  18.743  0.00  0.00    +0.000 A 
ATOM      7  C   UNL     1      -0.495  14.413  18.631  0.00  0.00    +0.000 A 
ATOM      8  N   UNL     1       0.313  13.307  18.873  0.00  0.00    +0.000 N 
ATOM      9  C   UNL     1       0.039  11.940  18.756  0.00  0.00    +0.000 A 
ENDROOT
BRANCH   1  13
ATOM     10  C   UNL     1       2.208   7.141  19.239  0.00  0.00    +0.000 A 
ATOM     11  C   UNL     1       2.444   7.935  18.100  0.00  0.00    +0.000 A 
ATOM     12  C   UNL     1       2.124   9.298  18.064  0.00  0.00    +0.000 A 
ATOM     13  C   UNL     1       1.550   9.918  19.176  0.00  0.00    +0.000 A 
ATOM     14  C   UNL     1       1.283   9.145  20.304  0.00  0.00    +0.000 A 
ATOM     15  C   UNL     1       1.639   7.798  20.345  0.00  0.00    +0.000 A 
BRANCH  10  16
ATOM     16  C   UNL     1       2.532   5.602  19.275  0.00  0.00    +0.000 C 
ATOM     17  C   UNL     1       2.423   4.794  20.602  0.00  0.00    +0.000 C 
ATOM     18  C   UNL     1       1.035   4.332  20.118  0.00  0.00    +0.000 C 
ATOM     19  C   UNL     1       1.526   4.576  18.679  0.00  0.00    +0.000 C 
BRANCH  16  20
ATOM     20  N   UNL     1       3.851   5.346  18.698  0.00  0.00    +0.000 NA
ATOM     21  H   UNL     1       3.873   4.500  18.129  0.00  0.00    +0.000 HD
ATOM     22  H   UNL     1       4.573   5.206  19.405  0.00  0.00    +0.000 HD
ENDBRANCH  16  20
ENDBRANCH  10  16
ENDBRANCH   1  13
BRANCH   9  23
ATOM     23  C   UNL     1      -1.268  11.372  18.360  0.00  0.00    +0.000 A 
ATOM     24  C   UNL     1      -1.366  10.258  17.511  0.00  0.00    +0.000 A 
ATOM     25  C   UNL     1      -2.608   9.761  17.106  0.00  0.00    +0.000 A 
ATOM     26  C   UNL     1      -3.778  10.316  17.614  0.00  0.00    +0.000 A 
ATOM     27  C   UNL     1      -3.705  11.376  18.509  0.00  0.00    +0.000 A 
ATOM     28  C   UNL     1      -2.464  11.919  18.850  0.00  0.00    +0.000 A 
ENDBRANCH   9  23
BRANCH   6  29
ATOM     29  C   UNL     1      -0.800  16.875  18.475  0.00  0.00    +0.000 C 
ATOM     30  C   UNL     1      -0.237  18.257  18.692  0.00  0.00    +0.000 C 
ATOM     31  C   UNL     1      -0.409  17.738  17.294  0.00  0.00    +0.000 C 
ENDBRANCH   6  29
TORSDOF 5
ENDMDL
MODEL 4
REMARK VINA RESULT:      -7.9      0.517      1.135
REMARK  Name = 
REMARK  5 active torsions:
REMARK  status: ('A' for Active; 'I' for Inactive)
REMARK    1  A    between atoms: N_1  and  C_2
REMARK    2  A    between atoms: C_2  and  C_3
REMARK    3  A    between atoms: C_6  and  C_7
REMARK    4  A    between atoms: C_12  and  C_13
REMARK    5  A    between atoms: C_18  and  C_19
REMARK                            x       y       z     vdW  Elec       q    Type
REMARK                         _______ _______ _______ _____ _____    ______ ____
ROOT
ATOM      1  C   UNL     1       1.164  11.472  19.137  0.00  0.00    +0.000 A 
ATOM      2  N   UNL     1       2.129  12.391  19.482  0.00  0.00    +0.000 NA
ATOM      3  C   UNL     1       1.573  13.562  19.300  0.00  0.00    +0.000 A 
ATOM      4  C   UNL     1       2.108  14.872  19.465  0.00  0.00    +0.000 A 
ATOM      5  C   UNL     1       1.348  15.950  19.190  0.00  0.00    +0.000 A 
ATOM      6  C   UNL     1      -0.041  15.815  18.748  0.00  0.00    +0.000 A 
ATOM      7  C   UNL     1      -0.546  14.565  18.648  0.00  0.00    +0.000 A 
ATOM      8  N   UNL     1       0.252  13.450  18.886  0.00  0.00    +0.000 N 
ATOM      9  C   UNL     1      -0.038  12.086  18.778  0.00  0.00    +0.000 A 
ENDROOT
BRANCH   1  13
ATOM     10  C   UNL     1       2.080   7.264  19.255  0.00  0.00    +0.000 A 
ATOM     11  C   UNL     1       2.275   8.043  18.097  0.00  0.00    +0.000 A 
ATOM     12  C   UNL     1       1.969   9.409  18.059  0.00  0.00    +0.000 A 
ATOM     13  C   UNL     1       1.454  10.048  19.188  0.00  0.00    +0.000 A 
ATOM     14  C   UNL     1       1.230   9.292  20.337  0.00  0.00    +0.000 A 
ATOM     15  C   UNL     1       1.570   7.941  20.377  0.00  0.00    +0.000 A 
BRANCH  10  16
ATOM     16  C   UNL     1       2.387   5.721  19.293  0.00  0.00    +0.000 C 
ATOM     17  C   UNL     1       2.065   4.813  18.069  0.00  0.00    +0.000 C 
ATOM     18  C   UNL     1       3.550   4.941  17.680  0.00  0.00    +0.000 C 
ATOM     19  C   UNL     1       3.851   5.211  19.166  0.00  0.00    +0.000 C 
BRANCH  16  20
ATOM     20  N   UNL     1       1.785   5.112  20.478  0.00  0.00    +0.000 NA
ATOM     21  H   UNL     1       2.476   4.683  21.093  0.00  0.00    +0.000 HD
ATOM     22  H   UNL     1       1.133   4.361  20.250  0.00  0.00    +0.000 HD
ENDBRANCH  16  20
ENDBRANCH  10  16
ENDBRANCH   1  13
BRANCH   9  23
ATOM     23  C   UNL     1      -1.357  11.531  18.403  0.00  0.00    +0.000 A 
ATOM     24  C   UNL     1      -1.483  10.473  17.487  0.00  0.00    +0.000 A 
ATOM     25  C   UNL     1      -2.737   9.990  17.105  0.00  0.00    +0.000 A 
ATOM     26  C   UNL     1      -3.889  10.499  17.696  0.00  0.00    +0.000 A 
ATOM     27  C   UNL     1      -3.785  11.501  18.654  0.00  0.00    +0.000 A 
ATOM     28  C   UNL     1      -2.535  12.034  18.976  0.00  0.00    +0.000 A 
ENDBRANCH   9  23
BRANCH   6  29
ATOM     29  C   UNL     1      -0.825  17.029  18.485  0.00  0.00    +0.000 C 
ATOM     30  C   UNL     1      -0.243  18.405  18.686  0.00  0.00    +0.000 C 
ATOM     31  C   UNL     1      -0.441  17.881  17.294  0.00  0.00    +0.000 C 
ENDBRANCH   6  29
TORSDOF 5
ENDMDL
MODEL 5
REMARK VINA RESULT:      -7.8      1.120      1.557
REMARK  Name = 
REMARK  5 active torsions:
REMARK  status: ('A' for Active; 'I' for Inactive)
REMARK    1  A    between atoms: N_1  and  C_2
REMARK    2  A    between atoms: C_2  and  C_3
REMARK    3  A    between atoms: C_6  and  C_7
REMARK    4  A    between atoms: C_12  and  C_13
REMARK    5  A    between atoms: C_18  and  C_19
REMARK                            x       y       z     vdW  Elec       q    Type
REMARK                         _______ _______ _______ _____ _____    ______ ____
ROOT
ATOM      1  C   UNL     1       0.818  11.047  20.146  0.00  0.00    +0.000 A 
ATOM      2  N   UNL     1       1.535  11.932  20.918  0.00  0.00    +0.000 NA
ATOM      3  C   UNL     1       0.960  13.094  20.737  0.00  0.00    +0.000 A 
ATOM      4  C   UNL     1       1.291  14.378  21.258  0.00  0.00    +0.000 A 
ATOM      5  C   UNL     1       0.561  15.456  20.910  0.00  0.00    +0.000 A 
ATOM      6  C   UNL     1      -0.598  15.342  20.023  0.00  0.00    +0.000 A 
ATOM      7  C   UNL     1      -0.928  14.107  19.582  0.00  0.00    +0.000 A 
ATOM      8  N   UNL     1      -0.146  13.001  19.901  0.00  0.00    +0.000 N 
ATOM      9  C   UNL     1      -0.260  11.664  19.506  0.00  0.00    +0.000 A 
ENDROOT
BRANCH   1  13
ATOM     10  C   UNL     1       2.030   6.919  19.922  0.00  0.00    +0.000 A 
ATOM     11  C   UNL     1       2.235   7.820  18.859  0.00  0.00    +0.000 A 
ATOM     12  C   UNL     1       1.834   9.160  18.931  0.00  0.00    +0.000 A 
ATOM     13  C   UNL     1       1.208   9.648  20.080  0.00  0.00    +0.000 A 
ATOM     14  C   UNL     1       0.971   8.768  21.134  0.00  0.00    +0.000 A 
ATOM     15  C   UNL     1       1.406   7.445  21.067  0.00  0.00    +0.000 A 
BRANCH  10  16
ATOM     16  C   UNL     1       2.445   5.404  19.834  0.00  0.00    +0.000 C 
ATOM     17  C   UNL     1       2.128   4.421  21.000  0.00  0.00    +0.000 C 
ATOM     18  C   UNL     1       0.900   3.971  20.186  0.00  0.00    +0.000 C 
ATOM     19  C   UNL     1       1.651   4.427  18.921  0.00  0.00    +0.000 C 
BRANCH  16  20
ATOM     20  N   UNL     1       3.867   5.283  19.516  0.00  0.00    +0.000 NA
ATOM     21  H   UNL     1       4.234   4.351  19.707  0.00  0.00    +0.000 HD
ATOM     22  H   UNL     1       4.451   5.914  20.064  0.00  0.00    +0.000 HD
ENDBRANCH  16  20
ENDBRANCH  10  16
ENDBRANCH   1  13
BRANCH   9  23
ATOM     23  C   UNL     1      -1.334  11.128  18.643  0.00  0.00    +0.000 A 
ATOM     24  C   UNL     1      -1.071  10.201  17.621  0.00  0.00    +0.000 A 
ATOM     25  C   UNL     1      -2.089   9.739  16.781  0.00  0.00    +0.000 A 
ATOM     26  C   UNL     1      -3.405  10.130  17.002  0.00  0.00    +0.000 A 
ATOM     27  C   UNL     1      -3.699  10.995  18.049  0.00  0.00    +0.000 A 
ATOM     28  C   UNL     1      -2.670  11.515  18.838  0.00  0.00    +0.000 A 
ENDBRANCH   9  23
BRANCH   6  29
ATOM     29  C   UNL     1      -1.367  16.551  19.698  0.00  0.00    +0.000 C 
ATOM     30  C   UNL     1      -0.784  17.930  19.875  0.00  0.00    +0.000 C 
ATOM     31  C   UNL     1      -0.942  17.363  18.494  0.00  0.00    +0.000 C 
ENDBRANCH   6  29
TORSDOF 5
ENDMDL
MODEL 6
REMARK VINA RESULT:      -7.8      0.510      1.129
REMARK  Name = 
REMARK  5 active torsions:
REMARK  status: ('A' for Active; 'I' for Inactive)
REMARK    1  A    between atoms: N_1  and  C_2
REMARK    2  A    between atoms: C_2  and  C_3
REMARK    3  A    between atoms: C_6  and  C_7
REMARK    4  A    between atoms: C_12  and  C_13
REMARK    5  A    between atoms: C_18  and  C_19
REMARK                            x       y       z     vdW  Elec       q    Type
REMARK                         _______ _______ _______ _____ _____    ______ ____
ROOT
ATOM      1  C   UNL     1       1.207  11.490  19.075  0.00  0.00    +0.000 A 
ATOM      2  N   UNL     1       2.171  12.414  19.403  0.00  0.00    +0.000 NA
ATOM      3  C   UNL     1       1.603  13.581  19.240  0.00  0.00    +0.000 A 
ATOM      4  C   UNL     1       2.131  14.895  19.401  0.00  0.00    +0.000 A 
ATOM      5  C   UNL     1       1.357  15.969  19.150  0.00  0.00    +0.000 A 
ATOM      6  C   UNL     1      -0.041  15.825  18.738  0.00  0.00    +0.000 A 
ATOM      7  C   UNL     1      -0.539  14.571  18.642  0.00  0.00    +0.000 A 
ATOM      8  N   UNL     1       0.274  13.462  18.855  0.00  0.00    +0.000 N 
ATOM      9  C   UNL     1      -0.009  12.096  18.747  0.00  0.00    +0.000 A 
ENDROOT
BRANCH   1  13
ATOM     10  C   UNL     1       2.045   7.266  19.217  0.00  0.00    +0.000 A 
ATOM     11  C   UNL     1       1.541   7.969  20.328  0.00  0.00    +0.000 A 
ATOM     12  C   UNL     1       1.276   9.343  20.282  0.00  0.00    +0.000 A 
ATOM     13  C   UNL     1       1.509  10.068  19.111  0.00  0.00    +0.000 A 
ATOM     14  C   UNL     1       2.032   9.398  18.007  0.00  0.00    +0.000 A 
ATOM     15  C   UNL     1       2.258   8.024  18.051  0.00  0.00    +0.000 A 
BRANCH  10  16
ATOM     16  C   UNL     1       2.379   5.730  19.272  0.00  0.00    +0.000 C 
ATOM     17  C   UNL     1       2.071   4.802  18.059  0.00  0.00    +0.000 C 
ATOM     18  C   UNL     1       3.553   4.952  17.666  0.00  0.00    +0.000 C 
ATOM     19  C   UNL     1       3.851   5.244  19.149  0.00  0.00    +0.000 C 
BRANCH  16  20
ATOM     20  N   UNL     1       1.789   5.123  20.465  0.00  0.00    +0.000 NA
ATOM     21  H   UNL     1       0.822   5.409  20.613  0.00  0.00    +0.000 HD
ATOM     22  H   UNL     1       2.275   5.382  21.323  0.00  0.00    +0.000 HD
ENDBRANCH  16  20
ENDBRANCH  10  16
ENDBRANCH   1  13
BRANCH   9  23
ATOM     23  C   UNL     1      -1.331  11.533  18.397  0.00  0.00    +0.000 A 
ATOM     24  C   UNL     1      -2.524  12.065  18.913  0.00  0.00    +0.000 A 
ATOM     25  C   UNL     1      -3.763  11.492  18.612  0.00  0.00    +0.000 A 
ATOM     26  C   UNL     1      -3.840  10.428  17.720  0.00  0.00    +0.000 A 
ATOM     27  C   UNL     1      -2.678   9.927  17.145  0.00  0.00    +0.000 A 
ATOM     28  C   UNL     1      -1.435  10.452  17.508  0.00  0.00    +0.000 A 
ENDBRANCH   9  23
BRANCH   6  29
ATOM     29  C   UNL     1      -0.840  17.035  18.499  0.00  0.00    +0.000 C 
ATOM     30  C   UNL     1      -0.263  18.414  18.690  0.00  0.00    +0.000 C 
ATOM     31  C   UNL     1      -0.493  17.893  17.302  0.00  0.00    +0.000 C 
ENDBRANCH   6  29
TORSDOF 5
ENDMDL
MODEL 7
REMARK VINA RESULT:      -7.7      2.786      3.226
REMARK  Name = 
REMARK  5 active torsions:
REMARK  status: ('A' for Active; 'I' for Inactive)
REMARK    1  A    between atoms: N_1  and  C_2
REMARK    2  A    between atoms: C_2  and  C_3
REMARK    3  A    between atoms: C_6  and  C_7
REMARK    4  A    between atoms: C_12  and  C_13
REMARK    5  A    between atoms: C_18  and  C_19
REMARK                            x       y       z     vdW  Elec       q    Type
REMARK                         _______ _______ _______ _____ _____    ______ ____
ROOT
ATOM      1  C   UNL     1      -0.054  10.661  20.379  0.00  0.00    +0.000 A 
ATOM      2  N   UNL     1       0.218  11.233  21.600  0.00  0.00    +0.000 NA
ATOM      3  C   UNL     1      -0.689  12.165  21.756  0.00  0.00    +0.000 A 
ATOM      4  C   UNL     1      -0.879  13.098  22.816  0.00  0.00    +0.000 A 
ATOM      5  C   UNL     1      -1.881  13.997  22.751  0.00  0.00    +0.000 A 
ATOM      6  C   UNL     1      -2.812  14.025  21.621  0.00  0.00    +0.000 A 
ATOM      7  C   UNL     1      -2.646  13.098  20.651  0.00  0.00    +0.000 A 
ATOM      8  N   UNL     1      -1.584  12.201  20.694  0.00  0.00    +0.000 N 
ATOM      9  C   UNL     1      -1.189  11.217  19.781  0.00  0.00    +0.000 A 
ENDROOT
BRANCH   1  13
ATOM     10  C   UNL     1       2.410   7.461  18.882  0.00  0.00    +0.000 A 
ATOM     11  C   UNL     1       1.968   7.505  20.218  0.00  0.00    +0.000 A 
ATOM     12  C   UNL     1       1.173   8.550  20.705  0.00  0.00    +0.000 A 
ATOM     13  C   UNL     1       0.790   9.596  19.863  0.00  0.00    +0.000 A 
ATOM     14  C   UNL     1       1.238   9.586  18.543  0.00  0.00    +0.000 A 
ATOM     15  C   UNL     1       1.999   8.524  18.058  0.00  0.00    +0.000 A 
BRANCH  10  16
ATOM     16  C   UNL     1       3.334   6.308  18.338  0.00  0.00    +0.000 C 
ATOM     17  C   UNL     1       4.146   5.408  19.317  0.00  0.00    +0.000 C 
ATOM     18  C   UNL     1       3.021   4.366  19.170  0.00  0.00    +0.000 C 
ATOM     19  C   UNL     1       2.706   4.992  17.798  0.00  0.00    +0.000 C 
BRANCH  16  20
ATOM     20  N   UNL     1       4.258   6.828  17.332  0.00  0.00    +0.000 NA
ATOM     21  H   UNL     1       4.025   6.519  16.388  0.00  0.00    +0.000 HD
ATOM     22  H   UNL     1       5.219   6.522  17.480  0.00  0.00    +0.000 HD
ENDBRANCH  16  20
ENDBRANCH  10  16
ENDBRANCH   1  13
BRANCH   9  23
ATOM     23  C   UNL     1      -1.901  10.896  18.526  0.00  0.00    +0.000 A 
ATOM     24  C   UNL     1      -2.714   9.758  18.404  0.00  0.00    +0.000 A 
ATOM     25  C   UNL     1      -3.343   9.441  17.197  0.00  0.00    +0.000 A 
ATOM     26  C   UNL     1      -3.239  10.304  16.110  0.00  0.00    +0.000 A 
ATOM     27  C   UNL     1      -2.493  11.471  16.227  0.00  0.00    +0.000 A 
ATOM     28  C   UNL     1      -1.804  11.745  17.411  0.00  0.00    +0.000 A 
ENDBRANCH   9  23
BRANCH   6  29
ATOM     29  C   UNL     1      -3.897  15.016  21.618  0.00  0.00    +0.000 C 
ATOM     30  C   UNL     1      -5.144  14.821  20.794  0.00  0.00    +0.000 C 
ATOM     31  C   UNL     1      -5.204  14.642  22.283  0.00  0.00    +0.000 C 
ENDBRANCH   6  29
TORSDOF 5
ENDMDL
MODEL 8
REMARK VINA RESULT:      -7.7      2.606      3.009
REMARK  Name = 
REMARK  5 active torsions:
REMARK  status: ('A' for Active; 'I' for Inactive)
REMARK    1  A    between atoms: N_1  and  C_2
REMARK    2  A    between atoms: C_2  and  C_3
REMARK    3  A    between atoms: C_6  and  C_7
REMARK    4  A    between atoms: C_12  and  C_13
REMARK    5  A    between atoms: C_18  and  C_19
REMARK                            x       y       z     vdW  Elec       q    Type
REMARK                         _______ _______ _______ _____ _____    ______ ____
ROOT
ATOM      1  C   UNL     1      -0.050  10.633  20.417  0.00  0.00    +0.000 A 
ATOM      2  N   UNL     1       0.218  11.190  21.646  0.00  0.00    +0.000 NA
ATOM      3  C   UNL     1      -0.685  12.122  21.809  0.00  0.00    +0.000 A 
ATOM      4  C   UNL     1      -0.877  13.043  22.879  0.00  0.00    +0.000 A 
ATOM      5  C   UNL     1      -1.876  13.946  22.821  0.00  0.00    +0.000 A 
ATOM      6  C   UNL     1      -2.802  13.991  21.688  0.00  0.00    +0.000 A 
ATOM      7  C   UNL     1      -2.636  13.074  20.708  0.00  0.00    +0.000 A 
ATOM      8  N   UNL     1      -1.576  12.173  20.744  0.00  0.00    +0.000 N 
ATOM      9  C   UNL     1      -1.180  11.200  19.821  0.00  0.00    +0.000 A 
ENDROOT
BRANCH   1  13
ATOM     10  C   UNL     1       2.411   7.443  18.892  0.00  0.00    +0.000 A 
ATOM     11  C   UNL     1       1.976   7.481  20.231  0.00  0.00    +0.000 A 
ATOM     12  C   UNL     1       1.182   8.522  20.726  0.00  0.00    +0.000 A 
ATOM     13  C   UNL     1       0.793   9.572  19.891  0.00  0.00    +0.000 A 
ATOM     14  C   UNL     1       1.233   9.568  18.569  0.00  0.00    +0.000 A 
ATOM     15  C   UNL     1       1.993   8.509  18.075  0.00  0.00    +0.000 A 
BRANCH  10  16
ATOM     16  C   UNL     1       3.333   6.295  18.338  0.00  0.00    +0.000 C 
ATOM     17  C   UNL     1       4.162   5.400  19.307  0.00  0.00    +0.000 C 
ATOM     18  C   UNL     1       3.041   4.351  19.177  0.00  0.00    +0.000 C 
ATOM     19  C   UNL     1       2.705   4.974  17.808  0.00  0.00    +0.000 C 
BRANCH  16  20
ATOM     20  N   UNL     1       4.241   6.817  17.319  0.00  0.00    +0.000 NA
ATOM     21  H   UNL     1       3.769   7.415  16.641  0.00  0.00    +0.000 HD
ATOM     22  H   UNL     1       4.678   6.083  16.762  0.00  0.00    +0.000 HD
ENDBRANCH  16  20
ENDBRANCH  10  16
ENDBRANCH   1  13
BRANCH   9  23
ATOM     23  C   UNL     1      -1.888  10.896  18.559  0.00  0.00    +0.000 A 
ATOM     24  C   UNL     1      -1.779  11.725  17.430  0.00  0.00    +0.000 A 
ATOM     25  C   UNL     1      -2.491  11.452  16.258  0.00  0.00    +0.000 A 
ATOM     26  C   UNL     1      -3.261  10.297  16.165  0.00  0.00    +0.000 A 
ATOM     27  C   UNL     1      -3.331   9.428  17.247  0.00  0.00    +0.000 A 
ATOM     28  C   UNL     1      -2.680   9.743  18.441  0.00  0.00    +0.000 A 
ENDBRANCH   9  23
BRANCH   6  29
ATOM     29  C   UNL     1      -3.884  14.985  21.693  0.00  0.00    +0.000 C 
ATOM     30  C   UNL     1      -3.812  16.228  22.543  0.00  0.00    +0.000 C 
ATOM     31  C   UNL     1      -3.616  16.333  21.059  0.00  0.00    +0.000 C 
ENDBRANCH   6  29
TORSDOF 5
ENDMDL
MODEL 9
REMARK VINA RESULT:      -7.6      1.232      1.557
REMARK  Name = 
REMARK  5 active torsions:
REMARK  status: ('A' for Active; 'I' for Inactive)
REMARK    1  A    between atoms: N_1  and  C_2
REMARK    2  A    between atoms: C_2  and  C_3
REMARK    3  A    between atoms: C_6  and  C_7
REMARK    4  A    between atoms: C_12  and  C_13
REMARK    5  A    between atoms: C_18  and  C_19
REMARK                            x       y       z     vdW  Elec       q    Type
REMARK                         _______ _______ _______ _____ _____    ______ ____
ROOT
ATOM      1  C   UNL     1       0.763  11.071  20.069  0.00  0.00    +0.000 A 
ATOM      2  N   UNL     1       1.448  11.918  20.908  0.00  0.00    +0.000 NA
ATOM      3  C   UNL     1       0.783  13.045  20.883  0.00  0.00    +0.000 A 
ATOM      4  C   UNL     1       1.045  14.285  21.534  0.00  0.00    +0.000 A 
ATOM      5  C   UNL     1       0.223  15.335  21.339  0.00  0.00    +0.000 A 
ATOM      6  C   UNL     1      -0.965  15.231  20.490  0.00  0.00    +0.000 A 
ATOM      7  C   UNL     1      -1.224  14.031  19.923  0.00  0.00    +0.000 A 
ATOM      8  N   UNL     1      -0.351  12.960  20.085  0.00  0.00    +0.000 N 
ATOM      9  C   UNL     1      -0.386  11.670  19.545  0.00  0.00    +0.000 A 
ENDROOT
BRANCH   1  13
ATOM     10  C   UNL     1       2.148   7.048  19.390  0.00  0.00    +0.000 A 
ATOM     11  C   UNL     1       1.571   7.448  20.611  0.00  0.00    +0.000 A 
ATOM     12  C   UNL     1       1.128   8.757  20.832  0.00  0.00    +0.000 A 
ATOM     13  C   UNL     1       1.248   9.722  19.829  0.00  0.00    +0.000 A 
ATOM     14  C   UNL     1       1.840   9.355  18.622  0.00  0.00    +0.000 A 
ATOM     15  C   UNL     1       2.244   8.041  18.398  0.00  0.00    +0.000 A 
BRANCH  10  16
ATOM     16  C   UNL     1       2.680   5.588  19.147  0.00  0.00    +0.000 C 
ATOM     17  C   UNL     1       1.738   4.358  19.307  0.00  0.00    +0.000 C 
ATOM     18  C   UNL     1       1.569   4.384  17.776  0.00  0.00    +0.000 C 
ATOM     19  C   UNL     1       2.941   5.080  17.700  0.00  0.00    +0.000 C 
BRANCH  16  20
ATOM     20  N   UNL     1       3.880   5.344  19.947  0.00  0.00    +0.000 NA
ATOM     21  H   UNL     1       4.734   5.376  19.392  0.00  0.00    +0.000 HD
ATOM     22  H   UNL     1       3.883   4.423  20.385  0.00  0.00    +0.000 HD
ENDBRANCH  16  20
ENDBRANCH  10  16
ENDBRANCH   1  13
BRANCH   9  23
ATOM     23  C   UNL     1      -1.458  11.151  18.668  0.00  0.00    +0.000 A 
ATOM     24  C   UNL     1      -2.801  11.526  18.837  0.00  0.00    +0.000 A 
ATOM     25  C   UNL     1      -3.810  10.991  18.031  0.00  0.00    +0.000 A 
ATOM     26  C   UNL     1      -3.484  10.135  16.983  0.00  0.00    +0.000 A 
ATOM     27  C   UNL     1      -2.154   9.803  16.755  0.00  0.00    +0.000 A 
ATOM     28  C   UNL     1      -1.157  10.278  17.611  0.00  0.00    +0.000 A 
ENDBRANCH   9  23
BRANCH   6  29
ATOM     29  C   UNL     1      -1.833  16.405  20.334  0.00  0.00    +0.000 C 
ATOM     30  C   UNL     1      -1.360  17.792  20.691  0.00  0.00    +0.000 C 
ATOM     31  C   UNL     1      -1.494  17.403  19.247  0.00  0.00    +0.000 C 
ENDBRANCH   6  29
TORSDOF 5
ENDMDL
