MODEL 1
REMARK VINA RESULT:      -8.3      0.000      0.000
REMARK  Name = 
REMARK  7 active torsions:
REMARK  status: ('A' for Active; 'I' for Inactive)
REMARK    1  A    between atoms: S_2  and  N_4
REMARK    2  A    between atoms: S_2  and  C_15
REMARK    3  A    between atoms: N_4  and  C_5
REMARK    4  A    between atoms: C_8  and  O_9
REMARK    5  A    between atoms: O_9  and  C_10
REMARK    6  A    between atoms: C_18  and  C_19
REMARK    7  A    between atoms: C_22  and  C_23
REMARK                            x       y       z     vdW  Elec       q    Type
REMARK                         _______ _______ _______ _____ _____    ______ ____
ROOT
ATOM      1  O   UNL     1       2.344   2.922  16.918  0.00  0.00    +0.000 OA
ATOM      2  S   UNL     1       2.666   2.886  18.327  0.00  0.00    +0.000 S 
ATOM      3  O   UNL     1       2.121   1.862  19.192  0.00  0.00    +0.000 OA
ENDROOT
BRANCH   2   4
ATOM      4  C   UNL     1       2.265   4.463  19.044  0.00  0.00    +0.000 A 
ATOM      5  C   UNL     1       2.325   5.614  18.253  0.00  0.00    +0.000 A 
ATOM      6  C   UNL     1       2.040   6.860  18.820  0.00  0.00    +0.000 A 
ATOM      7  C   UNL     1       1.669   6.969  20.170  0.00  0.00    +0.000 A 
ATOM      8  C   UNL     1       1.563   5.791  20.930  0.00  0.00    +0.000 A 
ATOM      9  C   UNL     1       1.857   4.541  20.374  0.00  0.00    +0.000 A 
BRANCH   7  10
ATOM     10  C   UNL     1       1.411   8.274  20.767  0.00  0.00    +0.000 A 
ATOM     11  C   UNL     1       1.423   8.811  22.035  0.00  0.00    +0.000 A 
ATOM     12  N   UNL     1       1.077  10.141  21.996  0.00  0.00    +0.000 NA
ATOM     13  C   UNL     1       0.856  10.372  20.717  0.00  0.00    +0.000 A 
ATOM     14  O   UNL     1       1.038   9.279  19.914  0.00  0.00    +0.000 OA
BRANCH  13  15
ATOM     15  C   UNL     1       0.432  11.716  20.143  0.00  0.00    +0.000 C 
ATOM     16  C   UNL     1      -0.469  11.751  18.926  0.00  0.00    +0.000 C 
ATOM     17  C   UNL     1      -1.018  12.138  20.256  0.00  0.00    +0.000 C 
ENDBRANCH  13  15
ENDBRANCH   7  10
ENDBRANCH   2   4
BRANCH   2  18
ATOM     18  N   UNL     1       4.349   2.801  18.522  0.00  0.00    +0.000 N 
ATOM     19  H   UNL     1       4.679   1.854  18.334  0.00  0.00    +0.000 HD
BRANCH  18  20
ATOM     20  C   UNL     1       5.131   3.881  18.032  0.00  0.00    +0.000 A 
ATOM     21  C   UNL     1       5.639   4.817  18.930  0.00  0.00    +0.000 A 
ATOM     22  C   UNL     1       6.341   5.923  18.452  0.00  0.00    +0.000 A 
ATOM     23  C   UNL     1       6.558   6.091  17.083  0.00  0.00    +0.000 A 
ATOM     24  C   UNL     1       6.038   5.155  16.184  0.00  0.00    +0.000 A 
ATOM     25  C   UNL     1       5.328   4.049  16.661  0.00  0.00    +0.000 A 
BRANCH  23  26
ATOM     26  O   UNL     1       7.247   7.221  16.746  0.00  0.00    +0.000 OA
BRANCH  26  27
ATOM     27  C   UNL     1       7.691   8.020  17.828  0.00  0.00    +0.000 C 
ATOM     28  F   UNL     1       8.611   7.326  18.541  0.00  0.00    +0.000 F 
ATOM     29  F   UNL     1       8.334   9.091  17.299  0.00  0.00    +0.000 F 
ENDBRANCH  26  27
ENDBRANCH  23  26
ENDBRANCH  18  20
ENDBRANCH   2  18
TORSDOF 7
ENDMDL
MODEL 2
REMARK VINA RESULT:      -8.2      0.549      1.172
REMARK  Name = 
REMARK  7 active torsions:
REMARK  status: ('A' for Active; 'I' for Inactive)
REMARK    1  A    between atoms: S_2  and  N_4
REMARK    2  A    between atoms: S_2  and  C_15
REMARK    3  A    between atoms: N_4  and  C_5
REMARK    4  A    between atoms: C_8  and  O_9
REMARK    5  A    between atoms: O_9  and  C_10
REMARK    6  A    between atoms: C_18  and  C_19
REMARK    7  A    between atoms: C_22  and  C_23
REMARK                            x       y       z     vdW  Elec       q    Type
REMARK                         _______ _______ _______ _____ _____    ______ ____
ROOT
ATOM      1  O   UNL     1       2.276   3.112  16.800  0.00  0.00    +0.000 OA
ATOM      2  S   UNL     1       2.577   3.020  18.212  0.00  0.00    +0.000 S 
ATOM      3  O   UNL     1       1.945   2.021  19.047  0.00  0.00    +0.000 OA
ENDROOT
BRANCH   2   4
ATOM      4  C   UNL     1       2.288   4.606  18.961  0.00  0.00    +0.000 A 
ATOM      5  C   UNL     1       1.908   4.674  20.304  0.00  0.00    +0.000 A 
ATOM      6  C   UNL     1       1.650   5.918  20.889  0.00  0.00    +0.000 A 
ATOM      7  C   UNL     1       1.791   7.104  20.151  0.00  0.00    +0.000 A 
ATOM      8  C   UNL     1       2.227   7.012  18.817  0.00  0.00    +0.000 A 
ATOM      9  C   UNL     1       2.477   5.772  18.220  0.00  0.00    +0.000 A 
BRANCH   7  10
ATOM     10  C   UNL     1       1.483   8.395  20.753  0.00  0.00    +0.000 A 
ATOM     11  C   UNL     1       1.320   8.888  22.029  0.00  0.00    +0.000 A 
ATOM     12  N   UNL     1       1.019  10.229  21.991  0.00  0.00    +0.000 NA
ATOM     13  C   UNL     1       0.998  10.511  20.704  0.00  0.00    +0.000 A 
ATOM     14  O   UNL     1       1.268   9.441  19.895  0.00  0.00    +0.000 OA
BRANCH  13  15
ATOM     15  C   UNL     1       0.701  11.888  20.125  0.00  0.00    +0.000 C 
ATOM     16  C   UNL     1       1.396  12.323  18.853  0.00  0.00    +0.000 C 
ATOM     17  C   UNL     1      -0.055  11.986  18.816  0.00  0.00    +0.000 C 
ENDBRANCH  13  15
ENDBRANCH   7  10
ENDBRANCH   2   4
BRANCH   2  18
ATOM     18  N   UNL     1       4.246   2.801  18.422  0.00  0.00    +0.000 N 
ATOM     19  H   UNL     1       4.499   1.829  18.248  0.00  0.00    +0.000 HD
BRANCH  18  20
ATOM     20  C   UNL     1       5.117   3.809  17.926  0.00  0.00    +0.000 A 
ATOM     21  C   UNL     1       5.852   4.578  18.824  0.00  0.00    +0.000 A 
ATOM     22  C   UNL     1       6.649   5.620  18.352  0.00  0.00    +0.000 A 
ATOM     23  C   UNL     1       6.733   5.888  16.984  0.00  0.00    +0.000 A 
ATOM     24  C   UNL     1       5.985   5.121  16.086  0.00  0.00    +0.000 A 
ATOM     25  C   UNL     1       5.180   4.079  16.559  0.00  0.00    +0.000 A 
BRANCH  23  26
ATOM     26  O   UNL     1       7.536   6.942  16.655  0.00  0.00    +0.000 OA
BRANCH  26  27
ATOM     27  C   UNL     1       7.698   7.932  17.655  0.00  0.00    +0.000 C 
ATOM     28  F   UNL     1       8.722   8.748  17.307  0.00  0.00    +0.000 F 
ATOM     29  F   UNL     1       6.574   8.693  17.653  0.00  0.00    +0.000 F 
ENDBRANCH  26  27
ENDBRANCH  23  26
ENDBRANCH  18  20
ENDBRANCH   2  18
TORSDOF 7
ENDMDL
MODEL 3
REMARK VINA RESULT:      -7.9      4.589      9.072
REMARK  Name = 
REMARK  7 active torsions:
REMARK  status: ('A' for Active; 'I' for Inactive)
REMARK    1  A    between atoms: S_2  and  N_4
REMARK    2  A    between atoms: S_2  and  C_15
REMARK    3  A    between atoms: N_4  and  C_5
REMARK    4  A    between atoms: C_8  and  O_9
REMARK    5  A    between atoms: O_9  and  C_10
REMARK    6  A    between atoms: C_18  and  C_19
REMARK    7  A    between atoms: C_22  and  C_23
REMARK                            x       y       z     vdW  Elec       q    Type
REMARK                         _______ _______ _______ _____ _____    ______ ____
ROOT
ATOM      1  O   UNL     1       1.627   9.551  22.353  0.00  0.00    +0.000 OA
ATOM      2  S   UNL     1       0.791   9.208  21.224  0.00  0.00    +0.000 S 
ATOM      3  O   UNL     1      -0.585   8.800  21.411  0.00  0.00    +0.000 OA
ENDROOT
BRANCH   2   4
ATOM      4  C   UNL     1       1.602   7.939  20.279  0.00  0.00    +0.000 A 
ATOM      5  C   UNL     1       2.130   8.249  19.022  0.00  0.00    +0.000 A 
ATOM      6  C   UNL     1       2.742   7.247  18.262  0.00  0.00    +0.000 A 
ATOM      7  C   UNL     1       2.855   5.937  18.754  0.00  0.00    +0.000 A 
ATOM      8  C   UNL     1       2.364   5.664  20.043  0.00  0.00    +0.000 A 
ATOM      9  C   UNL     1       1.740   6.657  20.807  0.00  0.00    +0.000 A 
BRANCH   7  10
ATOM     10  C   UNL     1       3.457   4.887  17.942  0.00  0.00    +0.000 A 
ATOM     11  C   UNL     1       3.198   3.562  17.671  0.00  0.00    +0.000 A 
ATOM     12  N   UNL     1       4.140   3.055  16.808  0.00  0.00    +0.000 NA
ATOM     13  C   UNL     1       4.946   4.074  16.587  0.00  0.00    +0.000 A 
ATOM     14  O   UNL     1       4.591   5.218  17.248  0.00  0.00    +0.000 OA
BRANCH  13  15
ATOM     15  C   UNL     1       6.174   4.026  15.689  0.00  0.00    +0.000 C 
ATOM     16  C   UNL     1       5.994   3.836  14.197  0.00  0.00    +0.000 C 
ATOM     17  C   UNL     1       6.420   5.164  14.720  0.00  0.00    +0.000 C 
ENDBRANCH  13  15
ENDBRANCH   7  10
ENDBRANCH   2   4
BRANCH   2  18
ATOM     18  N   UNL     1       0.738  10.511  20.140  0.00  0.00    +0.000 N 
ATOM     19  H   UNL     1       1.578  10.524  19.562  0.00  0.00    +0.000 HD
BRANCH  18  20
ATOM     20  C   UNL     1      -0.501  10.803  19.509  0.00  0.00    +0.000 A 
ATOM     21  C   UNL     1      -0.820  10.172  18.309  0.00  0.00    +0.000 A 
ATOM     22  C   UNL     1      -1.997  10.509  17.642  0.00  0.00    +0.000 A 
ATOM     23  C   UNL     1      -2.870  11.460  18.176  0.00  0.00    +0.000 A 
ATOM     24  C   UNL     1      -2.541  12.099  19.374  0.00  0.00    +0.000 A 
ATOM     25  C   UNL     1      -1.357  11.766  20.042  0.00  0.00    +0.000 A 
BRANCH  23  26
ATOM     26  O   UNL     1      -3.979  11.709  17.419  0.00  0.00    +0.000 OA
BRANCH  26  27
ATOM     27  C   UNL     1      -5.225  11.530  18.069  0.00  0.00    +0.000 C 
ATOM     28  F   UNL     1      -6.223  11.805  17.195  0.00  0.00    +0.000 F 
ATOM     29  F   UNL     1      -5.329  10.213  18.381  0.00  0.00    +0.000 F 
ENDBRANCH  26  27
ENDBRANCH  23  26
ENDBRANCH  18  20
ENDBRANCH   2  18
TORSDOF 7
ENDMDL
MODEL 4
REMARK VINA RESULT:      -7.9      3.085      3.742
REMARK  Name = 
REMARK  7 active torsions:
REMARK  status: ('A' for Active; 'I' for Inactive)
REMARK    1  A    between atoms: S_2  and  N_4
REMARK    2  A    between atoms: S_2  and  C_15
REMARK    3  A    between atoms: N_4  and  C_5
REMARK    4  A    between atoms: C_8  and  O_9
REMARK    5  A    between atoms: O_9  and  C_10
REMARK    6  A    between atoms: C_18  and  C_19
REMARK    7  A    between atoms: C_22  and  C_23
REMARK                            x       y       z     vdW  Elec       q    Type
REMARK                         _______ _______ _______ _____ _____    ______ ____
ROOT
ATOM      1  O   UNL     1       2.154   4.608  18.484  0.00  0.00    +0.000 OA
ATOM      2  S   UNL     1       2.657   5.402  19.584  0.00  0.00    +0.000 S 
ATOM      3  O   UNL     1       2.402   5.022  20.957  0.00  0.00    +0.000 OA
ENDROOT
BRANCH   2   4
ATOM      4  C   UNL     1       2.101   7.077  19.378  0.00  0.00    +0.000 A 
ATOM      5  C   UNL     1       2.148   7.668  18.112  0.00  0.00    +0.000 A 
ATOM      6  C   UNL     1       1.740   8.995  17.951  0.00  0.00    +0.000 A 
ATOM      7  C   UNL     1       1.259   9.738  19.042  0.00  0.00    +0.000 A 
ATOM      8  C   UNL     1       1.171   9.105  20.294  0.00  0.00    +0.000 A 
ATOM      9  C   UNL     1       1.587   7.780  20.467  0.00  0.00    +0.000 A 
BRANCH   7  10
ATOM     10  C   UNL     1       0.873  11.134  18.877  0.00  0.00    +0.000 A 
ATOM     11  C   UNL     1      -0.306  11.834  18.743  0.00  0.00    +0.000 A 
ATOM     12  N   UNL     1      -0.053  13.179  18.609  0.00  0.00    +0.000 NA
ATOM     13  C   UNL     1       1.262  13.259  18.654  0.00  0.00    +0.000 A 
ATOM     14  O   UNL     1       1.888  12.052  18.813  0.00  0.00    +0.000 OA
BRANCH  13  15
ATOM     15  C   UNL     1       2.054  14.554  18.540  0.00  0.00    +0.000 C 
ATOM     16  C   UNL     1       1.396  15.861  18.929  0.00  0.00    +0.000 C 
ATOM     17  C   UNL     1       2.453  15.284  19.806  0.00  0.00    +0.000 C 
ENDBRANCH  13  15
ENDBRANCH   7  10
ENDBRANCH   2   4
BRANCH   2  18
ATOM     18  N   UNL     1       4.342   5.545  19.455  0.00  0.00    +0.000 N 
ATOM     19  H   UNL     1       4.798   5.073  20.236  0.00  0.00    +0.000 HD
BRANCH  18  20
ATOM     20  C   UNL     1       4.926   5.402  18.167  0.00  0.00    +0.000 A 
ATOM     21  C   UNL     1       5.139   6.534  17.385  0.00  0.00    +0.000 A 
ATOM     22  C   UNL     1       5.638   6.396  16.090  0.00  0.00    +0.000 A 
ATOM     23  C   UNL     1       5.945   5.135  15.577  0.00  0.00    +0.000 A 
ATOM     24  C   UNL     1       5.720   3.999  16.360  0.00  0.00    +0.000 A 
ATOM     25  C   UNL     1       5.213   4.135  17.657  0.00  0.00    +0.000 A 
BRANCH  23  26
ATOM     26  O   UNL     1       6.412   5.136  14.294  0.00  0.00    +0.000 OA
BRANCH  26  27
ATOM     27  C   UNL     1       6.183   3.952  13.550  0.00  0.00    +0.000 C 
ATOM     28  F   UNL     1       4.902   3.948  13.110  0.00  0.00    +0.000 F 
ATOM     29  F   UNL     1       6.974   4.010  12.449  0.00  0.00    +0.000 F 
ENDBRANCH  26  27
ENDBRANCH  23  26
ENDBRANCH  18  20
ENDBRANCH   2  18
TORSDOF 7
ENDMDL
MODEL 5
REMARK VINA RESULT:      -7.9      2.931      3.664
REMARK  Name = 
REMARK  7 active torsions:
REMARK  status: ('A' for Active; 'I' for Inactive)
REMARK    1  A    between atoms: S_2  and  N_4
REMARK    2  A    between atoms: S_2  and  C_15
REMARK    3  A    between atoms: N_4  and  C_5
REMARK    4  A    between atoms: C_8  and  O_9
REMARK    5  A    between atoms: O_9  and  C_10
REMARK    6  A    between atoms: C_18  and  C_19
REMARK    7  A    between atoms: C_22  and  C_23
REMARK                            x       y       z     vdW  Elec       q    Type
REMARK                         _______ _______ _______ _____ _____    ______ ____
ROOT
ATOM      1  O   UNL     1       2.470   4.708  18.193  0.00  0.00    +0.000 OA
ATOM      2  S   UNL     1       2.921   5.385  19.389  0.00  0.00    +0.000 S 
ATOM      3  O   UNL     1       2.743   4.790  20.696  0.00  0.00    +0.000 OA
ENDROOT
BRANCH   2   4
ATOM      4  C   UNL     1       2.193   7.006  19.434  0.00  0.00    +0.000 A 
ATOM      5  C   UNL     1       1.663   7.490  20.633  0.00  0.00    +0.000 A 
ATOM      6  C   UNL     1       1.062   8.752  20.666  0.00  0.00    +0.000 A 
ATOM      7  C   UNL     1       1.006   9.553  19.514  0.00  0.00    +0.000 A 
ATOM      8  C   UNL     1       1.595   9.066  18.334  0.00  0.00    +0.000 A 
ATOM      9  C   UNL     1       2.188   7.800  18.288  0.00  0.00    +0.000 A 
BRANCH   7  10
ATOM     10  C   UNL     1       0.343  10.851  19.544  0.00  0.00    +0.000 A 
ATOM     11  C   UNL     1      -0.874  11.340  19.961  0.00  0.00    +0.000 A 
ATOM     12  N   UNL     1      -0.955  12.693  19.726  0.00  0.00    +0.000 NA
ATOM     13  C   UNL     1       0.203  12.985  19.168  0.00  0.00    +0.000 A 
ATOM     14  O   UNL     1       1.039  11.911  19.024  0.00  0.00    +0.000 OA
BRANCH  13  15
ATOM     15  C   UNL     1       0.614  14.376  18.706  0.00  0.00    +0.000 C 
ATOM     16  C   UNL     1       0.271  15.574  19.567  0.00  0.00    +0.000 C 
ATOM     17  C   UNL     1       1.686  15.118  19.476  0.00  0.00    +0.000 C 
ENDBRANCH  13  15
ENDBRANCH   7  10
ENDBRANCH   2   4
BRANCH   2  18
ATOM     18  N   UNL     1       4.579   5.719  19.260  0.00  0.00    +0.000 N 
ATOM     19  H   UNL     1       5.076   5.362  20.076  0.00  0.00    +0.000 HD
BRANCH  18  20
ATOM     20  C   UNL     1       5.194   5.554  17.990  0.00  0.00    +0.000 A 
ATOM     21  C   UNL     1       4.999   6.521  17.007  0.00  0.00    +0.000 A 
ATOM     22  C   UNL     1       5.534   6.330  15.733  0.00  0.00    +0.000 A 
ATOM     23  C   UNL     1       6.280   5.186  15.439  0.00  0.00    +0.000 A 
ATOM     24  C   UNL     1       6.465   4.213  16.425  0.00  0.00    +0.000 A 
ATOM     25  C   UNL     1       5.924   4.400  17.701  0.00  0.00    +0.000 A 
BRANCH  23  26
ATOM     26  O   UNL     1       6.735   5.114  14.154  0.00  0.00    +0.000 OA
BRANCH  26  27
ATOM     27  C   UNL     1       6.356   3.958  13.428  0.00  0.00    +0.000 C 
ATOM     28  F   UNL     1       5.012   3.966  13.255  0.00  0.00    +0.000 F 
ATOM     29  F   UNL     1       6.910   4.060  12.193  0.00  0.00    +0.000 F 
ENDBRANCH  26  27
ENDBRANCH  23  26
ENDBRANCH  18  20
ENDBRANCH   2  18
TORSDOF 7
ENDMDL
MODEL 6
REMARK VINA RESULT:      -7.9      2.729      3.283
REMARK  Name = 
REMARK  7 active torsions:
REMARK  status: ('A' for Active; 'I' for Inactive)
REMARK    1  A    between atoms: S_2  and  N_4
REMARK    2  A    between atoms: S_2  and  C_15
REMARK    3  A    between atoms: N_4  and  C_5
REMARK    4  A    between atoms: C_8  and  O_9
REMARK    5  A    between atoms: O_9  and  C_10
REMARK    6  A    between atoms: C_18  and  C_19
REMARK    7  A    between atoms: C_22  and  C_23
REMARK                            x       y       z     vdW  Elec       q    Type
REMARK                         _______ _______ _______ _____ _____    ______ ____
ROOT
ATOM      1  O   UNL     1       2.721   4.509  18.002  0.00  0.00    +0.000 OA
ATOM      2  S   UNL     1       3.189   5.072  19.249  0.00  0.00    +0.000 S 
ATOM      3  O   UNL     1       3.109   4.322  20.484  0.00  0.00    +0.000 OA
ENDROOT
BRANCH   2   4
ATOM      4  C   UNL     1       2.372   6.629  19.514  0.00  0.00    +0.000 A 
ATOM      5  C   UNL     1       2.335   7.571  18.482  0.00  0.00    +0.000 A 
ATOM      6  C   UNL     1       1.720   8.808  18.695  0.00  0.00    +0.000 A 
ATOM      7  C   UNL     1       1.117   9.110  19.927  0.00  0.00    +0.000 A 
ATOM      8  C   UNL     1       1.121   8.126  20.931  0.00  0.00    +0.000 A 
ATOM      9  C   UNL     1       1.743   6.888  20.730  0.00  0.00    +0.000 A 
BRANCH   7  10
ATOM     10  C   UNL     1       0.513  10.416  20.158  0.00  0.00    +0.000 A 
ATOM     11  C   UNL     1       0.782  11.515  20.943  0.00  0.00    +0.000 A 
ATOM     12  N   UNL     1      -0.168  12.489  20.747  0.00  0.00    +0.000 NA
ATOM     13  C   UNL     1      -0.988  11.957  19.863  0.00  0.00    +0.000 A 
ATOM     14  O   UNL     1      -0.634  10.697  19.464  0.00  0.00    +0.000 OA
BRANCH  13  15
ATOM     15  C   UNL     1      -2.229  12.644  19.311  0.00  0.00    +0.000 C 
ATOM     16  C   UNL     1      -3.310  11.809  18.658  0.00  0.00    +0.000 C 
ATOM     17  C   UNL     1      -3.561  12.415  19.996  0.00  0.00    +0.000 C 
ENDBRANCH  13  15
ENDBRANCH   7  10
ENDBRANCH   2   4
BRANCH   2  18
ATOM     18  N   UNL     1       4.817   5.522  19.093  0.00  0.00    +0.000 N 
ATOM     19  H   UNL     1       5.357   5.178  19.887  0.00  0.00    +0.000 HD
BRANCH  18  20
ATOM     20  C   UNL     1       5.411   5.433  17.805  0.00  0.00    +0.000 A 
ATOM     21  C   UNL     1       4.875   6.173  16.754  0.00  0.00    +0.000 A 
ATOM     22  C   UNL     1       5.402   6.033  15.471  0.00  0.00    +0.000 A 
ATOM     23  C   UNL     1       6.475   5.171  15.232  0.00  0.00    +0.000 A 
ATOM     24  C   UNL     1       7.003   4.422  16.286  0.00  0.00    +0.000 A 
ATOM     25  C   UNL     1       6.472   4.557  17.574  0.00  0.00    +0.000 A 
BRANCH  23  26
ATOM     26  O   UNL     1       6.886   5.116  13.931  0.00  0.00    +0.000 OA
BRANCH  26  27
ATOM     27  C   UNL     1       6.560   3.928  13.230  0.00  0.00    +0.000 C 
ATOM     28  F   UNL     1       5.217   3.873  13.056  0.00  0.00    +0.000 F 
ATOM     29  F   UNL     1       7.110   4.028  11.993  0.00  0.00    +0.000 F 
ENDBRANCH  26  27
ENDBRANCH  23  26
ENDBRANCH  18  20
ENDBRANCH   2  18
TORSDOF 7
ENDMDL
MODEL 7
REMARK VINA RESULT:      -7.8      2.697      3.439
REMARK  Name = 
REMARK  7 active torsions:
REMARK  status: ('A' for Active; 'I' for Inactive)
REMARK    1  A    between atoms: S_2  and  N_4
REMARK    2  A    between atoms: S_2  and  C_15
REMARK    3  A    between atoms: N_4  and  C_5
REMARK    4  A    between atoms: C_8  and  O_9
REMARK    5  A    between atoms: O_9  and  C_10
REMARK    6  A    between atoms: C_18  and  C_19
REMARK    7  A    between atoms: C_22  and  C_23
REMARK                            x       y       z     vdW  Elec       q    Type
REMARK                         _______ _______ _______ _____ _____    ______ ____
ROOT
ATOM      1  O   UNL     1       2.539   4.642  18.099  0.00  0.00    +0.000 OA
ATOM      2  S   UNL     1       3.004   5.133  19.378  0.00  0.00    +0.000 S 
ATOM      3  O   UNL     1       2.849   4.345  20.582  0.00  0.00    +0.000 OA
ENDROOT
BRANCH   2   4
ATOM      4  C   UNL     1       2.269   6.723  19.679  0.00  0.00    +0.000 A 
ATOM      5  C   UNL     1       1.645   6.972  20.905  0.00  0.00    +0.000 A 
ATOM      6  C   UNL     1       1.038   8.210  21.134  0.00  0.00    +0.000 A 
ATOM      7  C   UNL     1       1.067   9.219  20.158  0.00  0.00    +0.000 A 
ATOM      8  C   UNL     1       1.748   8.963  18.955  0.00  0.00    +0.000 A 
ATOM      9  C   UNL     1       2.348   7.723  18.711  0.00  0.00    +0.000 A 
BRANCH   7  10
ATOM     10  C   UNL     1       0.399  10.494  20.387  0.00  0.00    +0.000 A 
ATOM     11  C   UNL     1       0.117  11.620  19.645  0.00  0.00    +0.000 A 
ATOM     12  N   UNL     1      -0.553  12.544  20.411  0.00  0.00    +0.000 NA
ATOM     13  C   UNL     1      -0.652  11.964  21.591  0.00  0.00    +0.000 A 
ATOM     14  O   UNL     1      -0.091  10.717  21.646  0.00  0.00    +0.000 OA
BRANCH  13  15
ATOM     15  C   UNL     1      -1.318  12.589  22.809  0.00  0.00    +0.000 C 
ATOM     16  C   UNL     1      -2.623  13.337  22.637  0.00  0.00    +0.000 C 
ATOM     17  C   UNL     1      -2.624  12.008  23.310  0.00  0.00    +0.000 C 
ENDBRANCH  13  15
ENDBRANCH   7  10
ENDBRANCH   2   4
BRANCH   2  18
ATOM     18  N   UNL     1       4.658   5.495  19.278  0.00  0.00    +0.000 N 
ATOM     19  H   UNL     1       5.153   5.113  20.084  0.00  0.00    +0.000 HD
BRANCH  18  20
ATOM     20  C   UNL     1       5.287   5.391  18.008  0.00  0.00    +0.000 A 
ATOM     21  C   UNL     1       6.450   4.635  17.883  0.00  0.00    +0.000 A 
ATOM     22  C   UNL     1       7.118   4.590  16.660  0.00  0.00    +0.000 A 
ATOM     23  C   UNL     1       6.620   5.280  15.552  0.00  0.00    +0.000 A 
ATOM     24  C   UNL     1       5.459   6.046  15.684  0.00  0.00    +0.000 A 
ATOM     25  C   UNL     1       4.791   6.098  16.912  0.00  0.00    +0.000 A 
BRANCH  23  26
ATOM     26  O   UNL     1       7.374   5.166  14.419  0.00  0.00    +0.000 OA
BRANCH  26  27
ATOM     27  C   UNL     1       6.732   4.568  13.307  0.00  0.00    +0.000 C 
ATOM     28  F   UNL     1       7.616   4.472  12.285  0.00  0.00    +0.000 F 
ATOM     29  F   UNL     1       6.409   3.299  13.664  0.00  0.00    +0.000 F 
ENDBRANCH  26  27
ENDBRANCH  23  26
ENDBRANCH  18  20
ENDBRANCH   2  18
TORSDOF 7
ENDMDL
MODEL 8
REMARK VINA RESULT:      -7.8      5.327      9.690
REMARK  Name = 
REMARK  7 active torsions:
REMARK  status: ('A' for Active; 'I' for Inactive)
REMARK    1  A    between atoms: S_2  and  N_4
REMARK    2  A    between atoms: S_2  and  C_15
REMARK    3  A    between atoms: N_4  and  C_5
REMARK    4  A    between atoms: C_8  and  O_9
REMARK    5  A    between atoms: O_9  and  C_10
REMARK    6  A    between atoms: C_18  and  C_19
REMARK    7  A    between atoms: C_22  and  C_23
REMARK                            x       y       z     vdW  Elec       q    Type
REMARK                         _______ _______ _______ _____ _____    ______ ____
ROOT
ATOM      1  O   UNL     1       1.133  11.774  21.307  0.00  0.00    +0.000 OA
ATOM      2  S   UNL     1       0.199  10.939  20.582  0.00  0.00    +0.000 S 
ATOM      3  O   UNL     1      -0.964  10.379  21.235  0.00  0.00    +0.000 OA
ENDROOT
BRANCH   2   4
ATOM      4  C   UNL     1       1.095   9.596  19.838  0.00  0.00    +0.000 A 
ATOM      5  C   UNL     1       1.324   8.430  20.573  0.00  0.00    +0.000 A 
ATOM      6  C   UNL     1       2.055   7.384  20.002  0.00  0.00    +0.000 A 
ATOM      7  C   UNL     1       2.542   7.478  18.689  0.00  0.00    +0.000 A 
ATOM      8  C   UNL     1       2.252   8.639  17.951  0.00  0.00    +0.000 A 
ATOM      9  C   UNL     1       1.531   9.696  18.518  0.00  0.00    +0.000 A 
BRANCH   7  10
ATOM     10  C   UNL     1       3.337   6.400  18.112  0.00  0.00    +0.000 A 
ATOM     11  C   UNL     1       4.337   6.292  17.172  0.00  0.00    +0.000 A 
ATOM     12  N   UNL     1       4.716   4.979  17.023  0.00  0.00    +0.000 NA
ATOM     13  C   UNL     1       3.936   4.328  17.863  0.00  0.00    +0.000 A 
ATOM     14  O   UNL     1       3.072   5.132  18.556  0.00  0.00    +0.000 OA
BRANCH  13  15
ATOM     15  C   UNL     1       3.959   2.821  18.073  0.00  0.00    +0.000 C 
ATOM     16  C   UNL     1       3.015   2.199  19.082  0.00  0.00    +0.000 C 
ATOM     17  C   UNL     1       2.767   2.000  17.626  0.00  0.00    +0.000 C 
ENDBRANCH  13  15
ENDBRANCH   7  10
ENDBRANCH   2   4
BRANCH   2  18
ATOM     18  N   UNL     1      -0.395  11.787  19.239  0.00  0.00    +0.000 N 
ATOM     19  H   UNL     1       0.319  11.844  18.513  0.00  0.00    +0.000 HD
BRANCH  18  20
ATOM     20  C   UNL     1      -1.732  11.535  18.831  0.00  0.00    +0.000 A 
ATOM     21  C   UNL     1      -2.763  12.312  19.355  0.00  0.00    +0.000 A 
ATOM     22  C   UNL     1      -4.085  12.021  19.021  0.00  0.00    +0.000 A 
ATOM     23  C   UNL     1      -4.385  10.972  18.150  0.00  0.00    +0.000 A 
ATOM     24  C   UNL     1      -3.350  10.188  17.635  0.00  0.00    +0.000 A 
ATOM     25  C   UNL     1      -2.022  10.474  17.974  0.00  0.00    +0.000 A 
BRANCH  23  26
ATOM     26  O   UNL     1      -5.717  10.784  17.916  0.00  0.00    +0.000 OA
BRANCH  26  27
ATOM     27  C   UNL     1      -6.542  10.702  19.066  0.00  0.00    +0.000 C 
ATOM     28  F   UNL     1      -7.584  11.555  18.923  0.00  0.00    +0.000 F 
ATOM     29  F   UNL     1      -7.063   9.449  19.097  0.00  0.00    +0.000 F 
ENDBRANCH  26  27
ENDBRANCH  23  26
ENDBRANCH  18  20
ENDBRANCH   2  18
TORSDOF 7
ENDMDL
MODEL 9
REMARK VINA RESULT:      -7.8      3.729      7.942
REMARK  Name = 
REMARK  7 active torsions:
REMARK  status: ('A' for Active; 'I' for Inactive)
REMARK    1  A    between atoms: S_2  and  N_4
REMARK    2  A    between atoms: S_2  and  C_15
REMARK    3  A    between atoms: N_4  and  C_5
REMARK    4  A    between atoms: C_8  and  O_9
REMARK    5  A    between atoms: O_9  and  C_10
REMARK    6  A    between atoms: C_18  and  C_19
REMARK    7  A    between atoms: C_22  and  C_23
REMARK                            x       y       z     vdW  Elec       q    Type
REMARK                         _______ _______ _______ _____ _____    ______ ____
ROOT
ATOM      1  O   UNL     1       2.292   3.711  21.526  0.00  0.00    +0.000 OA
ATOM      2  S   UNL     1       1.907   4.746  20.591  0.00  0.00    +0.000 S 
ATOM      3  O   UNL     1       0.568   4.800  20.046  0.00  0.00    +0.000 OA
ENDROOT
BRANCH   2   4
ATOM      4  C   UNL     1       3.043   4.729  19.224  0.00  0.00    +0.000 A 
ATOM      5  C   UNL     1       2.635   4.200  17.997  0.00  0.00    +0.000 A 
ATOM      6  C   UNL     1       3.535   4.157  16.927  0.00  0.00    +0.000 A 
ATOM      7  C   UNL     1       4.838   4.661  17.062  0.00  0.00    +0.000 A 
ATOM      8  C   UNL     1       5.207   5.237  18.290  0.00  0.00    +0.000 A 
ATOM      9  C   UNL     1       4.317   5.275  19.370  0.00  0.00    +0.000 A 
BRANCH   7  10
ATOM     10  C   UNL     1       5.785   4.577  15.957  0.00  0.00    +0.000 A 
ATOM     11  C   UNL     1       7.144   4.727  15.794  0.00  0.00    +0.000 A 
ATOM     12  N   UNL     1       7.495   4.533  14.479  0.00  0.00    +0.000 NA
ATOM     13  C   UNL     1       6.347   4.282  13.880  0.00  0.00    +0.000 A 
ATOM     14  O   UNL     1       5.267   4.297  14.720  0.00  0.00    +0.000 OA
BRANCH  13  15
ATOM     15  C   UNL     1       6.192   4.001  12.393  0.00  0.00    +0.000 C 
ATOM     16  C   UNL     1       6.845   2.770  11.799  0.00  0.00    +0.000 C 
ATOM     17  C   UNL     1       5.364   2.811  11.953  0.00  0.00    +0.000 C 
ENDBRANCH  13  15
ENDBRANCH   7  10
ENDBRANCH   2   4
BRANCH   2  18
ATOM     18  N   UNL     1       2.178   6.268  21.289  0.00  0.00    +0.000 N 
ATOM     19  H   UNL     1       3.149   6.351  21.590  0.00  0.00    +0.000 HD
BRANCH  18  20
ATOM     20  C   UNL     1       1.581   7.400  20.670  0.00  0.00    +0.000 A 
ATOM     21  C   UNL     1       2.047   7.824  19.429  0.00  0.00    +0.000 A 
ATOM     22  C   UNL     1       1.521   8.979  18.850  0.00  0.00    +0.000 A 
ATOM     23  C   UNL     1       0.516   9.703  19.495  0.00  0.00    +0.000 A 
ATOM     24  C   UNL     1       0.058   9.281  20.746  0.00  0.00    +0.000 A 
ATOM     25  C   UNL     1       0.590   8.126  21.331  0.00  0.00    +0.000 A 
BRANCH  23  26
ATOM     26  O   UNL     1       0.098  10.820  18.830  0.00  0.00    +0.000 OA
BRANCH  26  27
ATOM     27  C   UNL     1      -1.047  10.660  18.012  0.00  0.00    +0.000 C 
ATOM     28  F   UNL     1      -0.897   9.546  17.255  0.00  0.00    +0.000 F 
ATOM     29  F   UNL     1      -2.101  10.433  18.837  0.00  0.00    +0.000 F 
ENDBRANCH  26  27
ENDBRANCH  23  26
ENDBRANCH  18  20
ENDBRANCH   2  18
TORSDOF 7
ENDMDL
