MODEL 1
REMARK VINA RESULT:      -6.7      0.000      0.000
REMARK  Name = 
REMARK  7 active torsions:
REMARK  status: ('A' for Active; 'I' for Inactive)
REMARK    1  A    between atoms: C_1  and  C_2
REMARK    2  A    between atoms: C_2  and  N_3
REMARK    3  A    between atoms: N_3  and  C_4
REMARK    4  A    between atoms: C_4  and  C_5
REMARK    5  A    between atoms: C_9  and  S_10
REMARK    6  A    between atoms: S_10  and  C_13
REMARK    7  A    between atoms: C_25  and  C_26
REMARK                            x       y       z     vdW  Elec       q    Type
REMARK                         _______ _______ _______ _____ _____    ______ ____
ROOT
ATOM      1  N   UNL     1      -6.667  11.736  19.363  0.00  0.00    +0.000 N 
ATOM      2  C   UNL     1      -5.402  12.040  19.852  0.00  0.00    +0.000 A 
ATOM      3  N   UNL     1      -5.244  12.393  21.103  0.00  0.00    +0.000 NA
ATOM      4  C   UNL     1      -3.981  12.659  21.540  0.00  0.00    +0.000 A 
ATOM      5  C   UNL     1      -3.437  13.096  22.732  0.00  0.00    +0.000 A 
ATOM      6  N   UNL     1      -2.065  13.149  22.634  0.00  0.00    +0.000 NA
ATOM      7  N   UNL     1      -1.728  12.777  21.404  0.00  0.00    +0.000 NA
ATOM      8  N   UNL     1      -2.867  12.504  20.740  0.00  0.00    +0.000 N 
ATOM      9  C   UNL     1      -2.946  12.100  19.403  0.00  0.00    +0.000 A 
ATOM     10  C   UNL     1      -1.823  11.905  18.601  0.00  0.00    +0.000 A 
ATOM     11  C   UNL     1      -2.001  11.481  17.279  0.00  0.00    +0.000 A 
ATOM     12  C   UNL     1      -3.291  11.261  16.771  0.00  0.00    +0.000 A 
ATOM     13  C   UNL     1      -4.406  11.460  17.589  0.00  0.00    +0.000 A 
ATOM     14  C   UNL     1      -4.236  11.882  18.911  0.00  0.00    +0.000 A 
ENDROOT
BRANCH   5  15
ATOM     15  S   UNL     1      -4.295  13.479  24.171  0.00  0.00    +0.000 S 
ATOM     16  O   UNL     1      -4.921  12.244  24.602  0.00  0.00    +0.000 OA
ATOM     17  O   UNL     1      -3.352  14.187  25.020  0.00  0.00    +0.000 OA
BRANCH  15  18
ATOM     18  C   UNL     1      -5.572  14.599  23.659  0.00  0.00    +0.000 A 
ATOM     19  C   UNL     1      -6.910  14.279  23.916  0.00  0.00    +0.000 A 
ATOM     20  C   UNL     1      -7.917  15.141  23.482  0.00  0.00    +0.000 A 
ATOM     21  C   UNL     1      -7.587  16.319  22.811  0.00  0.00    +0.000 A 
ATOM     22  C   UNL     1      -6.249  16.652  22.590  0.00  0.00    +0.000 A 
ATOM     23  C   UNL     1      -5.235  15.796  23.022  0.00  0.00    +0.000 A 
ENDBRANCH  15  18
ENDBRANCH   5  15
BRANCH   1  25
ATOM     24  C   UNL     1      -7.118   9.368  19.849  0.00  0.00    +0.000 C 
ATOM     25  C   UNL     1      -7.504  10.815  20.147  0.00  0.00    +0.000 C 
ENDBRANCH   1  25
BRANCH   1  26
ATOM     26  C   UNL     1      -7.389  12.790  18.628  0.00  0.00    +0.000 C 
ATOM     27  C   UNL     1      -7.699  14.012  19.476  0.00  0.00    +0.000 C 
ENDBRANCH   1  26
BRANCH  12  28
ATOM     28  C   UNL     1      -3.470  10.820  15.419  0.00  0.00    +0.000 C 
ATOM     29  N   UNL     1      -3.626  10.446  14.332  0.00  0.00    +0.000 NA
ENDBRANCH  12  28
TORSDOF 5
ENDMDL
MODEL 2
REMARK VINA RESULT:      -6.5     10.425     13.835
REMARK  Name = 
REMARK  7 active torsions:
REMARK  status: ('A' for Active; 'I' for Inactive)
REMARK    1  A    between atoms: C_1  and  C_2
REMARK    2  A    between atoms: C_2  and  N_3
REMARK    3  A    between atoms: N_3  and  C_4
REMARK    4  A    between atoms: C_4  and  C_5
REMARK    5  A    between atoms: C_9  and  S_10
REMARK    6  A    between atoms: S_10  and  C_13
REMARK    7  A    between atoms: C_25  and  C_26
REMARK                            x       y       z     vdW  Elec       q    Type
REMARK                         _______ _______ _______ _____ _____    ______ ____
ROOT
ATOM      1  N   UNL     1       2.485   3.682  19.907  0.00  0.00    +0.000 N 
ATOM      2  C   UNL     1       3.092   4.648  19.113  0.00  0.00    +0.000 A 
ATOM      3  N   UNL     1       4.009   4.307  18.242  0.00  0.00    +0.000 NA
ATOM      4  C   UNL     1       4.558   5.287  17.471  0.00  0.00    +0.000 A 
ATOM      5  C   UNL     1       5.554   5.328  16.515  0.00  0.00    +0.000 A 
ATOM      6  N   UNL     1       5.671   6.603  16.009  0.00  0.00    +0.000 NA
ATOM      7  N   UNL     1       4.789   7.374  16.636  0.00  0.00    +0.000 NA
ATOM      8  N   UNL     1       4.137   6.601  17.524  0.00  0.00    +0.000 N 
ATOM      9  C   UNL     1       3.141   7.041  18.402  0.00  0.00    +0.000 A 
ATOM     10  C   UNL     1       2.685   8.359  18.434  0.00  0.00    +0.000 A 
ATOM     11  C   UNL     1       1.671   8.702  19.334  0.00  0.00    +0.000 A 
ATOM     12  C   UNL     1       1.126   7.735  20.194  0.00  0.00    +0.000 A 
ATOM     13  C   UNL     1       1.594   6.418  20.148  0.00  0.00    +0.000 A 
ATOM     14  C   UNL     1       2.606   6.068  19.249  0.00  0.00    +0.000 A 
ENDROOT
BRANCH   5  15
ATOM     15  S   UNL     1       6.499   4.004  15.963  0.00  0.00    +0.000 S 
ATOM     16  O   UNL     1       7.783   4.128  16.627  0.00  0.00    +0.000 OA
ATOM     17  O   UNL     1       5.670   2.823  16.133  0.00  0.00    +0.000 OA
BRANCH  15  18
ATOM     18  C   UNL     1       6.740   4.302  14.231  0.00  0.00    +0.000 A 
ATOM     19  C   UNL     1       5.971   3.598  13.299  0.00  0.00    +0.000 A 
ATOM     20  C   UNL     1       6.186   3.806  11.936  0.00  0.00    +0.000 A 
ATOM     21  C   UNL     1       7.150   4.721  11.512  0.00  0.00    +0.000 A 
ATOM     22  C   UNL     1       7.889   5.449  12.447  0.00  0.00    +0.000 A 
ATOM     23  C   UNL     1       7.680   5.249  13.811  0.00  0.00    +0.000 A 
ENDBRANCH  15  18
ENDBRANCH   5  15
BRANCH   1  25
ATOM     24  C   UNL     1       0.568   2.706  18.715  0.00  0.00    +0.000 C 
ATOM     25  C   UNL     1       1.979   2.469  19.248  0.00  0.00    +0.000 C 
ENDBRANCH   1  25
BRANCH   1  26
ATOM     26  C   UNL     1       2.996   3.503  21.278  0.00  0.00    +0.000 C 
ATOM     27  C   UNL     1       2.052   2.724  22.177  0.00  0.00    +0.000 C 
ENDBRANCH   1  26
BRANCH  12  28
ATOM     28  C   UNL     1       0.082   8.087  21.110  0.00  0.00    +0.000 C 
ATOM     29  N   UNL     1      -0.775   8.376  21.836  0.00  0.00    +0.000 NA
ENDBRANCH  12  28
TORSDOF 5
ENDMDL
MODEL 3
REMARK VINA RESULT:      -6.5      7.272      9.036
REMARK  Name = 
REMARK  7 active torsions:
REMARK  status: ('A' for Active; 'I' for Inactive)
REMARK    1  A    between atoms: C_1  and  C_2
REMARK    2  A    between atoms: C_2  and  N_3
REMARK    3  A    between atoms: N_3  and  C_4
REMARK    4  A    between atoms: C_4  and  C_5
REMARK    5  A    between atoms: C_9  and  S_10
REMARK    6  A    between atoms: S_10  and  C_13
REMARK    7  A    between atoms: C_25  and  C_26
REMARK                            x       y       z     vdW  Elec       q    Type
REMARK                         _______ _______ _______ _____ _____    ______ ____
ROOT
ATOM      1  N   UNL     1       2.170   4.214  20.083  0.00  0.00    +0.000 N 
ATOM      2  C   UNL     1       2.217   5.541  19.670  0.00  0.00    +0.000 A 
ATOM      3  N   UNL     1       1.596   6.469  20.353  0.00  0.00    +0.000 NA
ATOM      4  C   UNL     1       1.691   7.758  19.920  0.00  0.00    +0.000 A 
ATOM      5  C   UNL     1       1.152   8.962  20.329  0.00  0.00    +0.000 A 
ATOM      6  N   UNL     1       1.633   9.985  19.543  0.00  0.00    +0.000 NA
ATOM      7  N   UNL     1       2.447   9.455  18.635  0.00  0.00    +0.000 NA
ATOM      8  N   UNL     1       2.469   8.125  18.841  0.00  0.00    +0.000 N 
ATOM      9  C   UNL     1       3.189   7.201  18.078  0.00  0.00    +0.000 A 
ATOM     10  C   UNL     1       4.006   7.570  17.010  0.00  0.00    +0.000 A 
ATOM     11  C   UNL     1       4.705   6.576  16.317  0.00  0.00    +0.000 A 
ATOM     12  C   UNL     1       4.579   5.228  16.689  0.00  0.00    +0.000 A 
ATOM     13  C   UNL     1       3.757   4.875  17.763  0.00  0.00    +0.000 A 
ATOM     14  C   UNL     1       3.058   5.864  18.462  0.00  0.00    +0.000 A 
ENDROOT
BRANCH   5  15
ATOM     15  S   UNL     1       0.079   9.211  21.647  0.00  0.00    +0.000 S 
ATOM     16  O   UNL     1      -0.872   8.117  21.598  0.00  0.00    +0.000 OA
ATOM     17  O   UNL     1       0.921   9.431  22.810  0.00  0.00    +0.000 OA
BRANCH  15  18
ATOM     18  C   UNL     1      -0.783  10.712  21.260  0.00  0.00    +0.000 A 
ATOM     19  C   UNL     1      -1.048  11.634  22.278  0.00  0.00    +0.000 A 
ATOM     20  C   UNL     1      -1.758  12.797  21.981  0.00  0.00    +0.000 A 
ATOM     21  C   UNL     1      -2.185  13.042  20.675  0.00  0.00    +0.000 A 
ATOM     22  C   UNL     1      -1.885  12.136  19.655  0.00  0.00    +0.000 A 
ATOM     23  C   UNL     1      -1.175  10.971  19.943  0.00  0.00    +0.000 A 
ENDBRANCH  15  18
ENDBRANCH   5  15
BRANCH   1  25
ATOM     24  C   UNL     1       1.771   2.623  21.915  0.00  0.00    +0.000 C 
ATOM     25  C   UNL     1       2.450   3.925  21.497  0.00  0.00    +0.000 C 
ENDBRANCH   1  25
BRANCH   1  26
ATOM     26  C   UNL     1       1.192   3.328  19.428  0.00  0.00    +0.000 C 
ATOM     27  C   UNL     1       1.830   2.295  18.515  0.00  0.00    +0.000 C 
ENDBRANCH   1  26
BRANCH  12  28
ATOM     28  C   UNL     1       5.301   4.211  15.982  0.00  0.00    +0.000 C 
ATOM     29  N   UNL     1       5.902   3.401  15.411  0.00  0.00    +0.000 NA
ENDBRANCH  12  28
TORSDOF 5
ENDMDL
MODEL 4
REMARK VINA RESULT:      -6.4      7.246      9.232
REMARK  Name = 
REMARK  7 active torsions:
REMARK  status: ('A' for Active; 'I' for Inactive)
REMARK    1  A    between atoms: C_1  and  C_2
REMARK    2  A    between atoms: C_2  and  N_3
REMARK    3  A    between atoms: N_3  and  C_4
REMARK    4  A    between atoms: C_4  and  C_5
REMARK    5  A    between atoms: C_9  and  S_10
REMARK    6  A    between atoms: S_10  and  C_13
REMARK    7  A    between atoms: C_25  and  C_26
REMARK                            x       y       z     vdW  Elec       q    Type
REMARK                         _______ _______ _______ _____ _____    ______ ____
ROOT
ATOM      1  N   UNL     1       2.248   4.617  19.777  0.00  0.00    +0.000 N 
ATOM      2  C   UNL     1       2.356   5.887  19.222  0.00  0.00    +0.000 A 
ATOM      3  N   UNL     1       1.726   6.900  19.761  0.00  0.00    +0.000 NA
ATOM      4  C   UNL     1       1.882   8.129  19.194  0.00  0.00    +0.000 A 
ATOM      5  C   UNL     1       1.357   9.384  19.434  0.00  0.00    +0.000 A 
ATOM      6  N   UNL     1       1.908  10.300  18.567  0.00  0.00    +0.000 NA
ATOM      7  N   UNL     1       2.752   9.653  17.770  0.00  0.00    +0.000 NA
ATOM      8  N   UNL     1       2.725   8.354  18.124  0.00  0.00    +0.000 N 
ATOM      9  C   UNL     1       3.458   7.334  17.511  0.00  0.00    +0.000 A 
ATOM     10  C   UNL     1       4.340   7.561  16.455  0.00  0.00    +0.000 A 
ATOM     11  C   UNL     1       5.045   6.479  15.918  0.00  0.00    +0.000 A 
ATOM     12  C   UNL     1       4.861   5.185  16.431  0.00  0.00    +0.000 A 
ATOM     13  C   UNL     1       3.974   4.974  17.490  0.00  0.00    +0.000 A 
ATOM     14  C   UNL     1       3.268   6.052  18.034  0.00  0.00    +0.000 A 
ENDROOT
BRANCH   5  15
ATOM     15  S   UNL     1       0.224   9.804  20.654  0.00  0.00    +0.000 S 
ATOM     16  O   UNL     1      -0.267   8.550  21.191  0.00  0.00    +0.000 OA
ATOM     17  O   UNL     1       0.891  10.780  21.500  0.00  0.00    +0.000 OA
BRANCH  15  18
ATOM     18  C   UNL     1      -1.108  10.597  19.791  0.00  0.00    +0.000 A 
ATOM     19  C   UNL     1      -1.673  11.762  20.319  0.00  0.00    +0.000 A 
ATOM     20  C   UNL     1      -2.744  12.365  19.660  0.00  0.00    +0.000 A 
ATOM     21  C   UNL     1      -3.235  11.814  18.475  0.00  0.00    +0.000 A 
ATOM     22  C   UNL     1      -2.644  10.672  17.933  0.00  0.00    +0.000 A 
ATOM     23  C   UNL     1      -1.571  10.063  18.585  0.00  0.00    +0.000 A 
ENDBRANCH  15  18
ENDBRANCH   5  15
BRANCH   1  25
ATOM     24  C   UNL     1       1.998   3.101  21.698  0.00  0.00    +0.000 C 
ATOM     25  C   UNL     1       2.445   4.483  21.229  0.00  0.00    +0.000 C 
ENDBRANCH   1  25
BRANCH   1  26
ATOM     26  C   UNL     1       1.281   3.685  19.172  0.00  0.00    +0.000 C 
ATOM     27  C   UNL     1       1.935   2.581  18.358  0.00  0.00    +0.000 C 
ENDBRANCH   1  26
BRANCH  12  28
ATOM     28  C   UNL     1       5.590   4.079  15.883  0.00  0.00    +0.000 C 
ATOM     29  N   UNL     1       6.171   3.171  15.455  0.00  0.00    +0.000 NA
ENDBRANCH  12  28
TORSDOF 5
ENDMDL
MODEL 5
REMARK VINA RESULT:      -6.3      8.116     10.584
REMARK  Name = 
REMARK  7 active torsions:
REMARK  status: ('A' for Active; 'I' for Inactive)
REMARK    1  A    between atoms: C_1  and  C_2
REMARK    2  A    between atoms: C_2  and  N_3
REMARK    3  A    between atoms: N_3  and  C_4
REMARK    4  A    between atoms: C_4  and  C_5
REMARK    5  A    between atoms: C_9  and  S_10
REMARK    6  A    between atoms: S_10  and  C_13
REMARK    7  A    between atoms: C_25  and  C_26
REMARK                            x       y       z     vdW  Elec       q    Type
REMARK                         _______ _______ _______ _____ _____    ______ ____
ROOT
ATOM      1  N   UNL     1       5.066   6.086  17.480  0.00  0.00    +0.000 N 
ATOM      2  C   UNL     1       4.032   6.339  18.375  0.00  0.00    +0.000 A 
ATOM      3  N   UNL     1       3.358   7.459  18.307  0.00  0.00    +0.000 NA
ATOM      4  C   UNL     1       2.339   7.650  19.191  0.00  0.00    +0.000 A 
ATOM      5  C   UNL     1       1.466   8.686  19.458  0.00  0.00    +0.000 A 
ATOM      6  N   UNL     1       0.585   8.317  20.449  0.00  0.00    +0.000 NA
ATOM      7  N   UNL     1       0.892   7.081  20.831  0.00  0.00    +0.000 NA
ATOM      8  N   UNL     1       1.951   6.686  20.099  0.00  0.00    +0.000 N 
ATOM      9  C   UNL     1       2.596   5.451  20.215  0.00  0.00    +0.000 A 
ATOM     10  C   UNL     1       2.185   4.458  21.104  0.00  0.00    +0.000 A 
ATOM     11  C   UNL     1       2.882   3.246  21.134  0.00  0.00    +0.000 A 
ATOM     12  C   UNL     1       3.981   3.036  20.285  0.00  0.00    +0.000 A 
ATOM     13  C   UNL     1       4.380   4.041  19.399  0.00  0.00    +0.000 A 
ATOM     14  C   UNL     1       3.686   5.254  19.362  0.00  0.00    +0.000 A 
ENDROOT
BRANCH   5  15
ATOM     15  S   UNL     1       1.408  10.209  18.665  0.00  0.00    +0.000 S 
ATOM     16  O   UNL     1       1.891  11.178  19.630  0.00  0.00    +0.000 OA
ATOM     17  O   UNL     1       2.072  10.018  17.387  0.00  0.00    +0.000 OA
BRANCH  15  18
ATOM     18  C   UNL     1      -0.316  10.516  18.386  0.00  0.00    +0.000 A 
ATOM     19  C   UNL     1      -1.016   9.725  17.469  0.00  0.00    +0.000 A 
ATOM     20  C   UNL     1      -2.363   9.990  17.221  0.00  0.00    +0.000 A 
ATOM     21  C   UNL     1      -3.007  11.028  17.897  0.00  0.00    +0.000 A 
ATOM     22  C   UNL     1      -2.313  11.791  18.839  0.00  0.00    +0.000 A 
ATOM     23  C   UNL     1      -0.966  11.531  19.093  0.00  0.00    +0.000 A 
ENDBRANCH  15  18
ENDBRANCH   5  15
BRANCH   1  25
ATOM     24  C   UNL     1       5.364   5.155  15.224  0.00  0.00    +0.000 C 
ATOM     25  C   UNL     1       4.808   6.311  16.050  0.00  0.00    +0.000 C 
ENDBRANCH   1  25
BRANCH   1  26
ATOM     26  C   UNL     1       6.443   6.351  17.933  0.00  0.00    +0.000 C 
ATOM     27  C   UNL     1       7.014   7.654  17.399  0.00  0.00    +0.000 C 
ENDBRANCH   1  26
BRANCH  12  28
ATOM     28  C   UNL     1       4.690   1.791  20.313  0.00  0.00    +0.000 C 
ATOM     29  N   UNL     1       5.256   0.780  20.355  0.00  0.00    +0.000 NA
ENDBRANCH  12  28
TORSDOF 5
ENDMDL
MODEL 6
REMARK VINA RESULT:      -6.3      2.319      4.296
REMARK  Name = 
REMARK  7 active torsions:
REMARK  status: ('A' for Active; 'I' for Inactive)
REMARK    1  A    between atoms: C_1  and  C_2
REMARK    2  A    between atoms: C_2  and  N_3
REMARK    3  A    between atoms: N_3  and  C_4
REMARK    4  A    between atoms: C_4  and  C_5
REMARK    5  A    between atoms: C_9  and  S_10
REMARK    6  A    between atoms: S_10  and  C_13
REMARK    7  A    between atoms: C_25  and  C_26
REMARK                            x       y       z     vdW  Elec       q    Type
REMARK                         _______ _______ _______ _____ _____    ______ ____
ROOT
ATOM      1  N   UNL     1      -0.228  11.408  19.084  0.00  0.00    +0.000 N 
ATOM      2  C   UNL     1      -1.536  11.707  19.450  0.00  0.00    +0.000 A 
ATOM      3  N   UNL     1      -1.794  12.205  20.633  0.00  0.00    +0.000 NA
ATOM      4  C   UNL     1      -3.089  12.503  20.936  0.00  0.00    +0.000 A 
ATOM      5  C   UNL     1      -3.740  12.975  22.059  0.00  0.00    +0.000 A 
ATOM      6  N   UNL     1      -5.079  13.143  21.792  0.00  0.00    +0.000 NA
ATOM      7  N   UNL     1      -5.296  12.770  20.535  0.00  0.00    +0.000 NA
ATOM      8  N   UNL     1      -4.117  12.367  20.025  0.00  0.00    +0.000 N 
ATOM      9  C   UNL     1      -3.922  11.874  18.732  0.00  0.00    +0.000 A 
ATOM     10  C   UNL     1      -4.950  11.770  17.795  0.00  0.00    +0.000 A 
ATOM     11  C   UNL     1      -4.654  11.282  16.517  0.00  0.00    +0.000 A 
ATOM     12  C   UNL     1      -3.344  10.900  16.188  0.00  0.00    +0.000 A 
ATOM     13  C   UNL     1      -2.324  11.012  17.138  0.00  0.00    +0.000 A 
ATOM     14  C   UNL     1      -2.613  11.501  18.416  0.00  0.00    +0.000 A 
ENDROOT
BRANCH   5  15
ATOM     15  S   UNL     1      -3.025  13.362  23.572  0.00  0.00    +0.000 S 
ATOM     16  O   UNL     1      -3.869  12.749  24.580  0.00  0.00    +0.000 OA
ATOM     17  O   UNL     1      -1.619  13.014  23.449  0.00  0.00    +0.000 OA
BRANCH  15  18
ATOM     18  C   UNL     1      -3.179  15.123  23.716  0.00  0.00    +0.000 A 
ATOM     19  C   UNL     1      -3.581  15.680  24.935  0.00  0.00    +0.000 A 
ATOM     20  C   UNL     1      -3.737  17.062  25.038  0.00  0.00    +0.000 A 
ATOM     21  C   UNL     1      -3.479  17.880  23.937  0.00  0.00    +0.000 A 
ATOM     22  C   UNL     1      -3.042  17.321  22.734  0.00  0.00    +0.000 A 
ATOM     23  C   UNL     1      -2.881  15.940  22.622  0.00  0.00    +0.000 A 
ENDBRANCH  15  18
ENDBRANCH   5  15
BRANCH   1  25
ATOM     24  C   UNL     1       0.508  13.679  18.496  0.00  0.00    +0.000 C 
ATOM     25  C   UNL     1       0.803  12.429  19.321  0.00  0.00    +0.000 C 
ENDBRANCH   1  25
BRANCH   1  26
ATOM     26  C   UNL     1       0.214  10.008  19.209  0.00  0.00    +0.000 C 
ATOM     27  C   UNL     1       1.304   9.629  18.222  0.00  0.00    +0.000 C 
ENDBRANCH   1  26
BRANCH  12  28
ATOM     28  C   UNL     1      -3.042  10.408  14.876  0.00  0.00    +0.000 C 
ATOM     29  N   UNL     1      -2.817  10.004  13.813  0.00  0.00    +0.000 NA
ENDBRANCH  12  28
TORSDOF 5
ENDMDL
MODEL 7
REMARK VINA RESULT:      -6.2      2.269      4.545
REMARK  Name = 
REMARK  7 active torsions:
REMARK  status: ('A' for Active; 'I' for Inactive)
REMARK    1  A    between atoms: C_1  and  C_2
REMARK    2  A    between atoms: C_2  and  N_3
REMARK    3  A    between atoms: N_3  and  C_4
REMARK    4  A    between atoms: C_4  and  C_5
REMARK    5  A    between atoms: C_9  and  S_10
REMARK    6  A    between atoms: S_10  and  C_13
REMARK    7  A    between atoms: C_25  and  C_26
REMARK                            x       y       z     vdW  Elec       q    Type
REMARK                         _______ _______ _______ _____ _____    ______ ____
ROOT
ATOM      1  N   UNL     1      -0.650  11.670  19.257  0.00  0.00    +0.000 N 
ATOM      2  C   UNL     1      -1.999  11.897  19.506  0.00  0.00    +0.000 A 
ATOM      3  N   UNL     1      -2.384  12.414  20.646  0.00  0.00    +0.000 NA
ATOM      4  C   UNL     1      -3.715  12.639  20.833  0.00  0.00    +0.000 A 
ATOM      5  C   UNL     1      -4.484  13.103  21.882  0.00  0.00    +0.000 A 
ATOM      6  N   UNL     1      -5.805  13.177  21.501  0.00  0.00    +0.000 NA
ATOM      7  N   UNL     1      -5.894  12.752  20.245  0.00  0.00    +0.000 NA
ATOM      8  N   UNL     1      -4.655  12.409  19.848  0.00  0.00    +0.000 N 
ATOM      9  C   UNL     1      -4.323  11.890  18.592  0.00  0.00    +0.000 A 
ATOM     10  C   UNL     1      -5.262  11.691  17.580  0.00  0.00    +0.000 A 
ATOM     11  C   UNL     1      -4.833  11.184  16.349  0.00  0.00    +0.000 A 
ATOM     12  C   UNL     1      -3.479  10.876  16.140  0.00  0.00    +0.000 A 
ATOM     13  C   UNL     1      -2.550  11.082  17.165  0.00  0.00    +0.000 A 
ATOM     14  C   UNL     1      -2.973  11.591  18.397  0.00  0.00    +0.000 A 
ENDROOT
BRANCH   5  15
ATOM     15  S   UNL     1      -3.922  13.581  23.432  0.00  0.00    +0.000 S 
ATOM     16  O   UNL     1      -5.035  14.259  24.068  0.00  0.00    +0.000 OA
ATOM     17  O   UNL     1      -3.320  12.396  24.021  0.00  0.00    +0.000 OA
BRANCH  15  18
ATOM     18  C   UNL     1      -2.654  14.779  23.112  0.00  0.00    +0.000 A 
ATOM     19  C   UNL     1      -3.000  16.011  22.547  0.00  0.00    +0.000 A 
ATOM     20  C   UNL     1      -1.998  16.939  22.261  0.00  0.00    +0.000 A 
ATOM     21  C   UNL     1      -0.666  16.643  22.552  0.00  0.00    +0.000 A 
ATOM     22  C   UNL     1      -0.331  15.427  23.151  0.00  0.00    +0.000 A 
ATOM     23  C   UNL     1      -1.326  14.493  23.441  0.00  0.00    +0.000 A 
ENDBRANCH  15  18
ENDBRANCH   5  15
BRANCH   1  25
ATOM     24  C   UNL     1       0.062  13.924  18.578  0.00  0.00    +0.000 C 
ATOM     25  C   UNL     1       0.293  12.762  19.540  0.00  0.00    +0.000 C 
ENDBRANCH   1  25
BRANCH   1  26
ATOM     26  C   UNL     1      -0.136  10.306  19.469  0.00  0.00    +0.000 C 
ATOM     27  C   UNL     1       0.809   9.841  18.374  0.00  0.00    +0.000 C 
ENDBRANCH   1  26
BRANCH  12  28
ATOM     28  C   UNL     1      -3.040  10.364  14.876  0.00  0.00    +0.000 C 
ATOM     29  N   UNL     1      -2.696   9.963  13.843  0.00  0.00    +0.000 NA
ENDBRANCH  12  28
TORSDOF 5
ENDMDL
MODEL 8
REMARK VINA RESULT:      -6.2      1.651      2.209
REMARK  Name = 
REMARK  7 active torsions:
REMARK  status: ('A' for Active; 'I' for Inactive)
REMARK    1  A    between atoms: C_1  and  C_2
REMARK    2  A    between atoms: C_2  and  N_3
REMARK    3  A    between atoms: N_3  and  C_4
REMARK    4  A    between atoms: C_4  and  C_5
REMARK    5  A    between atoms: C_9  and  S_10
REMARK    6  A    between atoms: S_10  and  C_13
REMARK    7  A    between atoms: C_25  and  C_26
REMARK                            x       y       z     vdW  Elec       q    Type
REMARK                         _______ _______ _______ _____ _____    ______ ____
ROOT
ATOM      1  N   UNL     1      -6.731  11.649  19.244  0.00  0.00    +0.000 N 
ATOM      2  C   UNL     1      -5.469  12.010  19.702  0.00  0.00    +0.000 A 
ATOM      3  N   UNL     1      -5.308  12.442  20.927  0.00  0.00    +0.000 NA
ATOM      4  C   UNL     1      -4.047  12.761  21.335  0.00  0.00    +0.000 A 
ATOM      5  C   UNL     1      -3.504  13.282  22.493  0.00  0.00    +0.000 A 
ATOM      6  N   UNL     1      -2.134  13.359  22.379  0.00  0.00    +0.000 NA
ATOM      7  N   UNL     1      -1.799  12.919  21.170  0.00  0.00    +0.000 NA
ATOM      8  N   UNL     1      -2.937  12.582  20.535  0.00  0.00    +0.000 N 
ATOM      9  C   UNL     1      -3.019  12.096  19.226  0.00  0.00    +0.000 A 
ATOM     10  C   UNL     1      -1.898  11.877  18.426  0.00  0.00    +0.000 A 
ATOM     11  C   UNL     1      -2.077  11.370  17.134  0.00  0.00    +0.000 A 
ATOM     12  C   UNL     1      -3.366  11.091  16.653  0.00  0.00    +0.000 A 
ATOM     13  C   UNL     1      -4.480  11.316  17.468  0.00  0.00    +0.000 A 
ATOM     14  C   UNL     1      -4.307  11.820  18.761  0.00  0.00    +0.000 A 
ENDROOT
BRANCH   5  15
ATOM     15  S   UNL     1      -4.358  13.733  23.914  0.00  0.00    +0.000 S 
ATOM     16  O   UNL     1      -5.658  14.196  23.467  0.00  0.00    +0.000 OA
ATOM     17  O   UNL     1      -4.227  12.612  24.830  0.00  0.00    +0.000 OA
BRANCH  15  18
ATOM     18  C   UNL     1      -3.468  15.123  24.563  0.00  0.00    +0.000 A 
ATOM     19  C   UNL     1      -2.438  14.909  25.487  0.00  0.00    +0.000 A 
ATOM     20  C   UNL     1      -1.763  16.005  26.025  0.00  0.00    +0.000 A 
ATOM     21  C   UNL     1      -2.104  17.300  25.631  0.00  0.00    +0.000 A 
ATOM     22  C   UNL     1      -3.106  17.505  24.681  0.00  0.00    +0.000 A 
ATOM     23  C   UNL     1      -3.786  16.415  24.136  0.00  0.00    +0.000 A 
ENDBRANCH  15  18
ENDBRANCH   5  15
BRANCH   1  25
ATOM     24  C   UNL     1      -7.190   9.300  19.809  0.00  0.00    +0.000 C 
ATOM     25  C   UNL     1      -7.540  10.759  20.091  0.00  0.00    +0.000 C 
ENDBRANCH   1  25
BRANCH   1  26
ATOM     26  C   UNL     1      -7.482  12.640  18.454  0.00  0.00    +0.000 C 
ATOM     27  C   UNL     1      -7.384  14.052  19.006  0.00  0.00    +0.000 C 
ENDBRANCH   1  26
BRANCH  12  28
ATOM     28  C   UNL     1      -3.547  10.565  15.332  0.00  0.00    +0.000 C 
ATOM     29  N   UNL     1      -3.682  10.123  14.268  0.00  0.00    +0.000 NA
ENDBRANCH  12  28
TORSDOF 5
ENDMDL
MODEL 9
REMARK VINA RESULT:      -6.2      2.928      4.914
REMARK  Name = 
REMARK  7 active torsions:
REMARK  status: ('A' for Active; 'I' for Inactive)
REMARK    1  A    between atoms: C_1  and  C_2
REMARK    2  A    between atoms: C_2  and  N_3
REMARK    3  A    between atoms: N_3  and  C_4
REMARK    4  A    between atoms: C_4  and  C_5
REMARK    5  A    between atoms: C_9  and  S_10
REMARK    6  A    between atoms: S_10  and  C_13
REMARK    7  A    between atoms: C_25  and  C_26
REMARK                            x       y       z     vdW  Elec       q    Type
REMARK                         _______ _______ _______ _____ _____    ______ ____
ROOT
ATOM      1  N   UNL     1      -1.209  12.994  21.065  0.00  0.00    +0.000 N 
ATOM      2  C   UNL     1      -2.197  12.557  20.189  0.00  0.00    +0.000 A 
ATOM      3  N   UNL     1      -3.384  13.109  20.204  0.00  0.00    +0.000 NA
ATOM      4  C   UNL     1      -4.311  12.662  19.311  0.00  0.00    +0.000 A 
ATOM      5  C   UNL     1      -5.640  12.947  19.064  0.00  0.00    +0.000 A 
ATOM      6  N   UNL     1      -6.087  12.219  17.985  0.00  0.00    +0.000 NA
ATOM      7  N   UNL     1      -5.080  11.464  17.555  0.00  0.00    +0.000 NA
ATOM      8  N   UNL     1      -4.025  11.708  18.355  0.00  0.00    +0.000 N 
ATOM      9  C   UNL     1      -2.774  11.093  18.251  0.00  0.00    +0.000 A 
ATOM     10  C   UNL     1      -2.467  10.156  17.264  0.00  0.00    +0.000 A 
ATOM     11  C   UNL     1      -1.180   9.609  17.227  0.00  0.00    +0.000 A 
ATOM     12  C   UNL     1      -0.216   9.994  18.173  0.00  0.00    +0.000 A 
ATOM     13  C   UNL     1      -0.539  10.934  19.155  0.00  0.00    +0.000 A 
ATOM     14  C   UNL     1      -1.823  11.488  19.196  0.00  0.00    +0.000 A 
ENDROOT
BRANCH   5  15
ATOM     15  S   UNL     1      -6.621  14.073  19.913  0.00  0.00    +0.000 S 
ATOM     16  O   UNL     1      -5.841  15.293  20.000  0.00  0.00    +0.000 OA
ATOM     17  O   UNL     1      -7.917  14.048  19.255  0.00  0.00    +0.000 OA
BRANCH  15  18
ATOM     18  C   UNL     1      -6.784  13.402  21.546  0.00  0.00    +0.000 A 
ATOM     19  C   UNL     1      -5.932  13.850  22.562  0.00  0.00    +0.000 A 
ATOM     20  C   UNL     1      -6.036  13.295  23.838  0.00  0.00    +0.000 A 
ATOM     21  C   UNL     1      -6.993  12.313  24.098  0.00  0.00    +0.000 A 
ATOM     22  C   UNL     1      -7.865  11.896  23.090  0.00  0.00    +0.000 A 
ATOM     23  C   UNL     1      -7.769  12.446  21.812  0.00  0.00    +0.000 A 
ENDBRANCH  15  18
ENDBRANCH   5  15
BRANCH   1  25
ATOM     24  C   UNL     1      -0.353  14.972  19.882  0.00  0.00    +0.000 C 
ATOM     25  C   UNL     1      -0.976  14.442  21.171  0.00  0.00    +0.000 C 
ENDBRANCH   1  25
BRANCH   1  26
ATOM     26  C   UNL     1      -0.997  12.218  22.300  0.00  0.00    +0.000 C 
ATOM     27  C   UNL     1      -2.272  11.987  23.093  0.00  0.00    +0.000 C 
ENDBRANCH   1  26
BRANCH  12  28
ATOM     28  C   UNL     1       1.103   9.437  18.130  0.00  0.00    +0.000 C 
ATOM     29  N   UNL     1       2.166   8.976  18.076  0.00  0.00    +0.000 NA
ENDBRANCH  12  28
TORSDOF 5
ENDMDL
