MODEL 1
REMARK VINA RESULT:      -8.2      0.000      0.000
REMARK  Name = 
REMARK  7 active torsions:
REMARK  status: ('A' for Active; 'I' for Inactive)
REMARK    1  A    between atoms: C_2  and  C_3
REMARK    2  A    between atoms: C_14  and  C_16
REMARK    3  A    between atoms: C_16  and  N_17
REMARK    4  A    between atoms: N_17  and  C_18
REMARK    5  A    between atoms: C_18  and  C_19
REMARK    6  A    between atoms: C_19  and  O_20
REMARK    7  A    between atoms: O_20  and  C_21
REMARK                            x       y       z     vdW  Elec       q    Type
REMARK                         _______ _______ _______ _____ _____    ______ ____
ROOT
ATOM      1  O   UNL     1       1.759   9.287  17.221  0.00  0.00    +0.000 OA
ATOM      2  C   UNL     1       1.761   8.816  18.357  0.00  0.00    +0.000 C 
ATOM      3  N   UNL     1       2.445   7.634  18.684  0.00  0.00    +0.000 N 
ATOM      4  C   UNL     1       2.461   6.987  20.001  0.00  0.00    +0.000 C 
ATOM      5  C   UNL     1       2.355   5.475  19.907  0.00  0.00    +0.000 C 
ATOM      6  C   UNL     1       3.403   4.894  18.966  0.00  0.00    +0.000 C 
ATOM      7  F   UNL     1       3.140   3.559  18.816  0.00  0.00    +0.000 F 
ATOM      8  C   UNL     1       3.259   5.555  17.595  0.00  0.00    +0.000 C 
ATOM      9  C   UNL     1       3.353   7.078  17.678  0.00  0.00    +0.000 C 
ENDROOT
BRANCH   2  10
ATOM     10  C   UNL     1       0.962   9.541  19.381  0.00  0.00    +0.000 A 
ATOM     11  C   UNL     1       0.145  10.603  18.959  0.00  0.00    +0.000 A 
ATOM     12  C   UNL     1      -0.664  11.275  19.879  0.00  0.00    +0.000 A 
ATOM     13  C   UNL     1      -0.670  10.872  21.212  0.00  0.00    +0.000 A 
ATOM     14  F   UNL     1      -1.494  11.490  22.069  0.00  0.00    +0.000 F 
ATOM     15  C   UNL     1       0.165   9.846  21.644  0.00  0.00    +0.000 A 
ATOM     16 CL   UNL     1       0.130   9.304  23.277  0.00  0.00    +0.000 Cl
ATOM     17  C   UNL     1       1.022   9.216  20.741  0.00  0.00    +0.000 A 
ENDBRANCH   2  10
BRANCH   6  18
ATOM     18  C   UNL     1       4.848   5.021  19.503  0.00  0.00    +0.000 C 
BRANCH  18  19
ATOM     19  N   UNL     1       5.830   4.282  18.693  0.00  0.00    +0.000 NA
ATOM     20  H   UNL     1       5.320   3.689  18.032  0.00  0.00    +0.000 HD
BRANCH  19  21
ATOM     21  C   UNL     1       6.729   5.174  17.945  0.00  0.00    +0.000 C 
BRANCH  21  22
ATOM     22  C   UNL     1       7.437   4.473  16.776  0.00  0.00    +0.000 C 
BRANCH  22  23
ATOM     23  O   UNL     1       7.622   5.380  15.692  0.00  0.00    +0.000 OA
BRANCH  23  24
ATOM     24  C   UNL     1       7.205   4.900  14.476  0.00  0.00    +0.000 A 
ATOM     25  C   UNL     1       6.018   4.174  14.509  0.00  0.00    +0.000 A 
ATOM     26  C   UNL     1       5.496   3.621  13.337  0.00  0.00    +0.000 A 
ATOM     27  C   UNL     1       6.152   3.811  12.123  0.00  0.00    +0.000 A 
ATOM     28  C   UNL     1       7.325   4.560  12.079  0.00  0.00    +0.000 A 
ATOM     29  C   UNL     1       7.851   5.105  13.252  0.00  0.00    +0.000 A 
ENDBRANCH  23  24
ENDBRANCH  22  23
ENDBRANCH  21  22
ENDBRANCH  19  21
ENDBRANCH  18  19
ENDBRANCH   6  18
TORSDOF 7
ENDMDL
MODEL 2
REMARK VINA RESULT:      -8.2      1.046      1.396
REMARK  Name = 
REMARK  7 active torsions:
REMARK  status: ('A' for Active; 'I' for Inactive)
REMARK    1  A    between atoms: C_2  and  C_3
REMARK    2  A    between atoms: C_14  and  C_16
REMARK    3  A    between atoms: C_16  and  N_17
REMARK    4  A    between atoms: N_17  and  C_18
REMARK    5  A    between atoms: C_18  and  C_19
REMARK    6  A    between atoms: C_19  and  O_20
REMARK    7  A    between atoms: O_20  and  C_21
REMARK                            x       y       z     vdW  Elec       q    Type
REMARK                         _______ _______ _______ _____ _____    ______ ____
ROOT
ATOM      1  O   UNL     1       1.884   8.775  17.597  0.00  0.00    +0.000 OA
ATOM      2  C   UNL     1       1.915   8.233  18.701  0.00  0.00    +0.000 C 
ATOM      3  N   UNL     1       2.547   7.000  18.921  0.00  0.00    +0.000 N 
ATOM      4  C   UNL     1       2.591   6.271  20.194  0.00  0.00    +0.000 C 
ATOM      5  C   UNL     1       2.397   4.776  20.015  0.00  0.00    +0.000 C 
ATOM      6  C   UNL     1       3.365   4.200  18.988  0.00  0.00    +0.000 C 
ATOM      7  F   UNL     1       3.022   2.893  18.771  0.00  0.00    +0.000 F 
ATOM      8  C   UNL     1       3.192   4.953  17.668  0.00  0.00    +0.000 C 
ATOM      9  C   UNL     1       3.374   6.461  17.838  0.00  0.00    +0.000 C 
ENDROOT
BRANCH   2  10
ATOM     10  C   UNL     1       1.206   8.933  19.806  0.00  0.00    +0.000 A 
ATOM     11  C   UNL     1       1.109   8.287  21.050  0.00  0.00    +0.000 A 
ATOM     12  C   UNL     1       0.500   8.932  22.130  0.00  0.00    +0.000 A 
ATOM     13  C   UNL     1       0.009  10.224  21.971  0.00  0.00    +0.000 A 
ATOM     14  F   UNL     1      -0.520  10.848  23.032  0.00  0.00    +0.000 F 
ATOM     15  C   UNL     1       0.067  10.855  20.731  0.00  0.00    +0.000 A 
ATOM     16 CL   UNL     1      -0.490  12.471  20.534  0.00  0.00    +0.000 Cl
ATOM     17  C   UNL     1       0.615  10.190  19.635  0.00  0.00    +0.000 A 
ENDBRANCH   2  10
BRANCH   6  18
ATOM     18  C   UNL     1       4.839   4.218  19.457  0.00  0.00    +0.000 C 
BRANCH  18  19
ATOM     19  N   UNL     1       5.780   3.782  18.413  0.00  0.00    +0.000 NA
ATOM     20  H   UNL     1       5.239   3.481  17.598  0.00  0.00    +0.000 HD
BRANCH  19  21
ATOM     21  C   UNL     1       6.707   4.850  18.008  0.00  0.00    +0.000 C 
BRANCH  21  22
ATOM     22  C   UNL     1       7.516   4.499  16.750  0.00  0.00    +0.000 C 
BRANCH  22  23
ATOM     23  O   UNL     1       7.291   5.470  15.730  0.00  0.00    +0.000 OA
BRANCH  23  24
ATOM     24  C   UNL     1       7.035   4.938  14.491  0.00  0.00    +0.000 A 
ATOM     25  C   UNL     1       5.920   4.107  14.429  0.00  0.00    +0.000 A 
ATOM     26  C   UNL     1       5.562   3.494  13.226  0.00  0.00    +0.000 A 
ATOM     27  C   UNL     1       6.310   3.727  12.074  0.00  0.00    +0.000 A 
ATOM     28  C   UNL     1       7.411   4.578  12.123  0.00  0.00    +0.000 A 
ATOM     29  C   UNL     1       7.773   5.185  13.328  0.00  0.00    +0.000 A 
ENDBRANCH  23  24
ENDBRANCH  22  23
ENDBRANCH  21  22
ENDBRANCH  19  21
ENDBRANCH  18  19
ENDBRANCH   6  18
TORSDOF 7
ENDMDL
MODEL 3
REMARK VINA RESULT:      -8.0      3.589      9.708
REMARK  Name = 
REMARK  7 active torsions:
REMARK  status: ('A' for Active; 'I' for Inactive)
REMARK    1  A    between atoms: C_2  and  C_3
REMARK    2  A    between atoms: C_14  and  C_16
REMARK    3  A    between atoms: C_16  and  N_17
REMARK    4  A    between atoms: N_17  and  C_18
REMARK    5  A    between atoms: C_18  and  C_19
REMARK    6  A    between atoms: C_19  and  O_20
REMARK    7  A    between atoms: O_20  and  C_21
REMARK                            x       y       z     vdW  Elec       q    Type
REMARK                         _______ _______ _______ _____ _____    ______ ____
ROOT
ATOM      1  O   UNL     1       7.995   4.255  17.034  0.00  0.00    +0.000 OA
ATOM      2  C   UNL     1       6.932   4.478  16.457  0.00  0.00    +0.000 C 
ATOM      3  N   UNL     1       5.716   4.628  17.141  0.00  0.00    +0.000 N 
ATOM      4  C   UNL     1       4.404   4.852  16.524  0.00  0.00    +0.000 C 
ATOM      5  C   UNL     1       3.300   4.056  17.197  0.00  0.00    +0.000 C 
ATOM      6  C   UNL     1       3.276   4.286  18.703  0.00  0.00    +0.000 C 
ATOM      7  F   UNL     1       2.367   3.419  19.248  0.00  0.00    +0.000 F 
ATOM      8  C   UNL     1       4.650   3.943  19.279  0.00  0.00    +0.000 C 
ATOM      9  C   UNL     1       5.771   4.733  18.602  0.00  0.00    +0.000 C 
ENDROOT
BRANCH   2  10
ATOM     10  C   UNL     1       6.982   4.544  14.971  0.00  0.00    +0.000 A 
ATOM     11  C   UNL     1       7.891   5.433  14.374  0.00  0.00    +0.000 A 
ATOM     12  C   UNL     1       8.009   5.486  12.982  0.00  0.00    +0.000 A 
ATOM     13  C   UNL     1       7.235   4.640  12.194  0.00  0.00    +0.000 A 
ATOM     14  F   UNL     1       7.402   4.664  10.865  0.00  0.00    +0.000 F 
ATOM     15  C   UNL     1       6.305   3.784  12.777  0.00  0.00    +0.000 A 
ATOM     16 CL   UNL     1       5.379   2.696  11.818  0.00  0.00    +0.000 Cl
ATOM     17  C   UNL     1       6.138   3.774  14.162  0.00  0.00    +0.000 A 
ENDBRANCH   2  10
BRANCH   6  18
ATOM     18  C   UNL     1       2.841   5.717  19.098  0.00  0.00    +0.000 C 
BRANCH  18  19
ATOM     19  N   UNL     1       2.678   5.890  20.550  0.00  0.00    +0.000 NA
ATOM     20  H   UNL     1       3.385   6.555  20.876  0.00  0.00    +0.000 HD
BRANCH  19  21
ATOM     21  C   UNL     1       1.343   6.390  20.912  0.00  0.00    +0.000 C 
BRANCH  21  22
ATOM     22  C   UNL     1       1.302   7.914  21.098  0.00  0.00    +0.000 C 
BRANCH  22  23
ATOM     23  O   UNL     1       0.062   8.310  21.678  0.00  0.00    +0.000 OA
BRANCH  23  24
ATOM     24  C   UNL     1      -0.283   9.616  21.439  0.00  0.00    +0.000 A 
ATOM     25  C   UNL     1      -0.490  10.387  22.579  0.00  0.00    +0.000 A 
ATOM     26  C   UNL     1      -0.858  11.729  22.467  0.00  0.00    +0.000 A 
ATOM     27  C   UNL     1      -1.002  12.311  21.210  0.00  0.00    +0.000 A 
ATOM     28  C   UNL     1      -0.770  11.553  20.065  0.00  0.00    +0.000 A 
ATOM     29  C   UNL     1      -0.409  10.209  20.177  0.00  0.00    +0.000 A 
ENDBRANCH  23  24
ENDBRANCH  22  23
ENDBRANCH  21  22
ENDBRANCH  19  21
ENDBRANCH  18  19
ENDBRANCH   6  18
TORSDOF 7
ENDMDL
MODEL 4
REMARK VINA RESULT:      -7.9      1.004      1.632
REMARK  Name = 
REMARK  7 active torsions:
REMARK  status: ('A' for Active; 'I' for Inactive)
REMARK    1  A    between atoms: C_2  and  C_3
REMARK    2  A    between atoms: C_14  and  C_16
REMARK    3  A    between atoms: C_16  and  N_17
REMARK    4  A    between atoms: N_17  and  C_18
REMARK    5  A    between atoms: C_18  and  C_19
REMARK    6  A    between atoms: C_19  and  O_20
REMARK    7  A    between atoms: O_20  and  C_21
REMARK                            x       y       z     vdW  Elec       q    Type
REMARK                         _______ _______ _______ _____ _____    ______ ____
ROOT
ATOM      1  O   UNL     1       1.739   9.663  17.620  0.00  0.00    +0.000 OA
ATOM      2  C   UNL     1       1.680   9.054  18.687  0.00  0.00    +0.000 C 
ATOM      3  N   UNL     1       2.356   7.845  18.906  0.00  0.00    +0.000 N 
ATOM      4  C   UNL     1       2.303   7.039  20.132  0.00  0.00    +0.000 C 
ATOM      5  C   UNL     1       2.220   5.550  19.846  0.00  0.00    +0.000 C 
ATOM      6  C   UNL     1       3.328   5.094  18.905  0.00  0.00    +0.000 C 
ATOM      7  F   UNL     1       3.089   3.787  18.576  0.00  0.00    +0.000 F 
ATOM      8  C   UNL     1       3.257   5.919  17.620  0.00  0.00    +0.000 C 
ATOM      9  C   UNL     1       3.329   7.421  17.896  0.00  0.00    +0.000 C 
ENDROOT
BRANCH   2  10
ATOM     10  C   UNL     1       0.813   9.644  19.743  0.00  0.00    +0.000 A 
ATOM     11  C   UNL     1       0.932   9.152  21.054  0.00  0.00    +0.000 A 
ATOM     12  C   UNL     1       0.176   9.716  22.085  0.00  0.00    +0.000 A 
ATOM     13  C   UNL     1      -0.679  10.778  21.810  0.00  0.00    +0.000 A 
ATOM     14  F   UNL     1      -1.353  11.343  22.821  0.00  0.00    +0.000 F 
ATOM     15  C   UNL     1      -0.831  11.244  20.507  0.00  0.00    +0.000 A 
ATOM     16 CL   UNL     1      -1.846  12.589  20.161  0.00  0.00    +0.000 Cl
ATOM     17  C   UNL     1      -0.127  10.642  19.464  0.00  0.00    +0.000 A 
ENDBRANCH   2  10
BRANCH   6  18
ATOM     18  C   UNL     1       4.737   5.160  19.539  0.00  0.00    +0.000 C 
BRANCH  18  19
ATOM     19  N   UNL     1       5.747   4.410  18.775  0.00  0.00    +0.000 NA
ATOM     20  H   UNL     1       5.264   3.852  18.065  0.00  0.00    +0.000 HD
BRANCH  19  21
ATOM     21  C   UNL     1       6.722   5.291  18.113  0.00  0.00    +0.000 C 
BRANCH  21  22
ATOM     22  C   UNL     1       7.474   4.601  16.965  0.00  0.00    +0.000 C 
BRANCH  22  23
ATOM     23  O   UNL     1       7.505   5.444  15.816  0.00  0.00    +0.000 OA
BRANCH  23  24
ATOM     24  C   UNL     1       7.004   4.864  14.676  0.00  0.00    +0.000 A 
ATOM     25  C   UNL     1       7.760   5.080  13.528  0.00  0.00    +0.000 A 
ATOM     26  C   UNL     1       7.348   4.554  12.302  0.00  0.00    +0.000 A 
ATOM     27  C   UNL     1       6.185   3.791  12.226  0.00  0.00    +0.000 A 
ATOM     28  C   UNL     1       5.439   3.548  13.376  0.00  0.00    +0.000 A 
ATOM     29  C   UNL     1       5.846   4.082  14.600  0.00  0.00    +0.000 A 
ENDBRANCH  23  24
ENDBRANCH  22  23
ENDBRANCH  21  22
ENDBRANCH  19  21
ENDBRANCH  18  19
ENDBRANCH   6  18
TORSDOF 7
ENDMDL
MODEL 5
REMARK VINA RESULT:      -7.8      3.479      9.203
REMARK  Name = 
REMARK  7 active torsions:
REMARK  status: ('A' for Active; 'I' for Inactive)
REMARK    1  A    between atoms: C_2  and  C_3
REMARK    2  A    between atoms: C_14  and  C_16
REMARK    3  A    between atoms: C_16  and  N_17
REMARK    4  A    between atoms: N_17  and  C_18
REMARK    5  A    between atoms: C_18  and  C_19
REMARK    6  A    between atoms: C_19  and  O_20
REMARK    7  A    between atoms: O_20  and  C_21
REMARK                            x       y       z     vdW  Elec       q    Type
REMARK                         _______ _______ _______ _____ _____    ______ ____
ROOT
ATOM      1  O   UNL     1       8.036   4.346  17.082  0.00  0.00    +0.000 OA
ATOM      2  C   UNL     1       6.962   4.534  16.512  0.00  0.00    +0.000 C 
ATOM      3  N   UNL     1       5.750   4.664  17.206  0.00  0.00    +0.000 N 
ATOM      4  C   UNL     1       4.427   4.847  16.598  0.00  0.00    +0.000 C 
ATOM      5  C   UNL     1       3.350   4.033  17.295  0.00  0.00    +0.000 C 
ATOM      6  C   UNL     1       3.334   4.287  18.798  0.00  0.00    +0.000 C 
ATOM      7  F   UNL     1       2.452   3.406  19.364  0.00  0.00    +0.000 F 
ATOM      8  C   UNL     1       4.722   3.987  19.364  0.00  0.00    +0.000 C 
ATOM      9  C   UNL     1       5.816   4.793  18.664  0.00  0.00    +0.000 C 
ENDROOT
BRANCH   2  10
ATOM     10  C   UNL     1       6.997   4.577  15.025  0.00  0.00    +0.000 A 
ATOM     11  C   UNL     1       7.852   5.504  14.405  0.00  0.00    +0.000 A 
ATOM     12  C   UNL     1       7.955   5.540  13.012  0.00  0.00    +0.000 A 
ATOM     13  C   UNL     1       7.221   4.641  12.244  0.00  0.00    +0.000 A 
ATOM     14  F   UNL     1       7.376   4.653  10.913  0.00  0.00    +0.000 F 
ATOM     15  C   UNL     1       6.342   3.747  12.850  0.00  0.00    +0.000 A 
ATOM     16 CL   UNL     1       5.467   2.597  11.917  0.00  0.00    +0.000 Cl
ATOM     17  C   UNL     1       6.188   3.752  14.236  0.00  0.00    +0.000 A 
ENDBRANCH   2  10
BRANCH   6  18
ATOM     18  C   UNL     1       2.868   5.712  19.174  0.00  0.00    +0.000 C 
BRANCH  18  19
ATOM     19  N   UNL     1       1.932   5.731  20.309  0.00  0.00    +0.000 NA
ATOM     20  H   UNL     1       2.334   5.170  21.066  0.00  0.00    +0.000 HD
BRANCH  19  21
ATOM     21  C   UNL     1       1.671   7.091  20.804  0.00  0.00    +0.000 C 
BRANCH  21  22
ATOM     22  C   UNL     1       1.736   8.156  19.698  0.00  0.00    +0.000 C 
BRANCH  22  23
ATOM     23  O   UNL     1       1.350   9.428  20.212  0.00  0.00    +0.000 OA
BRANCH  23  24
ATOM     24  C   UNL     1       0.262   9.984  19.585  0.00  0.00    +0.000 A 
ATOM     25  C   UNL     1       0.097   9.607  18.255  0.00  0.00    +0.000 A 
ATOM     26  C   UNL     1      -0.965  10.116  17.505  0.00  0.00    +0.000 A 
ATOM     27  C   UNL     1      -1.879  10.990  18.090  0.00  0.00    +0.000 A 
ATOM     28  C   UNL     1      -1.734  11.349  19.428  0.00  0.00    +0.000 A 
ATOM     29  C   UNL     1      -0.668  10.846  20.176  0.00  0.00    +0.000 A 
ENDBRANCH  23  24
ENDBRANCH  22  23
ENDBRANCH  21  22
ENDBRANCH  19  21
ENDBRANCH  18  19
ENDBRANCH   6  18
TORSDOF 7
ENDMDL
MODEL 6
REMARK VINA RESULT:      -7.7      3.471      9.942
REMARK  Name = 
REMARK  7 active torsions:
REMARK  status: ('A' for Active; 'I' for Inactive)
REMARK    1  A    between atoms: C_2  and  C_3
REMARK    2  A    between atoms: C_14  and  C_16
REMARK    3  A    between atoms: C_16  and  N_17
REMARK    4  A    between atoms: N_17  and  C_18
REMARK    5  A    between atoms: C_18  and  C_19
REMARK    6  A    between atoms: C_19  and  O_20
REMARK    7  A    between atoms: O_20  and  C_21
REMARK                            x       y       z     vdW  Elec       q    Type
REMARK                         _______ _______ _______ _____ _____    ______ ____
ROOT
ATOM      1  O   UNL     1       7.142   4.382  18.136  0.00  0.00    +0.000 OA
ATOM      2  C   UNL     1       6.182   4.661  17.421  0.00  0.00    +0.000 C 
ATOM      3  N   UNL     1       4.962   5.124  17.939  0.00  0.00    +0.000 N 
ATOM      4  C   UNL     1       3.760   5.437  17.157  0.00  0.00    +0.000 C 
ATOM      5  C   UNL     1       2.486   4.961  17.834  0.00  0.00    +0.000 C 
ATOM      6  C   UNL     1       2.388   5.463  19.270  0.00  0.00    +0.000 C 
ATOM      7  F   UNL     1       1.303   4.865  19.852  0.00  0.00    +0.000 F 
ATOM      8  C   UNL     1       3.634   5.018  20.036  0.00  0.00    +0.000 C 
ATOM      9  C   UNL     1       4.923   5.483  19.359  0.00  0.00    +0.000 C 
ENDROOT
BRANCH   2  10
ATOM     10  C   UNL     1       6.355   4.447  15.959  0.00  0.00    +0.000 A 
ATOM     11  C   UNL     1       5.488   3.552  15.309  0.00  0.00    +0.000 A 
ATOM     12  C   UNL     1       5.581   3.363  13.928  0.00  0.00    +0.000 A 
ATOM     13  C   UNL     1       6.524   4.080  13.197  0.00  0.00    +0.000 A 
ATOM     14  F   UNL     1       6.561   3.929  11.867  0.00  0.00    +0.000 F 
ATOM     15  C   UNL     1       7.413   4.938  13.840  0.00  0.00    +0.000 A 
ATOM     16 CL   UNL     1       8.549   5.869  12.944  0.00  0.00    +0.000 Cl
ATOM     17  C   UNL     1       7.365   5.081  15.227  0.00  0.00    +0.000 A 
ENDBRANCH   2  10
BRANCH   6  18
ATOM     18  C   UNL     1       2.181   6.992  19.371  0.00  0.00    +0.000 C 
BRANCH  18  19
ATOM     19  N   UNL     1       2.184   7.482  20.759  0.00  0.00    +0.000 NA
ATOM     20  H   UNL     1       2.959   8.142  20.865  0.00  0.00    +0.000 HD
BRANCH  19  21
ATOM     21  C   UNL     1       0.927   8.154  21.123  0.00  0.00    +0.000 C 
BRANCH  21  22
ATOM     22  C   UNL     1       1.089   9.669  21.315  0.00  0.00    +0.000 C 
BRANCH  22  23
ATOM     23  O   UNL     1       0.414  10.093  22.497  0.00  0.00    +0.000 OA
BRANCH  23  24
ATOM     24  C   UNL     1      -0.647  10.934  22.271  0.00  0.00    +0.000 A 
ATOM     25  C   UNL     1      -0.791  11.354  20.952  0.00  0.00    +0.000 A 
ATOM     26  C   UNL     1      -1.825  12.223  20.596  0.00  0.00    +0.000 A 
ATOM     27  C   UNL     1      -2.733  12.659  21.559  0.00  0.00    +0.000 A 
ATOM     28  C   UNL     1      -2.611  12.220  22.875  0.00  0.00    +0.000 A 
ATOM     29  C   UNL     1      -1.572  11.358  23.232  0.00  0.00    +0.000 A 
ENDBRANCH  23  24
ENDBRANCH  22  23
ENDBRANCH  21  22
ENDBRANCH  19  21
ENDBRANCH  18  19
ENDBRANCH   6  18
TORSDOF 7
ENDMDL
MODEL 7
REMARK VINA RESULT:      -7.7      3.396      9.255
REMARK  Name = 
REMARK  7 active torsions:
REMARK  status: ('A' for Active; 'I' for Inactive)
REMARK    1  A    between atoms: C_2  and  C_3
REMARK    2  A    between atoms: C_14  and  C_16
REMARK    3  A    between atoms: C_16  and  N_17
REMARK    4  A    between atoms: N_17  and  C_18
REMARK    5  A    between atoms: C_18  and  C_19
REMARK    6  A    between atoms: C_19  and  O_20
REMARK    7  A    between atoms: O_20  and  C_21
REMARK                            x       y       z     vdW  Elec       q    Type
REMARK                         _______ _______ _______ _____ _____    ______ ____
ROOT
ATOM      1  O   UNL     1       8.010   4.281  17.048  0.00  0.00    +0.000 OA
ATOM      2  C   UNL     1       6.931   4.447  16.483  0.00  0.00    +0.000 C 
ATOM      3  N   UNL     1       5.717   4.537  17.182  0.00  0.00    +0.000 N 
ATOM      4  C   UNL     1       4.387   4.692  16.579  0.00  0.00    +0.000 C 
ATOM      5  C   UNL     1       3.334   3.841  17.268  0.00  0.00    +0.000 C 
ATOM      6  C   UNL     1       3.316   4.075  18.774  0.00  0.00    +0.000 C 
ATOM      7  F   UNL     1       2.460   3.165  19.331  0.00  0.00    +0.000 F 
ATOM      8  C   UNL     1       4.713   3.806  19.334  0.00  0.00    +0.000 C 
ATOM      9  C   UNL     1       5.783   4.649  18.641  0.00  0.00    +0.000 C 
ENDROOT
BRANCH   2  10
ATOM     10  C   UNL     1       6.960   4.511  14.997  0.00  0.00    +0.000 A 
ATOM     11  C   UNL     1       7.842   5.417  14.385  0.00  0.00    +0.000 A 
ATOM     12  C   UNL     1       7.940   5.469  12.992  0.00  0.00    +0.000 A 
ATOM     13  C   UNL     1       7.173   4.605  12.216  0.00  0.00    +0.000 A 
ATOM     14  F   UNL     1       7.323   4.630  10.884  0.00  0.00    +0.000 F 
ATOM     15  C   UNL     1       6.268   3.733  12.813  0.00  0.00    +0.000 A 
ATOM     16 CL   UNL     1       5.352   2.624  11.869  0.00  0.00    +0.000 Cl
ATOM     17  C   UNL     1       6.120   3.723  14.200  0.00  0.00    +0.000 A 
ENDBRANCH   2  10
BRANCH   6  18
ATOM     18  C   UNL     1       2.813   5.483  19.169  0.00  0.00    +0.000 C 
BRANCH  18  19
ATOM     19  N   UNL     1       2.411   6.297  18.011  0.00  0.00    +0.000 NA
ATOM     20  H   UNL     1       1.393   6.241  17.918  0.00  0.00    +0.000 HD
BRANCH  19  21
ATOM     21  C   UNL     1       2.806   7.707  18.148  0.00  0.00    +0.000 C 
BRANCH  21  22
ATOM     22  C   UNL     1       1.709   8.685  17.699  0.00  0.00    +0.000 C 
BRANCH  22  23
ATOM     23  O   UNL     1       1.942   9.979  18.250  0.00  0.00    +0.000 OA
BRANCH  23  24
ATOM     24  C   UNL     1       1.008  10.376  19.174  0.00  0.00    +0.000 A 
ATOM     25  C   UNL     1       0.313  11.535  18.842  0.00  0.00    +0.000 A 
ATOM     26  C   UNL     1      -0.656  12.050  19.707  0.00  0.00    +0.000 A 
ATOM     27  C   UNL     1      -0.946  11.392  20.901  0.00  0.00    +0.000 A 
ATOM     28  C   UNL     1      -0.273  10.216  21.225  0.00  0.00    +0.000 A 
ATOM     29  C   UNL     1       0.700   9.707  20.364  0.00  0.00    +0.000 A 
ENDBRANCH  23  24
ENDBRANCH  22  23
ENDBRANCH  21  22
ENDBRANCH  19  21
ENDBRANCH  18  19
ENDBRANCH   6  18
TORSDOF 7
ENDMDL
MODEL 8
REMARK VINA RESULT:      -7.6      0.791      1.178
REMARK  Name = 
REMARK  7 active torsions:
REMARK  status: ('A' for Active; 'I' for Inactive)
REMARK    1  A    between atoms: C_2  and  C_3
REMARK    2  A    between atoms: C_14  and  C_16
REMARK    3  A    between atoms: C_16  and  N_17
REMARK    4  A    between atoms: N_17  and  C_18
REMARK    5  A    between atoms: C_18  and  C_19
REMARK    6  A    between atoms: C_19  and  O_20
REMARK    7  A    between atoms: O_20  and  C_21
REMARK                            x       y       z     vdW  Elec       q    Type
REMARK                         _______ _______ _______ _____ _____    ______ ____
ROOT
ATOM      1  O   UNL     1       1.726   8.892  17.351  0.00  0.00    +0.000 OA
ATOM      2  C   UNL     1       1.793   8.523  18.522  0.00  0.00    +0.000 C 
ATOM      3  N   UNL     1       2.293   7.265  18.891  0.00  0.00    +0.000 N 
ATOM      4  C   UNL     1       2.366   6.736  20.258  0.00  0.00    +0.000 C 
ATOM      5  C   UNL     1       1.983   5.268  20.335  0.00  0.00    +0.000 C 
ATOM      6  C   UNL     1       2.780   4.425  19.346  0.00  0.00    +0.000 C 
ATOM      7  F   UNL     1       2.267   3.156  19.366  0.00  0.00    +0.000 F 
ATOM      8  C   UNL     1       2.577   4.987  17.939  0.00  0.00    +0.000 C 
ATOM      9  C   UNL     1       2.950   6.467  17.852  0.00  0.00    +0.000 C 
ENDROOT
BRANCH   2  10
ATOM     10  C   UNL     1       1.275   9.467  19.549  0.00  0.00    +0.000 A 
ATOM     11  C   UNL     1       1.015  10.793  19.165  0.00  0.00    +0.000 A 
ATOM     12  C   UNL     1       0.476  11.697  20.084  0.00  0.00    +0.000 A 
ATOM     13  C   UNL     1       0.180  11.271  21.376  0.00  0.00    +0.000 A 
ATOM     14  F   UNL     1      -0.389  12.136  22.226  0.00  0.00    +0.000 F 
ATOM     15  C   UNL     1       0.472   9.969  21.775  0.00  0.00    +0.000 A 
ATOM     16 CL   UNL     1       0.065   9.415  23.352  0.00  0.00    +0.000 Cl
ATOM     17  C   UNL     1       1.070   9.082  20.879  0.00  0.00    +0.000 A 
ENDBRANCH   2  10
BRANCH   6  18
ATOM     18  C   UNL     1       4.282   4.321  19.700  0.00  0.00    +0.000 C 
BRANCH  18  19
ATOM     19  N   UNL     1       5.087   3.722  18.623  0.00  0.00    +0.000 NA
ATOM     20  H   UNL     1       4.463   3.502  17.841  0.00  0.00    +0.000 HD
BRANCH  19  21
ATOM     21  C   UNL     1       6.154   4.617  18.152  0.00  0.00    +0.000 C 
BRANCH  21  22
ATOM     22  C   UNL     1       6.004   5.006  16.674  0.00  0.00    +0.000 C 
BRANCH  22  23
ATOM     23  O   UNL     1       7.234   4.806  15.981  0.00  0.00    +0.000 OA
BRANCH  23  24
ATOM     24  C   UNL     1       7.095   4.603  14.631  0.00  0.00    +0.000 A 
ATOM     25  C   UNL     1       7.938   5.371  13.833  0.00  0.00    +0.000 A 
ATOM     26  C   UNL     1       7.883   5.265  12.441  0.00  0.00    +0.000 A 
ATOM     27  C   UNL     1       6.995   4.373  11.844  0.00  0.00    +0.000 A 
ATOM     28  C   UNL     1       6.168   3.582  12.637  0.00  0.00    +0.000 A 
ATOM     29  C   UNL     1       6.218   3.694  14.028  0.00  0.00    +0.000 A 
ENDBRANCH  23  24
ENDBRANCH  22  23
ENDBRANCH  21  22
ENDBRANCH  19  21
ENDBRANCH  18  19
ENDBRANCH   6  18
TORSDOF 7
ENDMDL
MODEL 9
REMARK VINA RESULT:      -7.6      4.502      9.925
REMARK  Name = 
REMARK  7 active torsions:
REMARK  status: ('A' for Active; 'I' for Inactive)
REMARK    1  A    between atoms: C_2  and  C_3
REMARK    2  A    between atoms: C_14  and  C_16
REMARK    3  A    between atoms: C_16  and  N_17
REMARK    4  A    between atoms: N_17  and  C_18
REMARK    5  A    between atoms: C_18  and  C_19
REMARK    6  A    between atoms: C_19  and  O_20
REMARK    7  A    between atoms: O_20  and  C_21
REMARK                            x       y       z     vdW  Elec       q    Type
REMARK                         _______ _______ _______ _____ _____    ______ ____
ROOT
ATOM      1  O   UNL     1       2.197   5.776  20.817  0.00  0.00    +0.000 OA
ATOM      2  C   UNL     1       2.541   6.313  19.765  0.00  0.00    +0.000 C 
ATOM      3  N   UNL     1       2.149   7.614  19.416  0.00  0.00    +0.000 N 
ATOM      4  C   UNL     1       2.481   8.306  18.166  0.00  0.00    +0.000 C 
ATOM      5  C   UNL     1       1.310   9.097  17.610  0.00  0.00    +0.000 C 
ATOM      6  C   UNL     1       0.720  10.040  18.652  0.00  0.00    +0.000 C 
ATOM      7  F   UNL     1      -0.417  10.592  18.126  0.00  0.00    +0.000 F 
ATOM      8  C   UNL     1       0.319   9.229  19.884  0.00  0.00    +0.000 C 
ATOM      9  C   UNL     1       1.488   8.420  20.446  0.00  0.00    +0.000 C 
ENDROOT
BRANCH   2  10
ATOM     10  C   UNL     1       3.373   5.496  18.842  0.00  0.00    +0.000 A 
ATOM     11  C   UNL     1       2.721   4.673  17.908  0.00  0.00    +0.000 A 
ATOM     12  C   UNL     1       3.464   3.932  16.986  0.00  0.00    +0.000 A 
ATOM     13  C   UNL     1       4.853   4.027  16.985  0.00  0.00    +0.000 A 
ATOM     14  F   UNL     1       5.546   3.354  16.058  0.00  0.00    +0.000 F 
ATOM     15  C   UNL     1       5.507   4.810  17.933  0.00  0.00    +0.000 A 
ATOM     16 CL   UNL     1       7.219   4.977  17.912  0.00  0.00    +0.000 Cl
ATOM     17  C   UNL     1       4.772   5.500  18.896  0.00  0.00    +0.000 A 
ENDBRANCH   2  10
BRANCH   6  18
ATOM     18  C   UNL     1       1.666  11.205  19.029  0.00  0.00    +0.000 C 
BRANCH  18  19
ATOM     19  N   UNL     1       0.982  12.292  19.748  0.00  0.00    +0.000 NA
ATOM     20  H   UNL     1       1.545  12.539  20.566  0.00  0.00    +0.000 HD
BRANCH  19  21
ATOM     21  C   UNL     1       0.793  13.489  18.913  0.00  0.00    +0.000 C 
BRANCH  21  22
ATOM     22  C   UNL     1       1.288  14.776  19.588  0.00  0.00    +0.000 C 
BRANCH  22  23
ATOM     23  O   UNL     1       0.267  15.771  19.567  0.00  0.00    +0.000 OA
BRANCH  23  24
ATOM     24  C   UNL     1       0.388  16.683  18.548  0.00  0.00    +0.000 A 
ATOM     25  C   UNL     1       1.688  16.885  18.094  0.00  0.00    +0.000 A 
ATOM     26  C   UNL     1       1.944  17.799  17.069  0.00  0.00    +0.000 A 
ATOM     27  C   UNL     1       0.893  18.499  16.480  0.00  0.00    +0.000 A 
ATOM     28  C   UNL     1      -0.413  18.281  16.911  0.00  0.00    +0.000 A 
ATOM     29  C   UNL     1      -0.667  17.374  17.941  0.00  0.00    +0.000 A 
ENDBRANCH  23  24
ENDBRANCH  22  23
ENDBRANCH  21  22
ENDBRANCH  19  21
ENDBRANCH  18  19
ENDBRANCH   6  18
TORSDOF 7
ENDMDL
