MODEL 1
REMARK VINA RESULT:      -9.4      0.000      0.000
REMARK  Name = 
REMARK  5 active torsions:
REMARK  status: ('A' for Active; 'I' for Inactive)
REMARK    1  A    between atoms: S_2  and  N_4
REMARK    2  A    between atoms: S_2  and  C_19
REMARK    3  A    between atoms: N_4  and  N_5
REMARK    4  A    between atoms: C_6  and  C_7
REMARK    5  A    between atoms: C_6  and  C_13
REMARK                            x       y       z     vdW  Elec       q    Type
REMARK                         _______ _______ _______ _____ _____    ______ ____
ROOT
ATOM      1  N   UNL     1       5.099   3.435  16.325  0.00  0.00    +0.000 NA
ATOM      2  C   UNL     1       6.005   4.295  15.947  0.00  0.00    +0.000 C 
ENDROOT
BRANCH   2   3
ATOM      3  C   UNL     1       6.740   5.243  16.863  0.00  0.00    +0.000 A 
ATOM      4  C   UNL     1       6.583   6.630  16.738  0.00  0.00    +0.000 A 
ATOM      5  C   UNL     1       7.250   7.504  17.595  0.00  0.00    +0.000 A 
ATOM      6  C   UNL     1       8.019   6.999  18.638  0.00  0.00    +0.000 A 
ATOM      7  C   UNL     1       8.153   5.622  18.801  0.00  0.00    +0.000 A 
ATOM      8  C   UNL     1       7.550   4.749  17.894  0.00  0.00    +0.000 A 
ENDBRANCH   2   3
BRANCH   2   9
ATOM      9  C   UNL     1       6.373   4.289  14.482  0.00  0.00    +0.000 A 
ATOM     10  C   UNL     1       7.428   5.091  14.026  0.00  0.00    +0.000 A 
ATOM     11  C   UNL     1       7.788   5.080  12.673  0.00  0.00    +0.000 A 
ATOM     12  C   UNL     1       7.103   4.268  11.770  0.00  0.00    +0.000 A 
ATOM     13  C   UNL     1       6.045   3.478  12.212  0.00  0.00    +0.000 A 
ATOM     14  C   UNL     1       5.668   3.504  13.556  0.00  0.00    +0.000 A 
ENDBRANCH   2   9
BRANCH   1  15
ATOM     15  N   UNL     1       4.673   3.415  17.703  0.00  0.00    +0.000 N 
ATOM     16  H   UNL     1       5.221   3.910  18.410  0.00  0.00    +0.000 HD
BRANCH  15  18
ATOM     17  O   UNL     1       2.290   2.958  16.843  0.00  0.00    +0.000 OA
ATOM     18  S   UNL     1       3.051   3.087  18.066  0.00  0.00    +0.000 S 
ATOM     19  O   UNL     1       3.012   2.048  19.078  0.00  0.00    +0.000 OA
BRANCH  18  20
ATOM     20  C   UNL     1       2.503   4.589  18.865  0.00  0.00    +0.000 A 
ATOM     21  C   UNL     1       2.949   5.813  18.349  0.00  0.00    +0.000 A 
ATOM     22  C   UNL     1       2.654   7.005  19.005  0.00  0.00    +0.000 A 
ATOM     23  C   UNL     1       1.909   6.980  20.180  0.00  0.00    +0.000 A 
ATOM     24 CL   UNL     1       1.583   8.447  21.017  0.00  0.00    +0.000 Cl
ATOM     25  C   UNL     1       1.437   5.771  20.687  0.00  0.00    +0.000 A 
ATOM     26  C   UNL     1       1.725   4.564  20.024  0.00  0.00    +0.000 A 
ATOM     27 CL   UNL     1       1.036   3.132  20.688  0.00  0.00    +0.000 Cl
ENDBRANCH  18  20
ENDBRANCH  15  18
ENDBRANCH   1  15
TORSDOF 5
ENDMDL
MODEL 2
REMARK VINA RESULT:      -9.4      0.079      1.340
REMARK  Name = 
REMARK  5 active torsions:
REMARK  status: ('A' for Active; 'I' for Inactive)
REMARK    1  A    between atoms: S_2  and  N_4
REMARK    2  A    between atoms: S_2  and  C_19
REMARK    3  A    between atoms: N_4  and  N_5
REMARK    4  A    between atoms: C_6  and  C_7
REMARK    5  A    between atoms: C_6  and  C_13
REMARK                            x       y       z     vdW  Elec       q    Type
REMARK                         _______ _______ _______ _____ _____    ______ ____
ROOT
ATOM      1  N   UNL     1       5.079   3.428  16.337  0.00  0.00    +0.000 NA
ATOM      2  C   UNL     1       5.972   4.309  15.978  0.00  0.00    +0.000 C 
ENDROOT
BRANCH   2   3
ATOM      3  C   UNL     1       6.656   5.282  16.908  0.00  0.00    +0.000 A 
ATOM      4  C   UNL     1       7.509   4.827  17.923  0.00  0.00    +0.000 A 
ATOM      5  C   UNL     1       8.153   5.726  18.772  0.00  0.00    +0.000 A 
ATOM      6  C   UNL     1       8.015   7.094  18.564  0.00  0.00    +0.000 A 
ATOM      7  C   UNL     1       7.203   7.564  17.534  0.00  0.00    +0.000 A 
ATOM      8  C   UNL     1       6.495   6.663  16.736  0.00  0.00    +0.000 A 
ENDBRANCH   2   3
BRANCH   2   9
ATOM      9  C   UNL     1       6.382   4.305  14.525  0.00  0.00    +0.000 A 
ATOM     10  C   UNL     1       5.701   3.488  13.612  0.00  0.00    +0.000 A 
ATOM     11  C   UNL     1       6.061   3.489  12.260  0.00  0.00    +0.000 A 
ATOM     12  C   UNL     1       7.098   4.306  11.809  0.00  0.00    +0.000 A 
ATOM     13  C   UNL     1       7.789   5.110  12.711  0.00  0.00    +0.000 A 
ATOM     14  C   UNL     1       7.447   5.094  14.065  0.00  0.00    +0.000 A 
ENDBRANCH   2   9
BRANCH   1  15
ATOM     15  N   UNL     1       4.615   3.405  17.702  0.00  0.00    +0.000 N 
ATOM     16  H   UNL     1       5.151   3.886  18.428  0.00  0.00    +0.000 HD
BRANCH  15  18
ATOM     17  O   UNL     1       2.243   3.029  16.776  0.00  0.00    +0.000 OA
ATOM     18  S   UNL     1       2.979   3.102  18.019  0.00  0.00    +0.000 S 
ATOM     19  O   UNL     1       2.894   2.031  18.995  0.00  0.00    +0.000 OA
BRANCH  18  20
ATOM     20  C   UNL     1       2.446   4.588  18.854  0.00  0.00    +0.000 A 
ATOM     21  C   UNL     1       2.855   5.823  18.334  0.00  0.00    +0.000 A 
ATOM     22  C   UNL     1       2.571   7.005  19.013  0.00  0.00    +0.000 A 
ATOM     23  C   UNL     1       1.875   6.959  20.218  0.00  0.00    +0.000 A 
ATOM     24 CL   UNL     1       1.566   8.414  21.082  0.00  0.00    +0.000 Cl
ATOM     25  C   UNL     1       1.440   5.739  20.731  0.00  0.00    +0.000 A 
ATOM     26  C   UNL     1       1.715   4.543  20.044  0.00  0.00    +0.000 A 
ATOM     27 CL   UNL     1       1.072   3.095  20.721  0.00  0.00    +0.000 Cl
ENDBRANCH  18  20
ENDBRANCH  15  18
ENDBRANCH   1  15
TORSDOF 5
ENDMDL
MODEL 3
REMARK VINA RESULT:      -9.1      3.235      7.218
REMARK  Name = 
REMARK  5 active torsions:
REMARK  status: ('A' for Active; 'I' for Inactive)
REMARK    1  A    between atoms: S_2  and  N_4
REMARK    2  A    between atoms: S_2  and  C_19
REMARK    3  A    between atoms: N_4  and  N_5
REMARK    4  A    between atoms: C_6  and  C_7
REMARK    5  A    between atoms: C_6  and  C_13
REMARK                            x       y       z     vdW  Elec       q    Type
REMARK                         _______ _______ _______ _____ _____    ______ ____
ROOT
ATOM      1  N   UNL     1       4.265   6.472  18.714  0.00  0.00    +0.000 NA
ATOM      2  C   UNL     1       3.028   6.355  19.114  0.00  0.00    +0.000 C 
ENDROOT
BRANCH   2   3
ATOM      3  C   UNL     1       2.387   5.077  19.596  0.00  0.00    +0.000 A 
ATOM      4  C   UNL     1       2.491   4.683  20.937  0.00  0.00    +0.000 A 
ATOM      5  C   UNL     1       1.886   3.509  21.386  0.00  0.00    +0.000 A 
ATOM      6  C   UNL     1       1.101   2.759  20.516  0.00  0.00    +0.000 A 
ATOM      7  C   UNL     1       0.955   3.159  19.189  0.00  0.00    +0.000 A 
ATOM      8  C   UNL     1       1.627   4.290  18.721  0.00  0.00    +0.000 A 
ENDBRANCH   2   3
BRANCH   2   9
ATOM      9  C   UNL     1       2.205   7.621  19.143  0.00  0.00    +0.000 A 
ATOM     10  C   UNL     1       2.015   8.355  17.964  0.00  0.00    +0.000 A 
ATOM     11  C   UNL     1       1.239   9.520  17.977  0.00  0.00    +0.000 A 
ATOM     12  C   UNL     1       0.646   9.957  19.161  0.00  0.00    +0.000 A 
ATOM     13  C   UNL     1       0.841   9.242  20.340  0.00  0.00    +0.000 A 
ATOM     14  C   UNL     1       1.633   8.092  20.335  0.00  0.00    +0.000 A 
ENDBRANCH   2   9
BRANCH   1  15
ATOM     15  N   UNL     1       5.095   5.295  18.626  0.00  0.00    +0.000 N 
ATOM     16  H   UNL     1       4.661   4.369  18.609  0.00  0.00    +0.000 HD
BRANCH  15  18
ATOM     17  O   UNL     1       7.013   6.824  17.845  0.00  0.00    +0.000 OA
ATOM     18  S   UNL     1       6.663   5.429  18.000  0.00  0.00    +0.000 S 
ATOM     19  O   UNL     1       7.527   4.525  18.737  0.00  0.00    +0.000 OA
BRANCH  18  20
ATOM     20  C   UNL     1       6.503   4.747  16.357  0.00  0.00    +0.000 A 
ATOM     21  C   UNL     1       7.347   5.238  15.351  0.00  0.00    +0.000 A 
ATOM     22  C   UNL     1       7.182   4.830  14.029  0.00  0.00    +0.000 A 
ATOM     23  C   UNL     1       6.173   3.928  13.706  0.00  0.00    +0.000 A 
ATOM     24 CL   UNL     1       5.938   3.460  12.068  0.00  0.00    +0.000 Cl
ATOM     25  C   UNL     1       5.346   3.412  14.702  0.00  0.00    +0.000 A 
ATOM     26  C   UNL     1       5.514   3.813  16.040  0.00  0.00    +0.000 A 
ATOM     27 CL   UNL     1       4.491   3.064  17.207  0.00  0.00    +0.000 Cl
ENDBRANCH  18  20
ENDBRANCH  15  18
ENDBRANCH   1  15
TORSDOF 5
ENDMDL
MODEL 4
REMARK VINA RESULT:      -9.1      3.233      7.197
REMARK  Name = 
REMARK  5 active torsions:
REMARK  status: ('A' for Active; 'I' for Inactive)
REMARK    1  A    between atoms: S_2  and  N_4
REMARK    2  A    between atoms: S_2  and  C_19
REMARK    3  A    between atoms: N_4  and  N_5
REMARK    4  A    between atoms: C_6  and  C_7
REMARK    5  A    between atoms: C_6  and  C_13
REMARK                            x       y       z     vdW  Elec       q    Type
REMARK                         _______ _______ _______ _____ _____    ______ ____
ROOT
ATOM      1  N   UNL     1       4.170   6.512  18.696  0.00  0.00    +0.000 NA
ATOM      2  C   UNL     1       2.935   6.411  19.106  0.00  0.00    +0.000 C 
ENDROOT
BRANCH   2   3
ATOM      3  C   UNL     1       2.288   5.145  19.611  0.00  0.00    +0.000 A 
ATOM      4  C   UNL     1       1.588   4.299  18.740  0.00  0.00    +0.000 A 
ATOM      5  C   UNL     1       1.003   3.122  19.204  0.00  0.00    +0.000 A 
ATOM      6  C   UNL     1       1.181   2.735  20.529  0.00  0.00    +0.000 A 
ATOM      7  C   UNL     1       1.909   3.545  21.398  0.00  0.00    +0.000 A 
ATOM      8  C   UNL     1       2.426   4.763  20.953  0.00  0.00    +0.000 A 
ENDBRANCH   2   3
BRANCH   2   9
ATOM      9  C   UNL     1       2.121   7.683  19.120  0.00  0.00    +0.000 A 
ATOM     10  C   UNL     1       1.537   8.123  20.316  0.00  0.00    +0.000 A 
ATOM     11  C   UNL     1       0.795   9.310  20.343  0.00  0.00    +0.000 A 
ATOM     12  C   UNL     1       0.635  10.065  19.182  0.00  0.00    +0.000 A 
ATOM     13  C   UNL     1       1.200   9.629  17.987  0.00  0.00    +0.000 A 
ATOM     14  C   UNL     1       1.922   8.434  17.951  0.00  0.00    +0.000 A 
ENDBRANCH   2   9
BRANCH   1  15
ATOM     15  N   UNL     1       4.990   5.328  18.621  0.00  0.00    +0.000 N 
ATOM     16  H   UNL     1       4.549   4.406  18.596  0.00  0.00    +0.000 HD
BRANCH  15  18
ATOM     17  O   UNL     1       6.931   6.840  17.864  0.00  0.00    +0.000 OA
ATOM     18  S   UNL     1       6.570   5.448  18.021  0.00  0.00    +0.000 S 
ATOM     19  O   UNL     1       7.415   4.543  18.777  0.00  0.00    +0.000 OA
BRANCH  18  20
ATOM     20  C   UNL     1       6.434   4.757  16.379  0.00  0.00    +0.000 A 
ATOM     21  C   UNL     1       7.287   5.247  15.381  0.00  0.00    +0.000 A 
ATOM     22  C   UNL     1       7.140   4.832  14.060  0.00  0.00    +0.000 A 
ATOM     23  C   UNL     1       6.140   3.924  13.729  0.00  0.00    +0.000 A 
ATOM     24 CL   UNL     1       5.927   3.447  12.090  0.00  0.00    +0.000 Cl
ATOM     25  C   UNL     1       5.303   3.409  14.717  0.00  0.00    +0.000 A 
ATOM     26  C   UNL     1       5.453   3.817  16.055  0.00  0.00    +0.000 A 
ATOM     27 CL   UNL     1       4.419   3.070  17.213  0.00  0.00    +0.000 Cl
ENDBRANCH  18  20
ENDBRANCH  15  18
ENDBRANCH   1  15
TORSDOF 5
ENDMDL
MODEL 5
REMARK VINA RESULT:      -8.8      1.065      1.465
REMARK  Name = 
REMARK  5 active torsions:
REMARK  status: ('A' for Active; 'I' for Inactive)
REMARK    1  A    between atoms: S_2  and  N_4
REMARK    2  A    between atoms: S_2  and  C_19
REMARK    3  A    between atoms: N_4  and  N_5
REMARK    4  A    between atoms: C_6  and  C_7
REMARK    5  A    between atoms: C_6  and  C_13
REMARK                            x       y       z     vdW  Elec       q    Type
REMARK                         _______ _______ _______ _____ _____    ______ ____
ROOT
ATOM      1  N   UNL     1       5.096   3.580  16.334  0.00  0.00    +0.000 NA
ATOM      2  C   UNL     1       6.052   4.391  15.972  0.00  0.00    +0.000 C 
ENDROOT
BRANCH   2   3
ATOM      3  C   UNL     1       6.818   5.301  16.902  0.00  0.00    +0.000 A 
ATOM      4  C   UNL     1       6.820   6.689  16.707  0.00  0.00    +0.000 A 
ATOM      5  C   UNL     1       7.515   7.531  17.574  0.00  0.00    +0.000 A 
ATOM      6  C   UNL     1       8.149   7.001  18.694  0.00  0.00    +0.000 A 
ATOM      7  C   UNL     1       8.123   5.627  18.923  0.00  0.00    +0.000 A 
ATOM      8  C   UNL     1       7.495   4.777  18.011  0.00  0.00    +0.000 A 
ENDBRANCH   2   3
BRANCH   2   9
ATOM      9  C   UNL     1       6.447   4.364  14.515  0.00  0.00    +0.000 A 
ATOM     10  C   UNL     1       7.496   5.175  14.062  0.00  0.00    +0.000 A 
ATOM     11  C   UNL     1       7.880   5.144  12.717  0.00  0.00    +0.000 A 
ATOM     12  C   UNL     1       7.225   4.303  11.817  0.00  0.00    +0.000 A 
ATOM     13  C   UNL     1       6.173   3.504  12.255  0.00  0.00    +0.000 A 
ATOM     14  C   UNL     1       5.772   3.549  13.592  0.00  0.00    +0.000 A 
ENDBRANCH   2   9
BRANCH   1  15
ATOM     15  N   UNL     1       4.644   3.584  17.704  0.00  0.00    +0.000 N 
ATOM     16  H   UNL     1       5.213   4.034  18.424  0.00  0.00    +0.000 HD
BRANCH  15  18
ATOM     17  O   UNL     1       2.230   3.494  16.815  0.00  0.00    +0.000 OA
ATOM     18  S   UNL     1       2.996   3.375  18.036  0.00  0.00    +0.000 S 
ATOM     19  O   UNL     1       2.847   2.215  18.895  0.00  0.00    +0.000 OA
BRANCH  18  20
ATOM     20  C   UNL     1       2.601   4.799  19.040  0.00  0.00    +0.000 A 
ATOM     21  C   UNL     1       2.020   4.583  20.297  0.00  0.00    +0.000 A 
ATOM     22  C   UNL     1       1.580   5.657  21.066  0.00  0.00    +0.000 A 
ATOM     23  C   UNL     1       1.720   6.954  20.584  0.00  0.00    +0.000 A 
ATOM     24 CL   UNL     1       1.135   8.279  21.512  0.00  0.00    +0.000 Cl
ATOM     25  C   UNL     1       2.321   7.184  19.348  0.00  0.00    +0.000 A 
ATOM     26  C   UNL     1       2.776   6.103  18.570  0.00  0.00    +0.000 A 
ATOM     27 CL   UNL     1       3.569   6.492  17.092  0.00  0.00    +0.000 Cl
ENDBRANCH  18  20
ENDBRANCH  15  18
ENDBRANCH   1  15
TORSDOF 5
ENDMDL
MODEL 6
REMARK VINA RESULT:      -8.7      3.921      6.013
REMARK  Name = 
REMARK  5 active torsions:
REMARK  status: ('A' for Active; 'I' for Inactive)
REMARK    1  A    between atoms: S_2  and  N_4
REMARK    2  A    between atoms: S_2  and  C_19
REMARK    3  A    between atoms: N_4  and  N_5
REMARK    4  A    between atoms: C_6  and  C_7
REMARK    5  A    between atoms: C_6  and  C_13
REMARK                            x       y       z     vdW  Elec       q    Type
REMARK                         _______ _______ _______ _____ _____    ______ ____
ROOT
ATOM      1  N   UNL     1       3.147   7.534  18.207  0.00  0.00    +0.000 NA
ATOM      2  C   UNL     1       3.407   6.257  18.275  0.00  0.00    +0.000 C 
ENDROOT
BRANCH   2   3
ATOM      3  C   UNL     1       2.492   5.214  18.869  0.00  0.00    +0.000 A 
ATOM      4  C   UNL     1       1.865   4.261  18.055  0.00  0.00    +0.000 A 
ATOM      5  C   UNL     1       1.031   3.288  18.605  0.00  0.00    +0.000 A 
ATOM      6  C   UNL     1       0.881   3.206  19.986  0.00  0.00    +0.000 A 
ATOM      7  C   UNL     1       1.530   4.121  20.812  0.00  0.00    +0.000 A 
ATOM      8  C   UNL     1       2.299   5.144  20.255  0.00  0.00    +0.000 A 
ENDBRANCH   2   3
BRANCH   2   9
ATOM      9  C   UNL     1       4.706   5.797  17.657  0.00  0.00    +0.000 A 
ATOM     10  C   UNL     1       5.693   5.215  18.463  0.00  0.00    +0.000 A 
ATOM     11  C   UNL     1       6.894   4.770  17.897  0.00  0.00    +0.000 A 
ATOM     12  C   UNL     1       7.115   4.899  16.526  0.00  0.00    +0.000 A 
ATOM     13  C   UNL     1       6.145   5.489  15.720  0.00  0.00    +0.000 A 
ATOM     14  C   UNL     1       4.956   5.955  16.285  0.00  0.00    +0.000 A 
ENDBRANCH   2   9
BRANCH   1  15
ATOM     15  N   UNL     1       1.942   8.044  18.813  0.00  0.00    +0.000 N 
ATOM     16  H   UNL     1       1.664   7.720  19.741  0.00  0.00    +0.000 HD
BRANCH  15  18
ATOM     17  O   UNL     1       2.393  10.426  17.947  0.00  0.00    +0.000 OA
ATOM     18  S   UNL     1       1.312   9.528  18.288  0.00  0.00    +0.000 S 
ATOM     19  O   UNL     1       0.243   9.261  17.344  0.00  0.00    +0.000 OA
BRANCH  18  20
ATOM     20  C   UNL     1       0.535  10.180  19.759  0.00  0.00    +0.000 A 
ATOM     21  C   UNL     1       0.515   9.379  20.908  0.00  0.00    +0.000 A 
ATOM     22  C   UNL     1      -0.183   9.787  22.042  0.00  0.00    +0.000 A 
ATOM     23  C   UNL     1      -0.865  11.000  22.033  0.00  0.00    +0.000 A 
ATOM     24 CL   UNL     1      -1.766  11.484  23.416  0.00  0.00    +0.000 Cl
ATOM     25  C   UNL     1      -0.828  11.818  20.905  0.00  0.00    +0.000 A 
ATOM     26  C   UNL     1      -0.117  11.415  19.761  0.00  0.00    +0.000 A 
ATOM     27 CL   UNL     1      -0.072  12.527  18.445  0.00  0.00    +0.000 Cl
ENDBRANCH  18  20
ENDBRANCH  15  18
ENDBRANCH   1  15
TORSDOF 5
ENDMDL
MODEL 7
REMARK VINA RESULT:      -8.7      1.223      1.814
REMARK  Name = 
REMARK  5 active torsions:
REMARK  status: ('A' for Active; 'I' for Inactive)
REMARK    1  A    between atoms: S_2  and  N_4
REMARK    2  A    between atoms: S_2  and  C_19
REMARK    3  A    between atoms: N_4  and  N_5
REMARK    4  A    between atoms: C_6  and  C_7
REMARK    5  A    between atoms: C_6  and  C_13
REMARK                            x       y       z     vdW  Elec       q    Type
REMARK                         _______ _______ _______ _____ _____    ______ ____
ROOT
ATOM      1  N   UNL     1       4.920   3.857  16.510  0.00  0.00    +0.000 NA
ATOM      2  C   UNL     1       5.951   4.561  16.127  0.00  0.00    +0.000 C 
ENDROOT
BRANCH   2   3
ATOM      3  C   UNL     1       6.785   5.441  17.027  0.00  0.00    +0.000 A 
ATOM      4  C   UNL     1       6.850   6.825  16.817  0.00  0.00    +0.000 A 
ATOM      5  C   UNL     1       7.608   7.640  17.657  0.00  0.00    +0.000 A 
ATOM      6  C   UNL     1       8.245   7.089  18.766  0.00  0.00    +0.000 A 
ATOM      7  C   UNL     1       8.156   5.721  19.011  0.00  0.00    +0.000 A 
ATOM      8  C   UNL     1       7.464   4.894  18.124  0.00  0.00    +0.000 A 
ENDBRANCH   2   3
BRANCH   2   9
ATOM      9  C   UNL     1       6.359   4.431  14.679  0.00  0.00    +0.000 A 
ATOM     10  C   UNL     1       5.635   3.588  13.825  0.00  0.00    +0.000 A 
ATOM     11  C   UNL     1       5.994   3.474  12.477  0.00  0.00    +0.000 A 
ATOM     12  C   UNL     1       7.073   4.201  11.973  0.00  0.00    +0.000 A 
ATOM     13  C   UNL     1       7.806   5.029  12.817  0.00  0.00    +0.000 A 
ATOM     14  C   UNL     1       7.464   5.128  14.168  0.00  0.00    +0.000 A 
ENDBRANCH   2   9
BRANCH   1  15
ATOM     15  N   UNL     1       4.455   3.965  17.871  0.00  0.00    +0.000 N 
ATOM     16  H   UNL     1       5.012   4.477  18.558  0.00  0.00    +0.000 HD
BRANCH  15  18
ATOM     17  O   UNL     1       2.044   3.851  16.976  0.00  0.00    +0.000 OA
ATOM     18  S   UNL     1       2.805   3.765  18.203  0.00  0.00    +0.000 S 
ATOM     19  O   UNL     1       2.654   2.628  19.093  0.00  0.00    +0.000 OA
BRANCH  18  20
ATOM     20  C   UNL     1       2.407   5.216  19.166  0.00  0.00    +0.000 A 
ATOM     21  C   UNL     1       1.770   5.036  20.401  0.00  0.00    +0.000 A 
ATOM     22  C   UNL     1       1.327   6.134  21.135  0.00  0.00    +0.000 A 
ATOM     23  C   UNL     1       1.521   7.419  20.638  0.00  0.00    +0.000 A 
ATOM     24 CL   UNL     1       0.933   8.774  21.519  0.00  0.00    +0.000 Cl
ATOM     25  C   UNL     1       2.178   7.611  19.424  0.00  0.00    +0.000 A 
ATOM     26  C   UNL     1       2.636   6.506  18.683  0.00  0.00    +0.000 A 
ATOM     27 CL   UNL     1       3.500   6.850  17.233  0.00  0.00    +0.000 Cl
ENDBRANCH  18  20
ENDBRANCH  15  18
ENDBRANCH   1  15
TORSDOF 5
ENDMDL
MODEL 8
REMARK VINA RESULT:      -8.6      3.801      5.908
REMARK  Name = 
REMARK  5 active torsions:
REMARK  status: ('A' for Active; 'I' for Inactive)
REMARK    1  A    between atoms: S_2  and  N_4
REMARK    2  A    between atoms: S_2  and  C_19
REMARK    3  A    between atoms: N_4  and  N_5
REMARK    4  A    between atoms: C_6  and  C_7
REMARK    5  A    between atoms: C_6  and  C_13
REMARK                            x       y       z     vdW  Elec       q    Type
REMARK                         _______ _______ _______ _____ _____    ______ ____
ROOT
ATOM      1  N   UNL     1       3.225   7.332  18.091  0.00  0.00    +0.000 NA
ATOM      2  C   UNL     1       3.514   6.066  18.218  0.00  0.00    +0.000 C 
ENDROOT
BRANCH   2   3
ATOM      3  C   UNL     1       2.632   5.034  18.878  0.00  0.00    +0.000 A 
ATOM      4  C   UNL     1       2.463   5.018  20.269  0.00  0.00    +0.000 A 
ATOM      5  C   UNL     1       1.637   4.074  20.878  0.00  0.00    +0.000 A 
ATOM      6  C   UNL     1       0.905   3.187  20.094  0.00  0.00    +0.000 A 
ATOM      7  C   UNL     1       1.030   3.217  18.707  0.00  0.00    +0.000 A 
ATOM      8  C   UNL     1       1.920   4.108  18.104  0.00  0.00    +0.000 A 
ENDBRANCH   2   3
BRANCH   2   9
ATOM      9  C   UNL     1       4.814   5.604  17.602  0.00  0.00    +0.000 A 
ATOM     10  C   UNL     1       4.947   5.562  16.208  0.00  0.00    +0.000 A 
ATOM     11  C   UNL     1       6.153   5.152  15.627  0.00  0.00    +0.000 A 
ATOM     12  C   UNL     1       7.232   4.787  16.431  0.00  0.00    +0.000 A 
ATOM     13  C   UNL     1       7.104   4.813  17.817  0.00  0.00    +0.000 A 
ATOM     14  C   UNL     1       5.895   5.199  18.400  0.00  0.00    +0.000 A 
ENDBRANCH   2   9
BRANCH   1  15
ATOM     15  N   UNL     1       2.017   7.845  18.691  0.00  0.00    +0.000 N 
ATOM     16  H   UNL     1       1.712   7.491  19.600  0.00  0.00    +0.000 HD
BRANCH  15  18
ATOM     17  O   UNL     1       2.539  10.238  17.899  0.00  0.00    +0.000 OA
ATOM     18  S   UNL     1       1.432   9.362  18.213  0.00  0.00    +0.000 S 
ATOM     19  O   UNL     1       0.356   9.156  17.261  0.00  0.00    +0.000 OA
BRANCH  18  20
ATOM     20  C   UNL     1       0.675   9.992  19.703  0.00  0.00    +0.000 A 
ATOM     21  C   UNL     1       0.639   9.160  20.830  0.00  0.00    +0.000 A 
ATOM     22  C   UNL     1      -0.046   9.553  21.977  0.00  0.00    +0.000 A 
ATOM     23  C   UNL     1      -0.700  10.781  22.003  0.00  0.00    +0.000 A 
ATOM     24 CL   UNL     1      -1.586  11.247  23.402  0.00  0.00    +0.000 Cl
ATOM     25  C   UNL     1      -0.649  11.628  20.898  0.00  0.00    +0.000 A 
ATOM     26  C   UNL     1       0.050  11.241  19.740  0.00  0.00    +0.000 A 
ATOM     27 CL   UNL     1       0.117  12.386  18.455  0.00  0.00    +0.000 Cl
ENDBRANCH  18  20
ENDBRANCH  15  18
ENDBRANCH   1  15
TORSDOF 5
ENDMDL
MODEL 9
REMARK VINA RESULT:      -8.5      3.968      7.332
REMARK  Name = 
REMARK  5 active torsions:
REMARK  status: ('A' for Active; 'I' for Inactive)
REMARK    1  A    between atoms: S_2  and  N_4
REMARK    2  A    between atoms: S_2  and  C_19
REMARK    3  A    between atoms: N_4  and  N_5
REMARK    4  A    between atoms: C_6  and  C_7
REMARK    5  A    between atoms: C_6  and  C_13
REMARK                            x       y       z     vdW  Elec       q    Type
REMARK                         _______ _______ _______ _____ _____    ______ ____
ROOT
ATOM      1  N   UNL     1       4.967   6.223  17.936  0.00  0.00    +0.000 NA
ATOM      2  C   UNL     1       3.747   5.983  18.334  0.00  0.00    +0.000 C 
ENDROOT
BRANCH   2   3
ATOM      3  C   UNL     1       3.180   4.614  18.622  0.00  0.00    +0.000 A 
ATOM      4  C   UNL     1       3.431   3.975  19.843  0.00  0.00    +0.000 A 
ATOM      5  C   UNL     1       2.895   2.717  20.115  0.00  0.00    +0.000 A 
ATOM      6  C   UNL     1       2.033   2.119  19.201  0.00  0.00    +0.000 A 
ATOM      7  C   UNL     1       1.740   2.760  17.999  0.00  0.00    +0.000 A 
ATOM      8  C   UNL     1       2.342   3.982  17.693  0.00  0.00    +0.000 A 
ENDBRANCH   2   3
BRANCH   2   9
ATOM      9  C   UNL     1       2.864   7.185  18.571  0.00  0.00    +0.000 A 
ATOM     10  C   UNL     1       2.215   7.339  19.803  0.00  0.00    +0.000 A 
ATOM     11  C   UNL     1       1.408   8.459  20.039  0.00  0.00    +0.000 A 
ATOM     12  C   UNL     1       1.248   9.431  19.052  0.00  0.00    +0.000 A 
ATOM     13  C   UNL     1       1.878   9.279  17.821  0.00  0.00    +0.000 A 
ATOM     14  C   UNL     1       2.666   8.152  17.573  0.00  0.00    +0.000 A 
ENDBRANCH   2   9
BRANCH   1  15
ATOM     15  N   UNL     1       5.849   5.118  17.653  0.00  0.00    +0.000 N 
ATOM     16  H   UNL     1       5.530   4.160  17.813  0.00  0.00    +0.000 HD
BRANCH  15  18
ATOM     17  O   UNL     1       7.398   6.749  16.403  0.00  0.00    +0.000 OA
ATOM     18  S   UNL     1       7.135   5.337  16.572  0.00  0.00    +0.000 S 
ATOM     19  O   UNL     1       8.201   4.423  16.939  0.00  0.00    +0.000 OA
BRANCH  18  20
ATOM     20  C   UNL     1       6.470   4.741  15.025  0.00  0.00    +0.000 A 
ATOM     21  C   UNL     1       5.223   4.102  15.043  0.00  0.00    +0.000 A 
ATOM     22  C   UNL     1       4.715   3.511  13.889  0.00  0.00    +0.000 A 
ATOM     23  C   UNL     1       5.452   3.556  12.709  0.00  0.00    +0.000 A 
ATOM     24 CL   UNL     1       4.848   2.785  11.295  0.00  0.00    +0.000 Cl
ATOM     25  C   UNL     1       6.681   4.212  12.673  0.00  0.00    +0.000 A 
ATOM     26  C   UNL     1       7.194   4.820  13.833  0.00  0.00    +0.000 A 
ATOM     27 CL   UNL     1       8.684   5.668  13.669  0.00  0.00    +0.000 Cl
ENDBRANCH  18  20
ENDBRANCH  15  18
ENDBRANCH   1  15
TORSDOF 5
ENDMDL
