MODEL 1
REMARK VINA RESULT:      -8.0      0.000      0.000
REMARK  Name = 
REMARK  7 active torsions:
REMARK  status: ('A' for Active; 'I' for Inactive)
REMARK    1  A    between atoms: C_1  and  C_2
REMARK    2  A    between atoms: C_11  and  N_12
REMARK    3  A    between atoms: C_13  and  C_14
REMARK    4  A    between atoms: C_17  and  S_18
REMARK    5  A    between atoms: S_18  and  C_19
REMARK    6  A    between atoms: C_19  and  C_20
REMARK    7  A    between atoms: N_22  and  C_23
REMARK                            x       y       z     vdW  Elec       q    Type
REMARK                         _______ _______ _______ _____ _____    ______ ____
ROOT
ATOM      1  N   UNL     1      -0.683  12.309  20.567  0.00  0.00    +0.000 N 
ATOM      2  C   UNL     1       0.229  13.385  20.580  0.00  0.00    +0.000 A 
ATOM      3  C   UNL     1       0.027  14.783  20.101  0.00  0.00    +0.000 C 
ATOM      4  N   UNL     1       1.398  12.974  21.047  0.00  0.00    +0.000 NA
ATOM      5  N   UNL     1       1.348  11.634  21.237  0.00  0.00    +0.000 NA
ATOM      6  C   UNL     1       0.140  11.221  20.911  0.00  0.00    +0.000 A 
ENDROOT
BRANCH   1  17
ATOM      7  C   UNL     1      -2.853  13.328  22.635  0.00  0.00    +0.000 C 
ATOM      8  C   UNL     1      -3.074  12.795  21.246  0.00  0.00    +0.000 A 
ATOM      9  C   UNL     1      -4.446  12.729  20.931  0.00  0.00    +0.000 A 
ATOM     10  C   UNL     1      -4.899  12.201  19.740  0.00  0.00    +0.000 A 
ATOM     11  C   UNL     1      -4.002  11.788  18.770  0.00  0.00    +0.000 A 
ATOM     12  C   UNL     1      -4.541  11.249  17.594  0.00  0.00    +0.000 A 
ATOM     13  C   UNL     1      -3.721  10.842  16.553  0.00  0.00    +0.000 A 
ATOM     14  C   UNL     1      -2.358  11.053  16.654  0.00  0.00    +0.000 A 
ATOM     15  C   UNL     1      -1.818  11.630  17.814  0.00  0.00    +0.000 A 
ATOM     16  C   UNL     1      -2.597  11.927  18.973  0.00  0.00    +0.000 A 
ATOM     17  C   UNL     1      -2.116  12.377  20.276  0.00  0.00    +0.000 A 
ENDBRANCH   1  17
BRANCH   6  18
ATOM     18  S   UNL     1      -0.333   9.567  21.064  0.00  0.00    +0.000 S 
BRANCH  18  19
ATOM     19  C   UNL     1       1.140   8.641  21.513  0.00  0.00    +0.000 C 
BRANCH  19  20
ATOM     20  C   UNL     1       1.686   8.034  20.249  0.00  0.00    +0.000 C 
ATOM     21  O   UNL     1       1.557   8.591  19.163  0.00  0.00    +0.000 OA
ATOM     22  N   UNL     1       2.213   6.768  20.461  0.00  0.00    +0.000 N 
ATOM     23  H   UNL     1       1.755   6.259  21.222  0.00  0.00    +0.000 HD
BRANCH  22  24
ATOM     24  C   UNL     1       2.672   5.993  19.384  0.00  0.00    +0.000 A 
ATOM     25  C   UNL     1       3.535   6.633  18.481  0.00  0.00    +0.000 A 
ATOM     26  C   UNL     1       4.098   5.910  17.435  0.00  0.00    +0.000 A 
ATOM     27  C   UNL     1       3.793   4.559  17.270  0.00  0.00    +0.000 A 
ATOM     28  C   UNL     1       2.897   3.931  18.139  0.00  0.00    +0.000 A 
ATOM     29  C   UNL     1       2.318   4.649  19.185  0.00  0.00    +0.000 A 
ATOM     30 BR   UNL     1       0.978   3.767  20.210  0.00  0.00    +0.000 Br
ENDBRANCH  22  24
ENDBRANCH  19  20
ENDBRANCH  18  19
ENDBRANCH   6  18
TORSDOF 5
ENDMDL
MODEL 2
REMARK VINA RESULT:      -8.0      1.419      1.734
REMARK  Name = 
REMARK  7 active torsions:
REMARK  status: ('A' for Active; 'I' for Inactive)
REMARK    1  A    between atoms: C_1  and  C_2
REMARK    2  A    between atoms: C_11  and  N_12
REMARK    3  A    between atoms: C_13  and  C_14
REMARK    4  A    between atoms: C_17  and  S_18
REMARK    5  A    between atoms: S_18  and  C_19
REMARK    6  A    between atoms: C_19  and  C_20
REMARK    7  A    between atoms: N_22  and  C_23
REMARK                            x       y       z     vdW  Elec       q    Type
REMARK                         _______ _______ _______ _____ _____    ______ ____
ROOT
ATOM      1  N   UNL     1      -0.445  12.786  20.291  0.00  0.00    +0.000 N 
ATOM      2  C   UNL     1       0.460  13.804  19.922  0.00  0.00    +0.000 A 
ATOM      3  C   UNL     1       0.280  14.890  18.916  0.00  0.00    +0.000 C 
ATOM      4  N   UNL     1       1.602  13.645  20.574  0.00  0.00    +0.000 NA
ATOM      5  N   UNL     1       1.547  12.490  21.279  0.00  0.00    +0.000 NA
ATOM      6  C   UNL     1       0.362  11.948  21.083  0.00  0.00    +0.000 A 
ENDROOT
BRANCH   1  17
ATOM      7  C   UNL     1      -2.741  14.456  21.692  0.00  0.00    +0.000 C 
ATOM      8  C   UNL     1      -2.876  13.423  20.607  0.00  0.00    +0.000 A 
ATOM      9  C   UNL     1      -4.226  13.199  20.272  0.00  0.00    +0.000 A 
ATOM     10  C   UNL     1      -4.603  12.240  19.355  0.00  0.00    +0.000 A 
ATOM     11  C   UNL     1      -3.647  11.513  18.667  0.00  0.00    +0.000 A 
ATOM     12  C   UNL     1      -4.111  10.547  17.764  0.00  0.00    +0.000 A 
ATOM     13  C   UNL     1      -3.228   9.795  17.004  0.00  0.00    +0.000 A 
ATOM     14  C   UNL     1      -1.875  10.070  17.086  0.00  0.00    +0.000 A 
ATOM     15  C   UNL     1      -1.409  11.066  17.959  0.00  0.00    +0.000 A 
ATOM     16  C   UNL     1      -2.258  11.762  18.872  0.00  0.00    +0.000 A 
ATOM     17  C   UNL     1      -1.858  12.694  19.923  0.00  0.00    +0.000 A 
ENDBRANCH   1  17
BRANCH   6  18
ATOM     18  S   UNL     1      -0.111  10.478  21.857  0.00  0.00    +0.000 S 
BRANCH  18  19
ATOM     19  C   UNL     1       1.338   9.416  21.892  0.00  0.00    +0.000 C 
BRANCH  19  20
ATOM     20  C   UNL     1       1.186   8.421  20.774  0.00  0.00    +0.000 C 
ATOM     21  O   UNL     1       0.355   8.577  19.885  0.00  0.00    +0.000 OA
ATOM     22  N   UNL     1       1.988   7.302  20.956  0.00  0.00    +0.000 N 
ATOM     23  H   UNL     1       2.156   7.078  21.941  0.00  0.00    +0.000 HD
BRANCH  22  24
ATOM     24  C   UNL     1       1.906   6.211  20.076  0.00  0.00    +0.000 A 
ATOM     25  C   UNL     1       1.416   5.013  20.614  0.00  0.00    +0.000 A 
ATOM     26  C   UNL     1       1.227   3.911  19.786  0.00  0.00    +0.000 A 
ATOM     27  C   UNL     1       1.542   3.989  18.429  0.00  0.00    +0.000 A 
ATOM     28  C   UNL     1       2.076   5.167  17.900  0.00  0.00    +0.000 A 
ATOM     29  C   UNL     1       2.279   6.274  18.723  0.00  0.00    +0.000 A 
ATOM     30 BR   UNL     1       3.172   7.773  17.961  0.00  0.00    +0.000 Br
ENDBRANCH  22  24
ENDBRANCH  19  20
ENDBRANCH  18  19
ENDBRANCH   6  18
TORSDOF 5
ENDMDL
MODEL 3
REMARK VINA RESULT:      -7.9      0.837      2.857
REMARK  Name = 
REMARK  7 active torsions:
REMARK  status: ('A' for Active; 'I' for Inactive)
REMARK    1  A    between atoms: C_1  and  C_2
REMARK    2  A    between atoms: C_11  and  N_12
REMARK    3  A    between atoms: C_13  and  C_14
REMARK    4  A    between atoms: C_17  and  S_18
REMARK    5  A    between atoms: S_18  and  C_19
REMARK    6  A    between atoms: C_19  and  C_20
REMARK    7  A    between atoms: N_22  and  C_23
REMARK                            x       y       z     vdW  Elec       q    Type
REMARK                         _______ _______ _______ _____ _____    ______ ____
ROOT
ATOM      1  N   UNL     1      -0.813  12.287  20.969  0.00  0.00    +0.000 N 
ATOM      2  C   UNL     1       0.002  13.424  21.157  0.00  0.00    +0.000 A 
ATOM      3  C   UNL     1      -0.346  14.861  20.960  0.00  0.00    +0.000 C 
ATOM      4  N   UNL     1       1.224  13.047  21.498  0.00  0.00    +0.000 NA
ATOM      5  N   UNL     1       1.301  11.696  21.431  0.00  0.00    +0.000 NA
ATOM      6  C   UNL     1       0.119  11.238  21.073  0.00  0.00    +0.000 A 
ENDROOT
BRANCH   1  17
ATOM      7  C   UNL     1      -2.146  11.873  18.127  0.00  0.00    +0.000 C 
ATOM      8  C   UNL     1      -2.828  12.132  19.443  0.00  0.00    +0.000 A 
ATOM      9  C   UNL     1      -4.224  12.239  19.288  0.00  0.00    +0.000 A 
ATOM     10  C   UNL     1      -5.057  12.550  20.343  0.00  0.00    +0.000 A 
ATOM     11  C   UNL     1      -4.545  12.690  21.622  0.00  0.00    +0.000 A 
ATOM     12  C   UNL     1      -5.452  13.022  22.636  0.00  0.00    +0.000 A 
ATOM     13  C   UNL     1      -5.037  13.148  23.953  0.00  0.00    +0.000 A 
ATOM     14  C   UNL     1      -3.723  12.859  24.271  0.00  0.00    +0.000 A 
ATOM     15  C   UNL     1      -2.820  12.485  23.262  0.00  0.00    +0.000 A 
ATOM     16  C   UNL     1      -3.156  12.487  21.875  0.00  0.00    +0.000 A 
ATOM     17  C   UNL     1      -2.259  12.272  20.743  0.00  0.00    +0.000 A 
ENDBRANCH   1  17
BRANCH   6  18
ATOM     18  S   UNL     1      -0.199   9.547  20.922  0.00  0.00    +0.000 S 
BRANCH  18  19
ATOM     19  C   UNL     1       1.324   8.690  21.338  0.00  0.00    +0.000 C 
BRANCH  19  20
ATOM     20  C   UNL     1       1.810   8.014  20.084  0.00  0.00    +0.000 C 
ATOM     21  O   UNL     1       1.621   8.507  18.976  0.00  0.00    +0.000 OA
ATOM     22  N   UNL     1       2.357   6.765  20.340  0.00  0.00    +0.000 N 
ATOM     23  H   UNL     1       1.943   6.297  21.151  0.00  0.00    +0.000 HD
BRANCH  22  24
ATOM     24  C   UNL     1       2.767   5.932  19.286  0.00  0.00    +0.000 A 
ATOM     25  C   UNL     1       3.641   6.501  18.348  0.00  0.00    +0.000 A 
ATOM     26  C   UNL     1       4.158   5.717  17.322  0.00  0.00    +0.000 A 
ATOM     27  C   UNL     1       3.795   4.375  17.212  0.00  0.00    +0.000 A 
ATOM     28  C   UNL     1       2.887   3.817  18.117  0.00  0.00    +0.000 A 
ATOM     29  C   UNL     1       2.355   4.597  19.143  0.00  0.00    +0.000 A 
ATOM     30 BR   UNL     1       0.997   3.810  20.220  0.00  0.00    +0.000 Br
ENDBRANCH  22  24
ENDBRANCH  19  20
ENDBRANCH  18  19
ENDBRANCH   6  18
TORSDOF 5
ENDMDL
MODEL 4
REMARK VINA RESULT:      -7.8      3.217      7.743
REMARK  Name = 
REMARK  7 active torsions:
REMARK  status: ('A' for Active; 'I' for Inactive)
REMARK    1  A    between atoms: C_1  and  C_2
REMARK    2  A    between atoms: C_11  and  N_12
REMARK    3  A    between atoms: C_13  and  C_14
REMARK    4  A    between atoms: C_17  and  S_18
REMARK    5  A    between atoms: S_18  and  C_19
REMARK    6  A    between atoms: C_19  and  C_20
REMARK    7  A    between atoms: N_22  and  C_23
REMARK                            x       y       z     vdW  Elec       q    Type
REMARK                         _______ _______ _______ _____ _____    ______ ____
ROOT
ATOM      1  N   UNL     1      -0.184  11.541  19.410  0.00  0.00    +0.000 N 
ATOM      2  C   UNL     1       0.452  12.800  19.430  0.00  0.00    +0.000 A 
ATOM      3  C   UNL     1       1.498  13.300  20.369  0.00  0.00    +0.000 C 
ATOM      4  N   UNL     1      -0.061  13.575  18.487  0.00  0.00    +0.000 NA
ATOM      5  N   UNL     1      -1.102  12.931  17.908  0.00  0.00    +0.000 NA
ATOM      6  C   UNL     1      -1.217  11.748  18.477  0.00  0.00    +0.000 A 
ENDROOT
BRANCH   1  17
ATOM      7  C   UNL     1      -0.895  11.124  22.468  0.00  0.00    +0.000 C 
ATOM      8  C   UNL     1      -0.098  10.218  21.569  0.00  0.00    +0.000 A 
ATOM      9  C   UNL     1       0.396   9.100  22.269  0.00  0.00    +0.000 A 
ATOM     10  C   UNL     1       1.218   8.167  21.673  0.00  0.00    +0.000 A 
ATOM     11  C   UNL     1       1.524   8.261  20.326  0.00  0.00    +0.000 A 
ATOM     12  C   UNL     1       2.378   7.283  19.799  0.00  0.00    +0.000 A 
ATOM     13  C   UNL     1       2.711   7.275  18.453  0.00  0.00    +0.000 A 
ATOM     14  C   UNL     1       2.119   8.200  17.613  0.00  0.00    +0.000 A 
ATOM     15  C   UNL     1       1.230   9.156  18.130  0.00  0.00    +0.000 A 
ATOM     16  C   UNL     1       0.971   9.305  19.527  0.00  0.00    +0.000 A 
ATOM     17  C   UNL     1       0.195  10.355  20.179  0.00  0.00    +0.000 A 
ENDBRANCH   1  17
BRANCH   6  18
ATOM     18  S   UNL     1      -2.410  10.604  17.976  0.00  0.00    +0.000 S 
BRANCH  18  19
ATOM     19  C   UNL     1      -3.474  11.441  16.795  0.00  0.00    +0.000 C 
BRANCH  19  20
ATOM     20  C   UNL     1      -4.747  11.793  17.516  0.00  0.00    +0.000 C 
ATOM     21  O   UNL     1      -5.726  12.225  16.914  0.00  0.00    +0.000 OA
ATOM     22  N   UNL     1      -4.616  11.685  18.893  0.00  0.00    +0.000 N 
ATOM     23  H   UNL     1      -3.667  11.870  19.228  0.00  0.00    +0.000 HD
BRANCH  22  24
ATOM     24  C   UNL     1      -5.663  12.076  19.745  0.00  0.00    +0.000 A 
ATOM     25  C   UNL     1      -5.561  13.355  20.309  0.00  0.00    +0.000 A 
ATOM     26  C   UNL     1      -6.597  13.847  21.096  0.00  0.00    +0.000 A 
ATOM     27  C   UNL     1      -7.725  13.065  21.342  0.00  0.00    +0.000 A 
ATOM     28  C   UNL     1      -7.808  11.771  20.821  0.00  0.00    +0.000 A 
ATOM     29  C   UNL     1      -6.771  11.264  20.039  0.00  0.00    +0.000 A 
ATOM     30 BR   UNL     1      -6.886   9.437  19.518  0.00  0.00    +0.000 Br
ENDBRANCH  22  24
ENDBRANCH  19  20
ENDBRANCH  18  19
ENDBRANCH   6  18
TORSDOF 5
ENDMDL
MODEL 5
REMARK VINA RESULT:      -7.6      2.552      4.403
REMARK  Name = 
REMARK  7 active torsions:
REMARK  status: ('A' for Active; 'I' for Inactive)
REMARK    1  A    between atoms: C_1  and  C_2
REMARK    2  A    between atoms: C_11  and  N_12
REMARK    3  A    between atoms: C_13  and  C_14
REMARK    4  A    between atoms: C_17  and  S_18
REMARK    5  A    between atoms: S_18  and  C_19
REMARK    6  A    between atoms: C_19  and  C_20
REMARK    7  A    between atoms: N_22  and  C_23
REMARK                            x       y       z     vdW  Elec       q    Type
REMARK                         _______ _______ _______ _____ _____    ______ ____
ROOT
ATOM      1  N   UNL     1       0.725   9.981  20.073  0.00  0.00    +0.000 N 
ATOM      2  C   UNL     1       0.523   9.516  21.390  0.00  0.00    +0.000 A 
ATOM      3  C   UNL     1      -0.063  10.241  22.554  0.00  0.00    +0.000 C 
ATOM      4  N   UNL     1       1.002   8.287  21.508  0.00  0.00    +0.000 NA
ATOM      5  N   UNL     1       1.627   7.947  20.356  0.00  0.00    +0.000 NA
ATOM      6  C   UNL     1       1.514   8.957  19.517  0.00  0.00    +0.000 A 
ENDROOT
BRANCH   1  17
ATOM      7  C   UNL     1      -1.886  10.122  18.288  0.00  0.00    +0.000 C 
ATOM      8  C   UNL     1      -0.948  11.242  18.650  0.00  0.00    +0.000 A 
ATOM      9  C   UNL     1      -1.326  12.451  18.034  0.00  0.00    +0.000 A 
ATOM     10  C   UNL     1      -0.575  13.601  18.156  0.00  0.00    +0.000 A 
ATOM     11  C   UNL     1       0.548  13.622  18.966  0.00  0.00    +0.000 A 
ATOM     12  C   UNL     1       1.266  14.824  19.025  0.00  0.00    +0.000 A 
ATOM     13  C   UNL     1       2.383  14.950  19.837  0.00  0.00    +0.000 A 
ATOM     14  C   UNL     1       2.735  13.894  20.658  0.00  0.00    +0.000 A 
ATOM     15  C   UNL     1       1.993  12.703  20.632  0.00  0.00    +0.000 A 
ATOM     16  C   UNL     1       0.930  12.466  19.708  0.00  0.00    +0.000 A 
ATOM     17  C   UNL     1       0.203  11.218  19.491  0.00  0.00    +0.000 A 
ENDBRANCH   1  17
BRANCH   6  18
ATOM     18  S   UNL     1       2.148   8.889  17.912  0.00  0.00    +0.000 S 
BRANCH  18  19
ATOM     19  C   UNL     1       3.469   7.671  17.923  0.00  0.00    +0.000 C 
BRANCH  19  20
ATOM     20  C   UNL     1       2.840   6.336  18.214  0.00  0.00    +0.000 C 
ATOM     21  O   UNL     1       1.841   5.953  17.612  0.00  0.00    +0.000 OA
ATOM     22  N   UNL     1       3.443   5.695  19.288  0.00  0.00    +0.000 N 
ATOM     23  H   UNL     1       3.829   6.340  19.983  0.00  0.00    +0.000 HD
BRANCH  22  24
ATOM     24  C   UNL     1       2.927   4.486  19.782  0.00  0.00    +0.000 A 
ATOM     25  C   UNL     1       2.304   4.542  21.038  0.00  0.00    +0.000 A 
ATOM     26  C   UNL     1       1.695   3.405  21.558  0.00  0.00    +0.000 A 
ATOM     27  C   UNL     1       1.720   2.206  20.845  0.00  0.00    +0.000 A 
ATOM     28  C   UNL     1       2.381   2.135  19.615  0.00  0.00    +0.000 A 
ATOM     29  C   UNL     1       3.004   3.266  19.090  0.00  0.00    +0.000 A 
ATOM     30 BR   UNL     1       4.028   3.038  17.502  0.00  0.00    +0.000 Br
ENDBRANCH  22  24
ENDBRANCH  19  20
ENDBRANCH  18  19
ENDBRANCH   6  18
TORSDOF 5
ENDMDL
MODEL 6
REMARK VINA RESULT:      -7.6      3.207      8.921
REMARK  Name = 
REMARK  7 active torsions:
REMARK  status: ('A' for Active; 'I' for Inactive)
REMARK    1  A    between atoms: C_1  and  C_2
REMARK    2  A    between atoms: C_11  and  N_12
REMARK    3  A    between atoms: C_13  and  C_14
REMARK    4  A    between atoms: C_17  and  S_18
REMARK    5  A    between atoms: S_18  and  C_19
REMARK    6  A    between atoms: C_19  and  C_20
REMARK    7  A    between atoms: N_22  and  C_23
REMARK                            x       y       z     vdW  Elec       q    Type
REMARK                         _______ _______ _______ _____ _____    ______ ____
ROOT
ATOM      1  N   UNL     1       2.506   6.245  19.140  0.00  0.00    +0.000 N 
ATOM      2  C   UNL     1       2.257   5.948  20.496  0.00  0.00    +0.000 A 
ATOM      3  C   UNL     1       2.335   4.629  21.189  0.00  0.00    +0.000 C 
ATOM      4  N   UNL     1       1.858   7.041  21.128  0.00  0.00    +0.000 NA
ATOM      5  N   UNL     1       1.711   8.040  20.226  0.00  0.00    +0.000 NA
ATOM      6  C   UNL     1       2.044   7.570  19.040  0.00  0.00    +0.000 A 
ENDROOT
BRANCH   1  17
ATOM      7  C   UNL     1       1.095   3.648  18.007  0.00  0.00    +0.000 C 
ATOM      8  C   UNL     1       2.470   4.169  17.690  0.00  0.00    +0.000 A 
ATOM      9  C   UNL     1       3.159   3.307  16.815  0.00  0.00    +0.000 A 
ATOM     10  C   UNL     1       4.467   3.537  16.440  0.00  0.00    +0.000 A 
ATOM     11  C   UNL     1       5.124   4.682  16.856  0.00  0.00    +0.000 A 
ATOM     12  C   UNL     1       6.456   4.834  16.446  0.00  0.00    +0.000 A 
ATOM     13  C   UNL     1       7.183   5.966  16.784  0.00  0.00    +0.000 A 
ATOM     14  C   UNL     1       6.549   6.989  17.465  0.00  0.00    +0.000 A 
ATOM     15  C   UNL     1       5.202   6.857  17.841  0.00  0.00    +0.000 A 
ATOM     16  C   UNL     1       4.454   5.656  17.653  0.00  0.00    +0.000 A 
ATOM     17  C   UNL     1       3.111   5.359  18.144  0.00  0.00    +0.000 A 
ENDBRANCH   1  17
BRANCH   6  18
ATOM     18  S   UNL     1       2.033   8.564  17.627  0.00  0.00    +0.000 S 
BRANCH  18  19
ATOM     19  C   UNL     1       2.012  10.271  18.188  0.00  0.00    +0.000 C 
BRANCH  19  20
ATOM     20  C   UNL     1       0.771  10.450  19.019  0.00  0.00    +0.000 C 
ATOM     21  O   UNL     1      -0.342  10.186  18.574  0.00  0.00    +0.000 OA
ATOM     22  N   UNL     1       1.041  11.045  20.244  0.00  0.00    +0.000 N 
ATOM     23  H   UNL     1       1.844  11.679  20.220  0.00  0.00    +0.000 HD
BRANCH  22  24
ATOM     24  C   UNL     1      -0.002  11.395  21.116  0.00  0.00    +0.000 A 
ATOM     25  C   UNL     1      -0.290  10.480  22.140  0.00  0.00    +0.000 A 
ATOM     26  C   UNL     1      -1.253  10.793  23.094  0.00  0.00    +0.000 A 
ATOM     27  C   UNL     1      -1.945  12.002  23.024  0.00  0.00    +0.000 A 
ATOM     28  C   UNL     1      -1.694  12.894  21.978  0.00  0.00    +0.000 A 
ATOM     29  C   UNL     1      -0.738  12.586  21.010  0.00  0.00    +0.000 A 
ATOM     30 BR   UNL     1      -0.586  13.772  19.529  0.00  0.00    +0.000 Br
ENDBRANCH  22  24
ENDBRANCH  19  20
ENDBRANCH  18  19
ENDBRANCH   6  18
TORSDOF 5
ENDMDL
MODEL 7
REMARK VINA RESULT:      -7.6      3.806      8.022
REMARK  Name = 
REMARK  7 active torsions:
REMARK  status: ('A' for Active; 'I' for Inactive)
REMARK    1  A    between atoms: C_1  and  C_2
REMARK    2  A    between atoms: C_11  and  N_12
REMARK    3  A    between atoms: C_13  and  C_14
REMARK    4  A    between atoms: C_17  and  S_18
REMARK    5  A    between atoms: S_18  and  C_19
REMARK    6  A    between atoms: C_19  and  C_20
REMARK    7  A    between atoms: N_22  and  C_23
REMARK                            x       y       z     vdW  Elec       q    Type
REMARK                         _______ _______ _______ _____ _____    ______ ____
ROOT
ATOM      1  N   UNL     1      -0.141  12.084  20.167  0.00  0.00    +0.000 N 
ATOM      2  C   UNL     1       0.755  13.174  20.160  0.00  0.00    +0.000 A 
ATOM      3  C   UNL     1       2.091  13.284  20.813  0.00  0.00    +0.000 C 
ATOM      4  N   UNL     1       0.215  14.193  19.508  0.00  0.00    +0.000 NA
ATOM      5  N   UNL     1      -1.060  13.876  19.178  0.00  0.00    +0.000 NA
ATOM      6  C   UNL     1      -1.299  12.653  19.604  0.00  0.00    +0.000 A 
ENDROOT
BRANCH   1  17
ATOM      7  C   UNL     1      -0.970  11.019  23.031  0.00  0.00    +0.000 C 
ATOM      8  C   UNL     1      -0.211  10.292  21.955  0.00  0.00    +0.000 A 
ATOM      9  C   UNL     1       0.184   9.008  22.379  0.00  0.00    +0.000 A 
ATOM     10  C   UNL     1       0.958   8.182  21.592  0.00  0.00    +0.000 A 
ATOM     11  C   UNL     1       1.309   8.564  20.308  0.00  0.00    +0.000 A 
ATOM     12  C   UNL     1       2.110   7.677  19.577  0.00  0.00    +0.000 A 
ATOM     13  C   UNL     1       2.482   7.959  18.271  0.00  0.00    +0.000 A 
ATOM     14  C   UNL     1       1.980   9.095  17.665  0.00  0.00    +0.000 A 
ATOM     15  C   UNL     1       1.143   9.966  18.381  0.00  0.00    +0.000 A 
ATOM     16  C   UNL     1       0.853   9.804  19.769  0.00  0.00    +0.000 A 
ATOM     17  C   UNL     1       0.132  10.727  20.640  0.00  0.00    +0.000 A 
ENDBRANCH   1  17
BRANCH   6  18
ATOM     18  S   UNL     1      -2.814  11.868  19.329  0.00  0.00    +0.000 S 
BRANCH  18  19
ATOM     19  C   UNL     1      -4.087  12.941  20.004  0.00  0.00    +0.000 C 
BRANCH  19  20
ATOM     20  C   UNL     1      -3.764  13.153  21.458  0.00  0.00    +0.000 C 
ATOM     21  O   UNL     1      -4.074  12.326  22.312  0.00  0.00    +0.000 OA
ATOM     22  N   UNL     1      -3.212  14.404  21.695  0.00  0.00    +0.000 N 
ATOM     23  H   UNL     1      -3.536  15.122  21.042  0.00  0.00    +0.000 HD
BRANCH  22  24
ATOM     24  C   UNL     1      -2.942  14.832  23.005  0.00  0.00    +0.000 A 
ATOM     25  C   UNL     1      -1.647  14.589  23.485  0.00  0.00    +0.000 A 
ATOM     26  C   UNL     1      -1.278  15.057  24.742  0.00  0.00    +0.000 A 
ATOM     27  C   UNL     1      -2.196  15.748  25.532  0.00  0.00    +0.000 A 
ATOM     28  C   UNL     1      -3.501  15.951  25.077  0.00  0.00    +0.000 A 
ATOM     29  C   UNL     1      -3.886  15.476  23.823  0.00  0.00    +0.000 A 
ATOM     30 BR   UNL     1      -5.724  15.639  23.356  0.00  0.00    +0.000 Br
ENDBRANCH  22  24
ENDBRANCH  19  20
ENDBRANCH  18  19
ENDBRANCH   6  18
TORSDOF 5
ENDMDL
MODEL 8
REMARK VINA RESULT:      -7.5      2.109      3.087
REMARK  Name = 
REMARK  7 active torsions:
REMARK  status: ('A' for Active; 'I' for Inactive)
REMARK    1  A    between atoms: C_1  and  C_2
REMARK    2  A    between atoms: C_11  and  N_12
REMARK    3  A    between atoms: C_13  and  C_14
REMARK    4  A    between atoms: C_17  and  S_18
REMARK    5  A    between atoms: S_18  and  C_19
REMARK    6  A    between atoms: C_19  and  C_20
REMARK    7  A    between atoms: N_22  and  C_23
REMARK                            x       y       z     vdW  Elec       q    Type
REMARK                         _______ _______ _______ _____ _____    ______ ____
ROOT
ATOM      1  N   UNL     1       0.018  10.368  21.087  0.00  0.00    +0.000 N 
ATOM      2  C   UNL     1      -0.561  10.563  22.359  0.00  0.00    +0.000 A 
ATOM      3  C   UNL     1      -1.226  11.782  22.902  0.00  0.00    +0.000 C 
ATOM      4  N   UNL     1      -0.386   9.480  23.100  0.00  0.00    +0.000 NA
ATOM      5  N   UNL     1       0.394   8.605  22.422  0.00  0.00    +0.000 NA
ATOM      6  C   UNL     1       0.680   9.138  21.251  0.00  0.00    +0.000 A 
ENDROOT
BRANCH   1  17
ATOM      7  C   UNL     1       1.774  12.972  20.685  0.00  0.00    +0.000 C 
ATOM      8  C   UNL     1       0.677  12.447  19.799  0.00  0.00    +0.000 A 
ATOM      9  C   UNL     1       0.436  13.308  18.710  0.00  0.00    +0.000 A 
ATOM     10  C   UNL     1      -0.576  13.075  17.803  0.00  0.00    +0.000 A 
ATOM     11  C   UNL     1      -1.345  11.928  17.889  0.00  0.00    +0.000 A 
ATOM     12  C   UNL     1      -2.363  11.772  16.939  0.00  0.00    +0.000 A 
ATOM     13  C   UNL     1      -3.161  10.638  16.925  0.00  0.00    +0.000 A 
ATOM     14  C   UNL     1      -2.884   9.616  17.815  0.00  0.00    +0.000 A 
ATOM     15  C   UNL     1      -1.838   9.751  18.741  0.00  0.00    +0.000 A 
ATOM     16  C   UNL     1      -1.087  10.954  18.899  0.00  0.00    +0.000 A 
ATOM     17  C   UNL     1      -0.094  11.254  19.927  0.00  0.00    +0.000 A 
ENDBRANCH   1  17
BRANCH   6  18
ATOM     18  S   UNL     1       1.624   8.300  20.071  0.00  0.00    +0.000 S 
BRANCH  18  19
ATOM     19  C   UNL     1       1.652   6.570  20.556  0.00  0.00    +0.000 C 
BRANCH  19  20
ATOM     20  C   UNL     1       2.735   5.901  19.754  0.00  0.00    +0.000 C 
ATOM     21  O   UNL     1       3.614   5.235  20.294  0.00  0.00    +0.000 OA
ATOM     22  N   UNL     1       2.671   6.233  18.408  0.00  0.00    +0.000 N 
ATOM     23  H   UNL     1       2.287   7.166  18.237  0.00  0.00    +0.000 HD
BRANCH  22  24
ATOM     24  C   UNL     1       3.661   5.794  17.514  0.00  0.00    +0.000 A 
ATOM     25  C   UNL     1       4.561   6.767  17.057  0.00  0.00    +0.000 A 
ATOM     26  C   UNL     1       5.621   6.396  16.236  0.00  0.00    +0.000 A 
ATOM     27  C   UNL     1       5.778   5.065  15.850  0.00  0.00    +0.000 A 
ATOM     28  C   UNL     1       4.855   4.101  16.265  0.00  0.00    +0.000 A 
ATOM     29  C   UNL     1       3.784   4.464  17.080  0.00  0.00    +0.000 A 
ATOM     30 BR   UNL     1       2.481   3.127  17.451  0.00  0.00    +0.000 Br
ENDBRANCH  22  24
ENDBRANCH  19  20
ENDBRANCH  18  19
ENDBRANCH   6  18
TORSDOF 5
ENDMDL
MODEL 9
REMARK VINA RESULT:      -7.5      1.877      3.215
REMARK  Name = 
REMARK  7 active torsions:
REMARK  status: ('A' for Active; 'I' for Inactive)
REMARK    1  A    between atoms: C_1  and  C_2
REMARK    2  A    between atoms: C_11  and  N_12
REMARK    3  A    between atoms: C_13  and  C_14
REMARK    4  A    between atoms: C_17  and  S_18
REMARK    5  A    between atoms: S_18  and  C_19
REMARK    6  A    between atoms: C_19  and  C_20
REMARK    7  A    between atoms: N_22  and  C_23
REMARK                            x       y       z     vdW  Elec       q    Type
REMARK                         _______ _______ _______ _____ _____    ______ ____
ROOT
ATOM      1  N   UNL     1      -1.071  12.232  20.171  0.00  0.00    +0.000 N 
ATOM      2  C   UNL     1      -0.070  13.031  19.579  0.00  0.00    +0.000 A 
ATOM      3  C   UNL     1      -0.014  13.576  18.192  0.00  0.00    +0.000 C 
ATOM      4  N   UNL     1       0.923  13.211  20.437  0.00  0.00    +0.000 NA
ATOM      5  N   UNL     1       0.688  12.466  21.543  0.00  0.00    +0.000 NA
ATOM      6  C   UNL     1      -0.462  11.845  21.379  0.00  0.00    +0.000 A 
ENDROOT
BRANCH   1  17
ATOM      7  C   UNL     1      -1.578  10.163  17.829  0.00  0.00    +0.000 C 
ATOM      8  C   UNL     1      -2.584  11.032  18.533  0.00  0.00    +0.000 A 
ATOM      9  C   UNL     1      -3.872  10.879  17.983  0.00  0.00    +0.000 A 
ATOM     10  C   UNL     1      -4.946  11.630  18.413  0.00  0.00    +0.000 A 
ATOM     11  C   UNL     1      -4.805  12.514  19.470  0.00  0.00    +0.000 A 
ATOM     12  C   UNL     1      -5.939  13.251  19.838  0.00  0.00    +0.000 A 
ATOM     13  C   UNL     1      -5.902  14.133  20.907  0.00  0.00    +0.000 A 
ATOM     14  C   UNL     1      -4.749  14.216  21.665  0.00  0.00    +0.000 A 
ATOM     15  C   UNL     1      -3.624  13.448  21.325  0.00  0.00    +0.000 A 
ATOM     16  C   UNL     1      -3.557  12.641  20.149  0.00  0.00    +0.000 A 
ATOM     17  C   UNL     1      -2.394  11.934  19.621  0.00  0.00    +0.000 A 
ENDBRANCH   1  17
BRANCH   6  18
ATOM     18  S   UNL     1      -1.134  10.826  22.602  0.00  0.00    +0.000 S 
BRANCH  18  19
ATOM     19  C   UNL     1       0.113   9.595  22.999  0.00  0.00    +0.000 C 
BRANCH  19  20
ATOM     20  C   UNL     1       0.224   8.676  21.813  0.00  0.00    +0.000 C 
ATOM     21  O   UNL     1      -0.724   7.989  21.444  0.00  0.00    +0.000 OA
ATOM     22  N   UNL     1       1.515   8.626  21.307  0.00  0.00    +0.000 N 
ATOM     23  H   UNL     1       2.237   8.779  22.017  0.00  0.00    +0.000 HD
BRANCH  22  24
ATOM     24  C   UNL     1       1.843   7.742  20.267  0.00  0.00    +0.000 A 
ATOM     25  C   UNL     1       2.032   6.400  20.628  0.00  0.00    +0.000 A 
ATOM     26  C   UNL     1       2.277   5.448  19.644  0.00  0.00    +0.000 A 
ATOM     27  C   UNL     1       2.356   5.827  18.303  0.00  0.00    +0.000 A 
ATOM     28  C   UNL     1       2.217   7.171  17.945  0.00  0.00    +0.000 A 
ATOM     29  C   UNL     1       1.981   8.135  18.925  0.00  0.00    +0.000 A 
ATOM     30 BR   UNL     1       1.980   9.956  18.372  0.00  0.00    +0.000 Br
ENDBRANCH  22  24
ENDBRANCH  19  20
ENDBRANCH  18  19
ENDBRANCH   6  18
TORSDOF 5
ENDMDL
