MODEL 1
REMARK VINA RESULT:      -6.8      0.000      0.000
REMARK  Name = 
REMARK  6 active torsions:
REMARK  status: ('A' for Active; 'I' for Inactive)
REMARK    1  A    between atoms: C_1  and  C_2
REMARK    2  A    between atoms: C_2  and  C_3
REMARK    3  A    between atoms: N_6  and  C_7
REMARK    4  A    between atoms: C_7  and  C_8
REMARK    5  A    between atoms: C_8  and  O_9
REMARK    6  A    between atoms: O_9  and  C_10
REMARK                            x       y       z     vdW  Elec       q    Type
REMARK                         _______ _______ _______ _____ _____    ______ ____
ROOT
ATOM      1  C   UNL     1       5.161   4.938  16.166  0.00  0.00    +0.000 A 
ATOM      2  N   UNL     1       4.597   6.048  16.690  0.00  0.00    +0.000 NA
ATOM      3  C   UNL     1       3.733   5.928  17.724  0.00  0.00    +0.000 A 
ATOM      4  N   UNL     1       3.224   7.048  18.338  0.00  0.00    +0.000 N 
ATOM      5  C   UNL     1       3.397   4.638  18.167  0.00  0.00    +0.000 A 
ATOM      6  C   UNL     1       2.498   4.135  19.145  0.00  0.00    +0.000 A 
ATOM      7  C   UNL     1       2.482   2.767  19.193  0.00  0.00    +0.000 A 
ATOM      8  S   UNL     1       3.529   2.036  18.117  0.00  0.00    +0.000 S 
ATOM      9  C   UNL     1       4.024   3.577  17.520  0.00  0.00    +0.000 A 
ATOM     10  N   UNL     1       4.918   3.669  16.524  0.00  0.00    +0.000 NA
ATOM     11  C   UNL     1       1.518   2.215  20.172  0.00  0.00    +0.000 C 
ATOM     12  C   UNL     1       1.181   3.490  21.004  0.00  0.00    +0.000 C 
ATOM     13  C   UNL     1       1.523   4.714  20.101  0.00  0.00    +0.000 C 
ATOM     14  H   UNL     1       2.696   6.933  19.190  0.00  0.00    +0.000 HD
ENDROOT
BRANCH   1  16
ATOM     15  C   UNL     1       6.053   4.028  14.021  0.00  0.00    +0.000 C 
ATOM     16  C   UNL     1       6.146   5.146  15.046  0.00  0.00    +0.000 C 
ENDBRANCH   1  16
BRANCH   4  17
ATOM     17  C   UNL     1       2.967   8.269  17.601  0.00  0.00    +0.000 C 
BRANCH  17  18
ATOM     18  C   UNL     1       1.694   8.931  18.165  0.00  0.00    +0.000 C 
BRANCH  18  19
ATOM     19  O   UNL     1       1.563   8.609  19.557  0.00  0.00    +0.000 OA
ATOM     20  C   UNL     1       0.809   9.585  20.263  0.00  0.00    +0.000 C 
ENDBRANCH  18  19
ENDBRANCH  17  18
ENDBRANCH   4  17
TORSDOF 4
ENDMDL
MODEL 2
REMARK VINA RESULT:      -6.4      1.508      1.716
REMARK  Name = 
REMARK  6 active torsions:
REMARK  status: ('A' for Active; 'I' for Inactive)
REMARK    1  A    between atoms: C_1  and  C_2
REMARK    2  A    between atoms: C_2  and  C_3
REMARK    3  A    between atoms: N_6  and  C_7
REMARK    4  A    between atoms: C_7  and  C_8
REMARK    5  A    between atoms: C_8  and  O_9
REMARK    6  A    between atoms: O_9  and  C_10
REMARK                            x       y       z     vdW  Elec       q    Type
REMARK                         _______ _______ _______ _____ _____    ______ ____
ROOT
ATOM      1  C   UNL     1       5.920   5.832  17.740  0.00  0.00    +0.000 A 
ATOM      2  N   UNL     1       4.887   6.701  17.798  0.00  0.00    +0.000 NA
ATOM      3  C   UNL     1       3.757   6.347  18.451  0.00  0.00    +0.000 A 
ATOM      4  N   UNL     1       2.733   7.250  18.609  0.00  0.00    +0.000 N 
ATOM      5  C   UNL     1       3.673   5.050  18.985  0.00  0.00    +0.000 A 
ATOM      6  C   UNL     1       2.650   4.322  19.649  0.00  0.00    +0.000 A 
ATOM      7  C   UNL     1       3.026   3.041  19.953  0.00  0.00    +0.000 A 
ATOM      8  S   UNL     1       4.586   2.663  19.493  0.00  0.00    +0.000 S 
ATOM      9  C   UNL     1       4.795   4.241  18.828  0.00  0.00    +0.000 A 
ATOM     10  N   UNL     1       5.944   4.582  18.226  0.00  0.00    +0.000 NA
ATOM     11  C   UNL     1       1.962   2.245  20.604  0.00  0.00    +0.000 C 
ATOM     12  C   UNL     1       0.951   3.366  20.993  0.00  0.00    +0.000 C 
ATOM     13  C   UNL     1       1.247   4.576  20.055  0.00  0.00    +0.000 C 
ATOM     14  H   UNL     1       1.965   7.008  19.217  0.00  0.00    +0.000 HD
ENDROOT
BRANCH   1  16
ATOM     15  C   UNL     1       7.624   7.647  17.583  0.00  0.00    +0.000 C 
ATOM     16  C   UNL     1       7.163   6.307  17.035  0.00  0.00    +0.000 C 
ENDBRANCH   1  16
BRANCH   4  17
ATOM     17  C   UNL     1       2.445   8.256  17.607  0.00  0.00    +0.000 C 
BRANCH  17  18
ATOM     18  C   UNL     1       1.505   9.314  18.220  0.00  0.00    +0.000 C 
BRANCH  18  19
ATOM     19  O   UNL     1       1.300   9.024  19.610  0.00  0.00    +0.000 OA
ATOM     20  C   UNL     1       0.268   9.821  20.176  0.00  0.00    +0.000 C 
ENDBRANCH  18  19
ENDBRANCH  17  18
ENDBRANCH   4  17
TORSDOF 4
ENDMDL
MODEL 3
REMARK VINA RESULT:      -6.2      1.018      1.147
REMARK  Name = 
REMARK  6 active torsions:
REMARK  status: ('A' for Active; 'I' for Inactive)
REMARK    1  A    between atoms: C_1  and  C_2
REMARK    2  A    between atoms: C_2  and  C_3
REMARK    3  A    between atoms: N_6  and  C_7
REMARK    4  A    between atoms: C_7  and  C_8
REMARK    5  A    between atoms: C_8  and  O_9
REMARK    6  A    between atoms: O_9  and  C_10
REMARK                            x       y       z     vdW  Elec       q    Type
REMARK                         _______ _______ _______ _____ _____    ______ ____
ROOT
ATOM      1  C   UNL     1       4.595   5.759  16.528  0.00  0.00    +0.000 A 
ATOM      2  N   UNL     1       3.918   6.692  17.232  0.00  0.00    +0.000 NA
ATOM      3  C   UNL     1       3.153   6.308  18.279  0.00  0.00    +0.000 A 
ATOM      4  N   UNL     1       2.536   7.247  19.071  0.00  0.00    +0.000 N 
ATOM      5  C   UNL     1       3.034   4.934  18.551  0.00  0.00    +0.000 A 
ATOM      6  C   UNL     1       2.285   4.177  19.491  0.00  0.00    +0.000 A 
ATOM      7  C   UNL     1       2.465   2.828  19.344  0.00  0.00    +0.000 A 
ATOM      8  S   UNL     1       3.527   2.411  18.124  0.00  0.00    +0.000 S 
ATOM      9  C   UNL     1       3.758   4.075  17.730  0.00  0.00    +0.000 A 
ATOM     10  N   UNL     1       4.559   4.431  16.713  0.00  0.00    +0.000 NA
ATOM     11  C   UNL     1       1.660   2.013  20.281  0.00  0.00    +0.000 C 
ATOM     12  C   UNL     1       1.205   3.100  21.301  0.00  0.00    +0.000 C 
ATOM     13  C   UNL     1       1.307   4.471  20.566  0.00  0.00    +0.000 C 
ATOM     14  H   UNL     1       2.090   6.942  19.923  0.00  0.00    +0.000 HD
ENDROOT
BRANCH   1  16
ATOM     15  C   UNL     1       6.284   5.131  14.802  0.00  0.00    +0.000 C 
ATOM     16  C   UNL     1       5.460   6.259  15.401  0.00  0.00    +0.000 C 
ENDBRANCH   1  16
BRANCH   4  17
ATOM     17  C   UNL     1       2.059   8.503  18.529  0.00  0.00    +0.000 C 
BRANCH  17  18
ATOM     18  C   UNL     1       1.258   9.243  19.620  0.00  0.00    +0.000 C 
BRANCH  18  19
ATOM     19  O   UNL     1       0.683  10.435  19.067  0.00  0.00    +0.000 OA
ATOM     20  C   UNL     1      -0.352  10.147  18.135  0.00  0.00    +0.000 C 
ENDBRANCH  18  19
ENDBRANCH  17  18
ENDBRANCH   4  17
TORSDOF 4
ENDMDL
MODEL 4
REMARK VINA RESULT:      -6.2      2.508      5.031
REMARK  Name = 
REMARK  6 active torsions:
REMARK  status: ('A' for Active; 'I' for Inactive)
REMARK    1  A    between atoms: C_1  and  C_2
REMARK    2  A    between atoms: C_2  and  C_3
REMARK    3  A    between atoms: N_6  and  C_7
REMARK    4  A    between atoms: C_7  and  C_8
REMARK    5  A    between atoms: C_8  and  O_9
REMARK    6  A    between atoms: O_9  and  C_10
REMARK                            x       y       z     vdW  Elec       q    Type
REMARK                         _______ _______ _______ _____ _____    ______ ____
ROOT
ATOM      1  C   UNL     1       2.477   8.136  18.223  0.00  0.00    +0.000 A 
ATOM      2  N   UNL     1       3.398   7.557  17.423  0.00  0.00    +0.000 NA
ATOM      3  C   UNL     1       3.754   6.271  17.641  0.00  0.00    +0.000 A 
ATOM      4  N   UNL     1       4.614   5.632  16.780  0.00  0.00    +0.000 N 
ATOM      5  C   UNL     1       3.201   5.604  18.747  0.00  0.00    +0.000 A 
ATOM      6  C   UNL     1       3.389   4.316  19.316  0.00  0.00    +0.000 A 
ATOM      7  C   UNL     1       2.641   4.125  20.447  0.00  0.00    +0.000 A 
ATOM      8  S   UNL     1       1.685   5.431  20.859  0.00  0.00    +0.000 S 
ATOM      9  C   UNL     1       2.288   6.324  19.512  0.00  0.00    +0.000 A 
ATOM     10  N   UNL     1       1.883   7.584  19.292  0.00  0.00    +0.000 NA
ATOM     11  C   UNL     1       2.853   2.807  21.087  0.00  0.00    +0.000 C 
ATOM     12  C   UNL     1       3.605   2.046  19.953  0.00  0.00    +0.000 C 
ATOM     13  C   UNL     1       4.236   3.133  19.030  0.00  0.00    +0.000 C 
ATOM     14  H   UNL     1       4.752   4.638  16.886  0.00  0.00    +0.000 HD
ENDROOT
BRANCH   1  16
ATOM     15  C   UNL     1       0.791   9.940  18.577  0.00  0.00    +0.000 C 
ATOM     16  C   UNL     1       2.095   9.556  17.898  0.00  0.00    +0.000 C 
ENDBRANCH   1  16
BRANCH   4  17
ATOM     17  C   UNL     1       5.677   6.343  16.099  0.00  0.00    +0.000 C 
BRANCH  17  18
ATOM     18  C   UNL     1       6.992   5.558  16.275  0.00  0.00    +0.000 C 
BRANCH  18  19
ATOM     19  O   UNL     1       7.637   5.411  15.002  0.00  0.00    +0.000 OA
ATOM     20  C   UNL     1       6.859   4.642  14.095  0.00  0.00    +0.000 C 
ENDBRANCH  18  19
ENDBRANCH  17  18
ENDBRANCH   4  17
TORSDOF 4
ENDMDL
MODEL 5
REMARK VINA RESULT:      -6.2      2.576      4.616
REMARK  Name = 
REMARK  6 active torsions:
REMARK  status: ('A' for Active; 'I' for Inactive)
REMARK    1  A    between atoms: C_1  and  C_2
REMARK    2  A    between atoms: C_2  and  C_3
REMARK    3  A    between atoms: N_6  and  C_7
REMARK    4  A    between atoms: C_7  and  C_8
REMARK    5  A    between atoms: C_8  and  O_9
REMARK    6  A    between atoms: O_9  and  C_10
REMARK                            x       y       z     vdW  Elec       q    Type
REMARK                         _______ _______ _______ _____ _____    ______ ____
ROOT
ATOM      1  C   UNL     1       2.554   8.043  18.180  0.00  0.00    +0.000 A 
ATOM      2  N   UNL     1       3.531   7.487  17.432  0.00  0.00    +0.000 NA
ATOM      3  C   UNL     1       3.916   6.215  17.682  0.00  0.00    +0.000 A 
ATOM      4  N   UNL     1       4.837   5.595  16.871  0.00  0.00    +0.000 N 
ATOM      5  C   UNL     1       3.330   5.541  18.767  0.00  0.00    +0.000 A 
ATOM      6  C   UNL     1       3.531   4.265  19.359  0.00  0.00    +0.000 A 
ATOM      7  C   UNL     1       2.733   4.061  20.453  0.00  0.00    +0.000 A 
ATOM      8  S   UNL     1       1.718   5.340  20.804  0.00  0.00    +0.000 S 
ATOM      9  C   UNL     1       2.358   6.238  19.478  0.00  0.00    +0.000 A 
ATOM     10  N   UNL     1       1.926   7.483  19.224  0.00  0.00    +0.000 NA
ATOM     11  C   UNL     1       2.956   2.757  21.118  0.00  0.00    +0.000 C 
ATOM     12  C   UNL     1       3.786   2.010  20.031  0.00  0.00    +0.000 C 
ATOM     13  C   UNL     1       4.427   3.107  19.128  0.00  0.00    +0.000 C 
ATOM     14  H   UNL     1       5.000   4.607  16.994  0.00  0.00    +0.000 HD
ENDROOT
BRANCH   1  16
ATOM     15  C   UNL     1       0.809   9.805  18.451  0.00  0.00    +0.000 C 
ATOM     16  C   UNL     1       2.144   9.447  17.820  0.00  0.00    +0.000 C 
ENDBRANCH   1  16
BRANCH   4  17
ATOM     17  C   UNL     1       5.909   6.333  16.235  0.00  0.00    +0.000 C 
BRANCH  17  18
ATOM     18  C   UNL     1       7.015   6.599  17.276  0.00  0.00    +0.000 C 
BRANCH  18  19
ATOM     19  O   UNL     1       7.810   7.716  16.854  0.00  0.00    +0.000 OA
ATOM     20  C   UNL     1       8.006   8.659  17.901  0.00  0.00    +0.000 C 
ENDBRANCH  18  19
ENDBRANCH  17  18
ENDBRANCH   4  17
TORSDOF 4
ENDMDL
MODEL 6
REMARK VINA RESULT:      -6.1      1.488      4.464
REMARK  Name = 
REMARK  6 active torsions:
REMARK  status: ('A' for Active; 'I' for Inactive)
REMARK    1  A    between atoms: C_1  and  C_2
REMARK    2  A    between atoms: C_2  and  C_3
REMARK    3  A    between atoms: N_6  and  C_7
REMARK    4  A    between atoms: C_7  and  C_8
REMARK    5  A    between atoms: C_8  and  O_9
REMARK    6  A    between atoms: O_9  and  C_10
REMARK                            x       y       z     vdW  Elec       q    Type
REMARK                         _______ _______ _______ _____ _____    ______ ____
ROOT
ATOM      1  C   UNL     1       1.891   4.195  19.652  0.00  0.00    +0.000 A 
ATOM      2  N   UNL     1       1.846   5.497  19.297  0.00  0.00    +0.000 NA
ATOM      3  C   UNL     1       2.642   5.941  18.298  0.00  0.00    +0.000 A 
ATOM      4  N   UNL     1       2.541   7.238  17.853  0.00  0.00    +0.000 N 
ATOM      5  C   UNL     1       3.545   5.038  17.712  0.00  0.00    +0.000 A 
ATOM      6  C   UNL     1       4.556   5.160  16.722  0.00  0.00    +0.000 A 
ATOM      7  C   UNL     1       5.224   3.984  16.504  0.00  0.00    +0.000 A 
ATOM      8  S   UNL     1       4.676   2.708  17.431  0.00  0.00    +0.000 S 
ATOM      9  C   UNL     1       3.515   3.733  18.192  0.00  0.00    +0.000 A 
ATOM     10  N   UNL     1       2.705   3.255  19.149  0.00  0.00    +0.000 NA
ATOM     11  C   UNL     1       6.315   4.093  15.509  0.00  0.00    +0.000 C 
ATOM     12  C   UNL     1       5.985   5.471  14.860  0.00  0.00    +0.000 C 
ATOM     13  C   UNL     1       5.117   6.253  15.892  0.00  0.00    +0.000 C 
ATOM     14  H   UNL     1       3.043   7.503  17.019  0.00  0.00    +0.000 HD
ENDROOT
BRANCH   1  16
ATOM     15  C   UNL     1       1.564   2.655  21.587  0.00  0.00    +0.000 C 
ATOM     16  C   UNL     1       0.949   3.759  20.742  0.00  0.00    +0.000 C 
ENDBRANCH   1  16
BRANCH   4  17
ATOM     17  C   UNL     1       2.197   8.325  18.748  0.00  0.00    +0.000 C 
BRANCH  17  18
ATOM     18  C   UNL     1       1.779   9.548  17.907  0.00  0.00    +0.000 C 
BRANCH  18  19
ATOM     19  O   UNL     1       0.380   9.804  18.096  0.00  0.00    +0.000 OA
ATOM     20  C   UNL     1       0.070  10.108  19.450  0.00  0.00    +0.000 C 
ENDBRANCH  18  19
ENDBRANCH  17  18
ENDBRANCH   4  17
TORSDOF 4
ENDMDL
MODEL 7
REMARK VINA RESULT:      -6.0      2.725      5.229
REMARK  Name = 
REMARK  6 active torsions:
REMARK  status: ('A' for Active; 'I' for Inactive)
REMARK    1  A    between atoms: C_1  and  C_2
REMARK    2  A    between atoms: C_2  and  C_3
REMARK    3  A    between atoms: N_6  and  C_7
REMARK    4  A    between atoms: C_7  and  C_8
REMARK    5  A    between atoms: C_8  and  O_9
REMARK    6  A    between atoms: O_9  and  C_10
REMARK                            x       y       z     vdW  Elec       q    Type
REMARK                         _______ _______ _______ _____ _____    ______ ____
ROOT
ATOM      1  C   UNL     1       3.630   6.150  17.745  0.00  0.00    +0.000 A 
ATOM      2  N   UNL     1       3.201   5.498  18.848  0.00  0.00    +0.000 NA
ATOM      3  C   UNL     1       2.362   6.123  19.705  0.00  0.00    +0.000 A 
ATOM      4  N   UNL     1       1.834   5.446  20.779  0.00  0.00    +0.000 N 
ATOM      5  C   UNL     1       2.023   7.462  19.449  0.00  0.00    +0.000 A 
ATOM      6  C   UNL     1       1.253   8.433  20.144  0.00  0.00    +0.000 A 
ATOM      7  C   UNL     1       1.241   9.647  19.512  0.00  0.00    +0.000 A 
ATOM      8  S   UNL     1       2.107   9.680  18.084  0.00  0.00    +0.000 S 
ATOM      9  C   UNL     1       2.558   8.028  18.297  0.00  0.00    +0.000 A 
ATOM     10  N   UNL     1       3.356   7.418  17.407  0.00  0.00    +0.000 NA
ATOM     11  C   UNL     1       0.484  10.691  20.239  0.00  0.00    +0.000 C 
ATOM     12  C   UNL     1      -0.294   9.824  21.274  0.00  0.00    +0.000 C 
ATOM     13  C   UNL     1       0.495   8.487  21.418  0.00  0.00    +0.000 C 
ATOM     14  H   UNL     1       1.106   5.889  21.318  0.00  0.00    +0.000 HD
ENDROOT
BRANCH   1  16
ATOM     15  C   UNL     1       5.238   6.314  15.845  0.00  0.00    +0.000 C 
ATOM     16  C   UNL     1       4.528   5.381  16.813  0.00  0.00    +0.000 C 
ENDBRANCH   1  16
BRANCH   4  17
ATOM     17  C   UNL     1       2.578   4.409  21.465  0.00  0.00    +0.000 C 
BRANCH  17  18
ATOM     18  C   UNL     1       1.770   3.097  21.410  0.00  0.00    +0.000 C 
BRANCH  18  19
ATOM     19  O   UNL     1       0.913   3.110  20.260  0.00  0.00    +0.000 OA
ATOM     20  C   UNL     1       1.382   2.245  19.234  0.00  0.00    +0.000 C 
ENDBRANCH  18  19
ENDBRANCH  17  18
ENDBRANCH   4  17
TORSDOF 4
ENDMDL
MODEL 8
REMARK VINA RESULT:      -6.0      3.514      5.131
REMARK  Name = 
REMARK  6 active torsions:
REMARK  status: ('A' for Active; 'I' for Inactive)
REMARK    1  A    between atoms: C_1  and  C_2
REMARK    2  A    between atoms: C_2  and  C_3
REMARK    3  A    between atoms: N_6  and  C_7
REMARK    4  A    between atoms: C_7  and  C_8
REMARK    5  A    between atoms: C_8  and  O_9
REMARK    6  A    between atoms: O_9  and  C_10
REMARK                            x       y       z     vdW  Elec       q    Type
REMARK                         _______ _______ _______ _____ _____    ______ ____
ROOT
ATOM      1  C   UNL     1       6.628   5.709  18.387  0.00  0.00    +0.000 A 
ATOM      2  N   UNL     1       6.409   5.183  17.163  0.00  0.00    +0.000 NA
ATOM      3  C   UNL     1       5.297   4.446  16.946  0.00  0.00    +0.000 A 
ATOM      4  N   UNL     1       5.003   3.985  15.685  0.00  0.00    +0.000 N 
ATOM      5  C   UNL     1       4.442   4.193  18.032  0.00  0.00    +0.000 A 
ATOM      6  C   UNL     1       3.259   3.423  18.196  0.00  0.00    +0.000 A 
ATOM      7  C   UNL     1       2.791   3.444  19.483  0.00  0.00    +0.000 A 
ATOM      8  S   UNL     1       3.704   4.377  20.524  0.00  0.00    +0.000 S 
ATOM      9  C   UNL     1       4.798   4.766  19.249  0.00  0.00    +0.000 A 
ATOM     10  N   UNL     1       5.871   5.538  19.481  0.00  0.00    +0.000 NA
ATOM     11  C   UNL     1       1.585   2.611  19.692  0.00  0.00    +0.000 C 
ATOM     12  C   UNL     1       1.153   2.342  18.219  0.00  0.00    +0.000 C 
ATOM     13  C   UNL     1       2.422   2.550  17.338  0.00  0.00    +0.000 C 
ATOM     14  H   UNL     1       4.102   3.560  15.524  0.00  0.00    +0.000 HD
ENDROOT
BRANCH   1  16
ATOM     15  C   UNL     1       7.789   7.802  17.682  0.00  0.00    +0.000 C 
ATOM     16  C   UNL     1       7.864   6.555  18.548  0.00  0.00    +0.000 C 
ENDBRANCH   1  16
BRANCH   4  17
ATOM     17  C   UNL     1       6.044   3.617  14.747  0.00  0.00    +0.000 C 
BRANCH  17  18
ATOM     18  C   UNL     1       5.558   3.928  13.317  0.00  0.00    +0.000 C 
BRANCH  18  19
ATOM     19  O   UNL     1       6.479   3.374  12.367  0.00  0.00    +0.000 OA
ATOM     20  C   UNL     1       5.933   2.255  11.682  0.00  0.00    +0.000 C 
ENDBRANCH  18  19
ENDBRANCH  17  18
ENDBRANCH   4  17
TORSDOF 4
ENDMDL
MODEL 9
REMARK VINA RESULT:      -5.9      3.306      4.857
REMARK  Name = 
REMARK  6 active torsions:
REMARK  status: ('A' for Active; 'I' for Inactive)
REMARK    1  A    between atoms: C_1  and  C_2
REMARK    2  A    between atoms: C_2  and  C_3
REMARK    3  A    between atoms: N_6  and  C_7
REMARK    4  A    between atoms: C_7  and  C_8
REMARK    5  A    between atoms: C_8  and  O_9
REMARK    6  A    between atoms: O_9  and  C_10
REMARK                            x       y       z     vdW  Elec       q    Type
REMARK                         _______ _______ _______ _____ _____    ______ ____
ROOT
ATOM      1  C   UNL     1       6.644   5.718  18.517  0.00  0.00    +0.000 A 
ATOM      2  N   UNL     1       6.469   5.165  17.296  0.00  0.00    +0.000 NA
ATOM      3  C   UNL     1       5.361   4.429  17.053  0.00  0.00    +0.000 A 
ATOM      4  N   UNL     1       5.114   3.942  15.792  0.00  0.00    +0.000 N 
ATOM      5  C   UNL     1       4.463   4.206  18.110  0.00  0.00    +0.000 A 
ATOM      6  C   UNL     1       3.270   3.447  18.245  0.00  0.00    +0.000 A 
ATOM      7  C   UNL     1       2.751   3.500  19.511  0.00  0.00    +0.000 A 
ATOM      8  S   UNL     1       3.629   4.452  20.567  0.00  0.00    +0.000 S 
ATOM      9  C   UNL     1       4.776   4.804  19.327  0.00  0.00    +0.000 A 
ATOM     10  N   UNL     1       5.844   5.576  19.583  0.00  0.00    +0.000 NA
ATOM     11  C   UNL     1       1.533   2.679  19.692  0.00  0.00    +0.000 C 
ATOM     12  C   UNL     1       1.157   2.379  18.210  0.00  0.00    +0.000 C 
ATOM     13  C   UNL     1       2.461   2.560  17.374  0.00  0.00    +0.000 C 
ATOM     14  H   UNL     1       4.217   3.519  15.606  0.00  0.00    +0.000 HD
ENDROOT
BRANCH   1  16
ATOM     15  C   UNL     1       7.862   7.768  17.785  0.00  0.00    +0.000 C 
ATOM     16  C   UNL     1       7.878   6.560  18.706  0.00  0.00    +0.000 C 
ENDBRANCH   1  16
BRANCH   4  17
ATOM     17  C   UNL     1       6.189   3.547  14.904  0.00  0.00    +0.000 C 
BRANCH  17  18
ATOM     18  C   UNL     1       6.380   4.643  13.837  0.00  0.00    +0.000 C 
BRANCH  18  19
ATOM     19  O   UNL     1       7.614   5.333  14.075  0.00  0.00    +0.000 OA
ATOM     20  C   UNL     1       8.300   5.635  12.867  0.00  0.00    +0.000 C 
ENDBRANCH  18  19
ENDBRANCH  17  18
ENDBRANCH   4  17
TORSDOF 4
ENDMDL
