MODEL 1
REMARK VINA RESULT:      -8.7      0.000      0.000
REMARK  Name = 
REMARK  5 active torsions:
REMARK  status: ('A' for Active; 'I' for Inactive)
REMARK    1  A    between atoms: C_4  and  N_5
REMARK    2  A    between atoms: C_14  and  C_15
REMARK    3  A    between atoms: C_15  and  N_16
REMARK    4  A    between atoms: N_16  and  C_17
REMARK    5  A    between atoms: C_17  and  C_18
REMARK                            x       y       z     vdW  Elec       q    Type
REMARK                         _______ _______ _______ _____ _____    ______ ____
ROOT
ATOM      1  C   UNL     1       7.671   6.647  18.216  0.00  0.00    +0.000 A 
ATOM      2  C   UNL     1       7.605   5.508  18.982  0.00  0.00    +0.000 A 
ATOM      3  N   UNL     1       6.505   4.736  19.058  0.00  0.00    +0.000 NA
ATOM      4  C   UNL     1       5.392   5.118  18.362  0.00  0.00    +0.000 A 
ATOM      5  C   UNL     1       5.315   6.336  17.667  0.00  0.00    +0.000 A 
ATOM      6  C   UNL     1       6.529   7.028  17.523  0.00  0.00    +0.000 A 
ENDROOT
BRANCH   4   7
ATOM      7  N   UNL     1       4.337   4.167  18.376  0.00  0.00    +0.000 N 
ATOM      8  C   UNL     1       4.170   3.197  17.415  0.00  0.00    +0.000 A 
ATOM      9  N   UNL     1       3.229   2.334  17.727  0.00  0.00    +0.000 NA
ATOM     10  C   UNL     1       2.681   2.820  18.887  0.00  0.00    +0.000 A 
ATOM     11  C   UNL     1       1.644   2.292  19.669  0.00  0.00    +0.000 A 
ATOM     12  C   UNL     1       1.220   2.994  20.805  0.00  0.00    +0.000 A 
ATOM     13  C   UNL     1       1.773   4.232  21.118  0.00  0.00    +0.000 A 
ATOM     14  C   UNL     1       2.781   4.794  20.327  0.00  0.00    +0.000 A 
ATOM     15  C   UNL     1       3.279   4.021  19.264  0.00  0.00    +0.000 A 
ENDBRANCH   4   7
BRANCH   5  16
ATOM     16  C   UNL     1       4.023   6.983  17.139  0.00  0.00    +0.000 C 
BRANCH  16  17
ATOM     17  N   UNL     1       3.098   7.481  18.132  0.00  0.00    +0.000 NA
ATOM     18  H   UNL     1       3.586   7.899  18.917  0.00  0.00    +0.000 HD
BRANCH  17  19
ATOM     19  C   UNL     1       2.048   8.365  17.643  0.00  0.00    +0.000 C 
BRANCH  19  20
ATOM     20  C   UNL     1       1.703   9.387  18.699  0.00  0.00    +0.000 A 
ATOM     21  C   UNL     1       1.162   8.881  19.905  0.00  0.00    +0.000 A 
ATOM     22  C   UNL     1       0.219   9.652  20.585  0.00  0.00    +0.000 A 
ATOM     23  C   UNL     1      -0.103  10.832  19.986  0.00  0.00    +0.000 A 
ATOM     24  C   UNL     1       0.723  11.515  19.090  0.00  0.00    +0.000 A 
ATOM     25  C   UNL     1       1.612  10.738  18.360  0.00  0.00    +0.000 A 
ATOM     26  C   UNL     1      -0.034  12.687  18.626  0.00  0.00    +0.000 C 
ATOM     27  C   UNL     1      -1.305  11.895  18.427  0.00  0.00    +0.000 C 
ATOM     28  O   UNL     1      -1.446  11.162  19.692  0.00  0.00    +0.000 OA
ENDBRANCH  19  20
ENDBRANCH  17  19
ENDBRANCH  16  17
ENDBRANCH   5  16
TORSDOF 5
ENDMDL
MODEL 2
REMARK VINA RESULT:      -8.6      0.920      1.463
REMARK  Name = 
REMARK  5 active torsions:
REMARK  status: ('A' for Active; 'I' for Inactive)
REMARK    1  A    between atoms: C_4  and  N_5
REMARK    2  A    between atoms: C_14  and  C_15
REMARK    3  A    between atoms: C_15  and  N_16
REMARK    4  A    between atoms: N_16  and  C_17
REMARK    5  A    between atoms: C_17  and  C_18
REMARK                            x       y       z     vdW  Elec       q    Type
REMARK                         _______ _______ _______ _____ _____    ______ ____
ROOT
ATOM      1  C   UNL     1       7.405   6.465  17.844  0.00  0.00    +0.000 A 
ATOM      2  C   UNL     1       7.266   5.294  18.547  0.00  0.00    +0.000 A 
ATOM      3  N   UNL     1       6.095   4.638  18.660  0.00  0.00    +0.000 NA
ATOM      4  C   UNL     1       4.987   5.178  18.070  0.00  0.00    +0.000 A 
ATOM      5  C   UNL     1       4.997   6.438  17.451  0.00  0.00    +0.000 A 
ATOM      6  C   UNL     1       6.267   7.007  17.258  0.00  0.00    +0.000 A 
ENDROOT
BRANCH   4   7
ATOM      7  N   UNL     1       3.838   4.343  18.107  0.00  0.00    +0.000 N 
ATOM      8  C   UNL     1       3.372   3.636  17.023  0.00  0.00    +0.000 A 
ATOM      9  N   UNL     1       2.400   2.809  17.340  0.00  0.00    +0.000 NA
ATOM     10  C   UNL     1       2.144   3.064  18.663  0.00  0.00    +0.000 A 
ATOM     11  C   UNL     1       1.209   2.463  19.519  0.00  0.00    +0.000 A 
ATOM     12  C   UNL     1       1.098   2.922  20.838  0.00  0.00    +0.000 A 
ATOM     13  C   UNL     1       1.855   4.003  21.277  0.00  0.00    +0.000 A 
ATOM     14  C   UNL     1       2.764   4.641  20.426  0.00  0.00    +0.000 A 
ATOM     15  C   UNL     1       2.953   4.091  19.147  0.00  0.00    +0.000 A 
ENDBRANCH   4   7
BRANCH   5  16
ATOM     16  C   UNL     1       3.751   7.250  17.055  0.00  0.00    +0.000 C 
BRANCH  16  17
ATOM     17  N   UNL     1       2.904   7.700  18.137  0.00  0.00    +0.000 NA
ATOM     18  H   UNL     1       3.322   7.507  19.041  0.00  0.00    +0.000 HD
BRANCH  17  19
ATOM     19  C   UNL     1       2.446   9.081  18.059  0.00  0.00    +0.000 C 
BRANCH  19  20
ATOM     20  C   UNL     1       1.091   9.211  18.712  0.00  0.00    +0.000 A 
ATOM     21  C   UNL     1       0.034   9.648  17.877  0.00  0.00    +0.000 A 
ATOM     22  C   UNL     1      -0.972  10.435  18.437  0.00  0.00    +0.000 A 
ATOM     23  C   UNL     1      -0.813  10.722  19.759  0.00  0.00    +0.000 A 
ATOM     24  C   UNL     1      -0.063   9.952  20.651  0.00  0.00    +0.000 A 
ATOM     25  C   UNL     1       0.984   9.224  20.104  0.00  0.00    +0.000 A 
ATOM     26  C   UNL     1      -0.089  10.655  21.942  0.00  0.00    +0.000 C 
ATOM     27  C   UNL     1       0.165  12.003  21.311  0.00  0.00    +0.000 C 
ATOM     28  O   UNL     1      -0.822  12.057  20.225  0.00  0.00    +0.000 OA
ENDBRANCH  19  20
ENDBRANCH  17  19
ENDBRANCH  16  17
ENDBRANCH   5  16
TORSDOF 5
ENDMDL
MODEL 3
REMARK VINA RESULT:      -8.4      1.725      4.309
REMARK  Name = 
REMARK  5 active torsions:
REMARK  status: ('A' for Active; 'I' for Inactive)
REMARK    1  A    between atoms: C_4  and  N_5
REMARK    2  A    between atoms: C_14  and  C_15
REMARK    3  A    between atoms: C_15  and  N_16
REMARK    4  A    between atoms: N_16  and  C_17
REMARK    5  A    between atoms: C_17  and  C_18
REMARK                            x       y       z     vdW  Elec       q    Type
REMARK                         _______ _______ _______ _____ _____    ______ ____
ROOT
ATOM      1  C   UNL     1       1.025   3.151  20.439  0.00  0.00    +0.000 A 
ATOM      2  C   UNL     1       1.948   2.349  19.813  0.00  0.00    +0.000 A 
ATOM      3  N   UNL     1       3.074   2.826  19.248  0.00  0.00    +0.000 NA
ATOM      4  C   UNL     1       3.294   4.175  19.274  0.00  0.00    +0.000 A 
ATOM      5  C   UNL     1       2.346   5.088  19.762  0.00  0.00    +0.000 A 
ATOM      6  C   UNL     1       1.258   4.521  20.448  0.00  0.00    +0.000 A 
ENDROOT
BRANCH   4   7
ATOM      7  N   UNL     1       4.573   4.569  18.797  0.00  0.00    +0.000 N 
ATOM      8  C   UNL     1       5.553   5.110  19.595  0.00  0.00    +0.000 A 
ATOM      9  N   UNL     1       6.701   5.239  18.968  0.00  0.00    +0.000 NA
ATOM     10  C   UNL     1       6.435   4.870  17.674  0.00  0.00    +0.000 A 
ATOM     11  C   UNL     1       7.299   4.807  16.572  0.00  0.00    +0.000 A 
ATOM     12  C   UNL     1       6.786   4.437  15.322  0.00  0.00    +0.000 A 
ATOM     13  C   UNL     1       5.425   4.198  15.158  0.00  0.00    +0.000 A 
ATOM     14  C   UNL     1       4.541   4.294  16.238  0.00  0.00    +0.000 A 
ATOM     15  C   UNL     1       5.089   4.546  17.508  0.00  0.00    +0.000 A 
ENDBRANCH   4   7
BRANCH   5  16
ATOM     16  C   UNL     1       2.372   6.610  19.539  0.00  0.00    +0.000 C 
BRANCH  16  17
ATOM     17  N   UNL     1       2.217   7.437  20.714  0.00  0.00    +0.000 NA
ATOM     18  H   UNL     1       2.750   8.297  20.636  0.00  0.00    +0.000 HD
BRANCH  17  19
ATOM     19  C   UNL     1       0.846   7.711  21.127  0.00  0.00    +0.000 C 
BRANCH  19  20
ATOM     20  C   UNL     1       0.738   9.126  21.644  0.00  0.00    +0.000 A 
ATOM     21  C   UNL     1      -0.028   9.303  22.821  0.00  0.00    +0.000 A 
ATOM     22  C   UNL     1      -0.748  10.488  22.972  0.00  0.00    +0.000 A 
ATOM     23  C   UNL     1      -0.650  11.361  21.930  0.00  0.00    +0.000 A 
ATOM     24  C   UNL     1       0.414  11.396  21.025  0.00  0.00    +0.000 A 
ATOM     25  C   UNL     1       1.086  10.199  20.822  0.00  0.00    +0.000 A 
ATOM     26  C   UNL     1       0.085  12.422  20.025  0.00  0.00    +0.000 C 
ATOM     27  C   UNL     1      -1.344  11.952  19.888  0.00  0.00    +0.000 C 
ATOM     28  O   UNL     1      -1.802  11.857  21.280  0.00  0.00    +0.000 OA
ENDBRANCH  19  20
ENDBRANCH  17  19
ENDBRANCH  16  17
ENDBRANCH   5  16
TORSDOF 5
ENDMDL
MODEL 4
REMARK VINA RESULT:      -8.3      1.603      4.123
REMARK  Name = 
REMARK  5 active torsions:
REMARK  status: ('A' for Active; 'I' for Inactive)
REMARK    1  A    between atoms: C_4  and  N_5
REMARK    2  A    between atoms: C_14  and  C_15
REMARK    3  A    between atoms: C_15  and  N_16
REMARK    4  A    between atoms: N_16  and  C_17
REMARK    5  A    between atoms: C_17  and  C_18
REMARK                            x       y       z     vdW  Elec       q    Type
REMARK                         _______ _______ _______ _____ _____    ______ ____
ROOT
ATOM      1  C   UNL     1       1.428   3.925  20.853  0.00  0.00    +0.000 A 
ATOM      2  C   UNL     1       2.491   3.057  20.785  0.00  0.00    +0.000 A 
ATOM      3  N   UNL     1       3.596   3.304  20.056  0.00  0.00    +0.000 NA
ATOM      4  C   UNL     1       3.651   4.459  19.327  0.00  0.00    +0.000 A 
ATOM      5  C   UNL     1       2.562   5.339  19.219  0.00  0.00    +0.000 A 
ATOM      6  C   UNL     1       1.494   5.090  20.099  0.00  0.00    +0.000 A 
ENDROOT
BRANCH   4   7
ATOM      7  N   UNL     1       4.910   4.709  18.718  0.00  0.00    +0.000 N 
ATOM      8  C   UNL     1       6.010   5.174  19.399  0.00  0.00    +0.000 A 
ATOM      9  N   UNL     1       7.099   5.168  18.663  0.00  0.00    +0.000 NA
ATOM     10  C   UNL     1       6.675   4.787  17.416  0.00  0.00    +0.000 A 
ATOM     11  C   UNL     1       7.419   4.604  16.241  0.00  0.00    +0.000 A 
ATOM     12  C   UNL     1       6.755   4.247  15.061  0.00  0.00    +0.000 A 
ATOM     13  C   UNL     1       5.368   4.140  15.034  0.00  0.00    +0.000 A 
ATOM     14  C   UNL     1       4.605   4.358  16.186  0.00  0.00    +0.000 A 
ATOM     15  C   UNL     1       5.295   4.594  17.388  0.00  0.00    +0.000 A 
ENDBRANCH   4   7
BRANCH   5  16
ATOM     16  C   UNL     1       2.425   6.470  18.186  0.00  0.00    +0.000 C 
BRANCH  16  17
ATOM     17  N   UNL     1       2.931   7.766  18.578  0.00  0.00    +0.000 NA
ATOM     18  H   UNL     1       3.938   7.822  18.463  0.00  0.00    +0.000 HD
BRANCH  17  19
ATOM     19  C   UNL     1       2.274   8.919  17.976  0.00  0.00    +0.000 C 
BRANCH  19  20
ATOM     20  C   UNL     1       0.950   9.170  18.657  0.00  0.00    +0.000 A 
ATOM     21  C   UNL     1      -0.099   9.636  17.828  0.00  0.00    +0.000 A 
ATOM     22  C   UNL     1      -1.036  10.514  18.374  0.00  0.00    +0.000 A 
ATOM     23  C   UNL     1      -0.821  10.852  19.677  0.00  0.00    +0.000 A 
ATOM     24  C   UNL     1      -0.098  10.077  20.586  0.00  0.00    +0.000 A 
ATOM     25  C   UNL     1       0.884   9.256  20.048  0.00  0.00    +0.000 A 
ATOM     26  C   UNL     1      -0.040  10.840  21.841  0.00  0.00    +0.000 C 
ATOM     27  C   UNL     1       0.282  12.137  21.138  0.00  0.00    +0.000 C 
ATOM     28  O   UNL     1      -0.730  12.205  20.076  0.00  0.00    +0.000 OA
ENDBRANCH  19  20
ENDBRANCH  17  19
ENDBRANCH  16  17
ENDBRANCH   5  16
TORSDOF 5
ENDMDL
MODEL 5
REMARK VINA RESULT:      -8.3      1.612      4.245
REMARK  Name = 
REMARK  5 active torsions:
REMARK  status: ('A' for Active; 'I' for Inactive)
REMARK    1  A    between atoms: C_4  and  N_5
REMARK    2  A    between atoms: C_14  and  C_15
REMARK    3  A    between atoms: C_15  and  N_16
REMARK    4  A    between atoms: N_16  and  C_17
REMARK    5  A    between atoms: C_17  and  C_18
REMARK                            x       y       z     vdW  Elec       q    Type
REMARK                         _______ _______ _______ _____ _____    ______ ____
ROOT
ATOM      1  C   UNL     1       1.241   3.401  20.582  0.00  0.00    +0.000 A 
ATOM      2  C   UNL     1       2.356   2.601  20.518  0.00  0.00    +0.000 A 
ATOM      3  N   UNL     1       3.482   2.959  19.871  0.00  0.00    +0.000 NA
ATOM      4  C   UNL     1       3.505   4.163  19.224  0.00  0.00    +0.000 A 
ATOM      5  C   UNL     1       2.372   4.985  19.112  0.00  0.00    +0.000 A 
ATOM      6  C   UNL     1       1.276   4.616  19.911  0.00  0.00    +0.000 A 
ENDROOT
BRANCH   4   7
ATOM      7  N   UNL     1       4.777   4.525  18.705  0.00  0.00    +0.000 N 
ATOM      8  C   UNL     1       5.805   5.017  19.475  0.00  0.00    +0.000 A 
ATOM      9  N   UNL     1       6.932   5.121  18.806  0.00  0.00    +0.000 NA
ATOM     10  C   UNL     1       6.604   4.787  17.517  0.00  0.00    +0.000 A 
ATOM     11  C   UNL     1       7.423   4.718  16.381  0.00  0.00    +0.000 A 
ATOM     12  C   UNL     1       6.851   4.390  15.145  0.00  0.00    +0.000 A 
ATOM     13  C   UNL     1       5.477   4.200  15.030  0.00  0.00    +0.000 A 
ATOM     14  C   UNL     1       4.638   4.303  16.145  0.00  0.00    +0.000 A 
ATOM     15  C   UNL     1       5.243   4.511  17.397  0.00  0.00    +0.000 A 
ENDBRANCH   4   7
BRANCH   5  16
ATOM     16  C   UNL     1       2.223   6.175  18.148  0.00  0.00    +0.000 C 
BRANCH  16  17
ATOM     17  N   UNL     1       2.519   7.482  18.688  0.00  0.00    +0.000 NA
ATOM     18  H   UNL     1       3.330   7.458  19.297  0.00  0.00    +0.000 HD
BRANCH  17  19
ATOM     19  C   UNL     1       2.630   8.565  17.719  0.00  0.00    +0.000 C 
BRANCH  19  20
ATOM     20  C   UNL     1       1.701   9.693  18.099  0.00  0.00    +0.000 A 
ATOM     21  C   UNL     1       2.229  11.002  17.983  0.00  0.00    +0.000 A 
ATOM     22  C   UNL     1       1.806  11.971  18.893  0.00  0.00    +0.000 A 
ATOM     23  C   UNL     1       0.921  11.534  19.833  0.00  0.00    +0.000 A 
ATOM     24  C   UNL     1       0.086  10.425  19.678  0.00  0.00    +0.000 A 
ATOM     25  C   UNL     1       0.541   9.428  18.828  0.00  0.00    +0.000 A 
ATOM     26  C   UNL     1      -0.638  10.261  20.947  0.00  0.00    +0.000 C 
ATOM     27  C   UNL     1       0.601  10.485  21.782  0.00  0.00    +0.000 C 
ATOM     28  O   UNL     1       1.173  11.711  21.212  0.00  0.00    +0.000 OA
ENDBRANCH  19  20
ENDBRANCH  17  19
ENDBRANCH  16  17
ENDBRANCH   5  16
TORSDOF 5
ENDMDL
MODEL 6
REMARK VINA RESULT:      -8.2      1.692      4.101
REMARK  Name = 
REMARK  5 active torsions:
REMARK  status: ('A' for Active; 'I' for Inactive)
REMARK    1  A    between atoms: C_4  and  N_5
REMARK    2  A    between atoms: C_14  and  C_15
REMARK    3  A    between atoms: C_15  and  N_16
REMARK    4  A    between atoms: N_16  and  C_17
REMARK    5  A    between atoms: C_17  and  C_18
REMARK                            x       y       z     vdW  Elec       q    Type
REMARK                         _______ _______ _______ _____ _____    ______ ____
ROOT
ATOM      1  C   UNL     1       1.559   3.894  20.884  0.00  0.00    +0.000 A 
ATOM      2  C   UNL     1       2.579   2.993  20.694  0.00  0.00    +0.000 A 
ATOM      3  N   UNL     1       3.671   3.263  19.954  0.00  0.00    +0.000 NA
ATOM      4  C   UNL     1       3.755   4.481  19.340  0.00  0.00    +0.000 A 
ATOM      5  C   UNL     1       2.705   5.412  19.356  0.00  0.00    +0.000 A 
ATOM      6  C   UNL     1       1.655   5.123  20.245  0.00  0.00    +0.000 A 
ENDROOT
BRANCH   4   7
ATOM      7  N   UNL     1       5.005   4.736  18.713  0.00  0.00    +0.000 N 
ATOM      8  C   UNL     1       6.120   5.180  19.385  0.00  0.00    +0.000 A 
ATOM      9  N   UNL     1       7.196   5.183  18.629  0.00  0.00    +0.000 NA
ATOM     10  C   UNL     1       6.747   4.831  17.382  0.00  0.00    +0.000 A 
ATOM     11  C   UNL     1       7.469   4.669  16.191  0.00  0.00    +0.000 A 
ATOM     12  C   UNL     1       6.782   4.341  15.015  0.00  0.00    +0.000 A 
ATOM     13  C   UNL     1       5.394   4.243  15.011  0.00  0.00    +0.000 A 
ATOM     14  C   UNL     1       4.653   4.441  16.181  0.00  0.00    +0.000 A 
ATOM     15  C   UNL     1       5.366   4.647  17.375  0.00  0.00    +0.000 A 
ENDBRANCH   4   7
BRANCH   5  16
ATOM     16  C   UNL     1       2.588   6.645  18.443  0.00  0.00    +0.000 C 
BRANCH  16  17
ATOM     17  N   UNL     1       2.166   7.876  19.072  0.00  0.00    +0.000 NA
ATOM     18  H   UNL     1       2.819   8.169  19.791  0.00  0.00    +0.000 HD
BRANCH  17  19
ATOM     19  C   UNL     1       1.852   8.979  18.174  0.00  0.00    +0.000 C 
BRANCH  19  20
ATOM     20  C   UNL     1       0.698   9.781  18.727  0.00  0.00    +0.000 A 
ATOM     21  C   UNL     1      -0.499   9.754  17.972  0.00  0.00    +0.000 A 
ATOM     22  C   UNL     1      -1.301  10.896  17.958  0.00  0.00    +0.000 A 
ATOM     23  C   UNL     1      -0.819  11.949  18.676  0.00  0.00    +0.000 A 
ATOM     24  C   UNL     1       0.076  11.836  19.743  0.00  0.00    +0.000 A 
ATOM     25  C   UNL     1       0.923  10.737  19.719  0.00  0.00    +0.000 A 
ATOM     26  C   UNL     1       0.393  13.204  20.175  0.00  0.00    +0.000 C 
ATOM     27  C   UNL     1       0.565  13.704  18.760  0.00  0.00    +0.000 C 
ATOM     28  O   UNL     1      -0.645  13.220  18.084  0.00  0.00    +0.000 OA
ENDBRANCH  19  20
ENDBRANCH  17  19
ENDBRANCH  16  17
ENDBRANCH   5  16
TORSDOF 5
ENDMDL
MODEL 7
REMARK VINA RESULT:      -8.2      1.615      4.319
REMARK  Name = 
REMARK  5 active torsions:
REMARK  status: ('A' for Active; 'I' for Inactive)
REMARK    1  A    between atoms: C_4  and  N_5
REMARK    2  A    between atoms: C_14  and  C_15
REMARK    3  A    between atoms: C_15  and  N_16
REMARK    4  A    between atoms: N_16  and  C_17
REMARK    5  A    between atoms: C_17  and  C_18
REMARK                            x       y       z     vdW  Elec       q    Type
REMARK                         _______ _______ _______ _____ _____    ______ ____
ROOT
ATOM      1  C   UNL     1       2.058   3.046  20.799  0.00  0.00    +0.000 A 
ATOM      2  C   UNL     1       2.854   2.508  19.817  0.00  0.00    +0.000 A 
ATOM      3  N   UNL     1       3.578   3.258  18.964  0.00  0.00    +0.000 NA
ATOM      4  C   UNL     1       3.494   4.619  19.062  0.00  0.00    +0.000 A 
ATOM      5  C   UNL     1       2.603   5.262  19.936  0.00  0.00    +0.000 A 
ATOM      6  C   UNL     1       1.976   4.431  20.879  0.00  0.00    +0.000 A 
ENDROOT
BRANCH   4   7
ATOM      7  N   UNL     1       4.406   5.323  18.230  0.00  0.00    +0.000 N 
ATOM      8  C   UNL     1       4.102   5.762  16.963  0.00  0.00    +0.000 A 
ATOM      9  N   UNL     1       5.041   6.530  16.456  0.00  0.00    +0.000 NA
ATOM     10  C   UNL     1       6.050   6.505  17.384  0.00  0.00    +0.000 A 
ATOM     11  C   UNL     1       7.291   7.158  17.365  0.00  0.00    +0.000 A 
ATOM     12  C   UNL     1       8.189   6.948  18.420  0.00  0.00    +0.000 A 
ATOM     13  C   UNL     1       7.885   6.052  19.440  0.00  0.00    +0.000 A 
ATOM     14  C   UNL     1       6.669   5.361  19.455  0.00  0.00    +0.000 A 
ATOM     15  C   UNL     1       5.730   5.676  18.458  0.00  0.00    +0.000 A 
ENDBRANCH   4   7
BRANCH   5  16
ATOM     16  C   UNL     1       2.217   6.751  19.884  0.00  0.00    +0.000 C 
BRANCH  16  17
ATOM     17  N   UNL     1       1.861   7.368  21.141  0.00  0.00    +0.000 NA
ATOM     18  H   UNL     1       2.505   8.115  21.384  0.00  0.00    +0.000 HD
BRANCH  17  19
ATOM     19  C   UNL     1       0.479   7.812  21.267  0.00  0.00    +0.000 C 
BRANCH  19  20
ATOM     20  C   UNL     1       0.440   9.241  21.755  0.00  0.00    +0.000 A 
ATOM     21  C   UNL     1      -0.257   9.468  22.966  0.00  0.00    +0.000 A 
ATOM     22  C   UNL     1      -0.933  10.677  23.126  0.00  0.00    +0.000 A 
ATOM     23  C   UNL     1      -0.865  11.523  22.060  0.00  0.00    +0.000 A 
ATOM     24  C   UNL     1       0.150  11.506  21.100  0.00  0.00    +0.000 A 
ATOM     25  C   UNL     1       0.775  10.284  20.890  0.00  0.00    +0.000 A 
ATOM     26  C   UNL     1      -0.202  12.518  20.095  0.00  0.00    +0.000 C 
ATOM     27  C   UNL     1      -1.649  12.090  20.044  0.00  0.00    +0.000 C 
ATOM     28  O   UNL     1      -2.035  12.040  21.459  0.00  0.00    +0.000 OA
ENDBRANCH  19  20
ENDBRANCH  17  19
ENDBRANCH  16  17
ENDBRANCH   5  16
TORSDOF 5
ENDMDL
MODEL 8
REMARK VINA RESULT:      -8.2      0.962      1.484
REMARK  Name = 
REMARK  5 active torsions:
REMARK  status: ('A' for Active; 'I' for Inactive)
REMARK    1  A    between atoms: C_4  and  N_5
REMARK    2  A    between atoms: C_14  and  C_15
REMARK    3  A    between atoms: C_15  and  N_16
REMARK    4  A    between atoms: N_16  and  C_17
REMARK    5  A    between atoms: C_17  and  C_18
REMARK                            x       y       z     vdW  Elec       q    Type
REMARK                         _______ _______ _______ _____ _____    ______ ____
ROOT
ATOM      1  C   UNL     1       7.717   6.646  18.431  0.00  0.00    +0.000 A 
ATOM      2  C   UNL     1       7.506   5.618  19.318  0.00  0.00    +0.000 A 
ATOM      3  N   UNL     1       6.380   4.879  19.332  0.00  0.00    +0.000 NA
ATOM      4  C   UNL     1       5.390   5.184  18.440  0.00  0.00    +0.000 A 
ATOM      5  C   UNL     1       5.452   6.302  17.592  0.00  0.00    +0.000 A 
ATOM      6  C   UNL     1       6.697   6.951  17.538  0.00  0.00    +0.000 A 
ENDROOT
BRANCH   4   7
ATOM      7  N   UNL     1       4.312   4.259  18.422  0.00  0.00    +0.000 N 
ATOM      8  C   UNL     1       4.131   3.316  17.438  0.00  0.00    +0.000 A 
ATOM      9  N   UNL     1       3.167   2.469  17.721  0.00  0.00    +0.000 NA
ATOM     10  C   UNL     1       2.619   2.942  18.886  0.00  0.00    +0.000 A 
ATOM     11  C   UNL     1       1.562   2.421  19.647  0.00  0.00    +0.000 A 
ATOM     12  C   UNL     1       1.144   3.108  20.794  0.00  0.00    +0.000 A 
ATOM     13  C   UNL     1       1.723   4.324  21.141  0.00  0.00    +0.000 A 
ATOM     14  C   UNL     1       2.752   4.879  20.372  0.00  0.00    +0.000 A 
ATOM     15  C   UNL     1       3.242   4.119  19.296  0.00  0.00    +0.000 A 
ENDBRANCH   4   7
BRANCH   5  16
ATOM     16  C   UNL     1       4.270   6.894  16.805  0.00  0.00    +0.000 C 
BRANCH  16  17
ATOM     17  N   UNL     1       3.694   8.113  17.327  0.00  0.00    +0.000 NA
ATOM     18  H   UNL     1       3.546   8.798  16.593  0.00  0.00    +0.000 HD
BRANCH  17  19
ATOM     19  C   UNL     1       2.497   7.957  18.143  0.00  0.00    +0.000 C 
BRANCH  19  20
ATOM     20  C   UNL     1       1.707   9.244  18.148  0.00  0.00    +0.000 A 
ATOM     21  C   UNL     1       2.423  10.418  17.812  0.00  0.00    +0.000 A 
ATOM     22  C   UNL     1       2.059  11.616  18.427  0.00  0.00    +0.000 A 
ATOM     23  C   UNL     1       1.039  11.519  19.324  0.00  0.00    +0.000 A 
ATOM     24  C   UNL     1       0.073  10.510  19.317  0.00  0.00    +0.000 A 
ATOM     25  C   UNL     1       0.458   9.295  18.770  0.00  0.00    +0.000 A 
ATOM     26  C   UNL     1      -0.781  10.735  20.492  0.00  0.00    +0.000 C 
ATOM     27  C   UNL     1       0.394  11.002  21.403  0.00  0.00    +0.000 C 
ATOM     28  O   UNL     1       1.185  11.984  20.651  0.00  0.00    +0.000 OA
ENDBRANCH  19  20
ENDBRANCH  17  19
ENDBRANCH  16  17
ENDBRANCH   5  16
TORSDOF 5
ENDMDL
MODEL 9
REMARK VINA RESULT:      -8.2      1.767      4.474
REMARK  Name = 
REMARK  5 active torsions:
REMARK  status: ('A' for Active; 'I' for Inactive)
REMARK    1  A    between atoms: C_4  and  N_5
REMARK    2  A    between atoms: C_14  and  C_15
REMARK    3  A    between atoms: C_15  and  N_16
REMARK    4  A    between atoms: N_16  and  C_17
REMARK    5  A    between atoms: C_17  and  C_18
REMARK                            x       y       z     vdW  Elec       q    Type
REMARK                         _______ _______ _______ _____ _____    ______ ____
ROOT
ATOM      1  C   UNL     1       0.926   2.911  20.185  0.00  0.00    +0.000 A 
ATOM      2  C   UNL     1       1.834   2.184  19.453  0.00  0.00    +0.000 A 
ATOM      3  N   UNL     1       2.970   2.711  18.959  0.00  0.00    +0.000 NA
ATOM      4  C   UNL     1       3.219   4.038  19.172  0.00  0.00    +0.000 A 
ATOM      5  C   UNL     1       2.288   4.895  19.783  0.00  0.00    +0.000 A 
ATOM      6  C   UNL     1       1.188   4.261  20.384  0.00  0.00    +0.000 A 
ENDROOT
BRANCH   4   7
ATOM      7  N   UNL     1       4.506   4.468  18.753  0.00  0.00    +0.000 N 
ATOM      8  C   UNL     1       5.452   4.989  19.604  0.00  0.00    +0.000 A 
ATOM      9  N   UNL     1       6.618   5.158  19.021  0.00  0.00    +0.000 NA
ATOM     10  C   UNL     1       6.399   4.839  17.705  0.00  0.00    +0.000 A 
ATOM     11  C   UNL     1       7.300   4.832  16.630  0.00  0.00    +0.000 A 
ATOM     12  C   UNL     1       6.833   4.506  15.350  0.00  0.00    +0.000 A 
ATOM     13  C   UNL     1       5.481   4.256  15.133  0.00  0.00    +0.000 A 
ATOM     14  C   UNL     1       4.561   4.297  16.186  0.00  0.00    +0.000 A 
ATOM     15  C   UNL     1       5.064   4.505  17.482  0.00  0.00    +0.000 A 
ENDBRANCH   4   7
BRANCH   5  16
ATOM     16  C   UNL     1       2.347   6.432  19.773  0.00  0.00    +0.000 C 
BRANCH  16  17
ATOM     17  N   UNL     1       1.593   7.113  20.801  0.00  0.00    +0.000 NA
ATOM     18  H   UNL     1       1.733   6.684  21.710  0.00  0.00    +0.000 HD
BRANCH  17  19
ATOM     19  C   UNL     1       1.770   8.557  20.875  0.00  0.00    +0.000 C 
BRANCH  19  20
ATOM     20  C   UNL     1       0.425   9.243  20.836  0.00  0.00    +0.000 A 
ATOM     21  C   UNL     1      -0.055   9.603  19.554  0.00  0.00    +0.000 A 
ATOM     22  C   UNL     1      -0.823  10.761  19.434  0.00  0.00    +0.000 A 
ATOM     23  C   UNL     1      -1.016  11.450  20.594  0.00  0.00    +0.000 A 
ATOM     24  C   UNL     1      -0.943  10.886  21.870  0.00  0.00    +0.000 A 
ATOM     25  C   UNL     1      -0.122   9.775  22.004  0.00  0.00    +0.000 A 
ATOM     26  C   UNL     1      -1.132  11.983  22.829  0.00  0.00    +0.000 C 
ATOM     27  C   UNL     1      -0.205  12.912  22.080  0.00  0.00    +0.000 C 
ATOM     28  O   UNL     1      -0.684  12.820  20.696  0.00  0.00    +0.000 OA
ENDBRANCH  19  20
ENDBRANCH  17  19
ENDBRANCH  16  17
ENDBRANCH   5  16
TORSDOF 5
ENDMDL
