MODEL 1
REMARK VINA RESULT:      -7.9      0.000      0.000
REMARK  Name = 
REMARK  9 active torsions:
REMARK  status: ('A' for Active; 'I' for Inactive)
REMARK    1  A    between atoms: C_1  and  O_2
REMARK    2  A    between atoms: O_2  and  C_3
REMARK    3  A    between atoms: C_7  and  C_8
REMARK    4  A    between atoms: C_8  and  C_9
REMARK    5  A    between atoms: C_11  and  C_12
REMARK    6  A    between atoms: N_14  and  C_15
REMARK    7  A    between atoms: C_15  and  C_16
REMARK    8  A    between atoms: C_16  and  O_17
REMARK    9  A    between atoms: O_17  and  C_18
REMARK                            x       y       z     vdW  Elec       q    Type
REMARK                         _______ _______ _______ _____ _____    ______ ____
ROOT
ATOM      1  C   UNL     1       5.637   4.428  18.397  0.00  0.00    +0.000 A 
ATOM      2  C   UNL     1       5.238   4.456  17.119  0.00  0.00    +0.000 A 
ATOM      3  C   UNL     1       5.851   5.461  16.234  0.00  0.00    +0.000 A 
ATOM      4  C   UNL     1       5.446   5.469  14.783  0.00  0.00    +0.000 C 
ATOM      5  N   UNL     1       6.695   6.358  16.630  0.00  0.00    +0.000 NA
ATOM      6  N   UNL     1       7.093   6.338  17.948  0.00  0.00    +0.000 N 
ATOM      7  C   UNL     1       6.728   5.340  18.847  0.00  0.00    +0.000 A 
ATOM      8  O   UNL     1       7.233   5.207  19.959  0.00  0.00    +0.000 OA
ENDROOT
BRANCH   1   9
ATOM      9  C   UNL     1       5.012   3.526  19.426  0.00  0.00    +0.000 C 
BRANCH   9  14
ATOM     10  C   UNL     1       1.868   5.470  20.418  0.00  0.00    +0.000 A 
ATOM     11  C   UNL     1       0.898   4.470  20.310  0.00  0.00    +0.000 A 
ATOM     12  C   UNL     1       1.245   3.189  19.886  0.00  0.00    +0.000 A 
ATOM     13  C   UNL     1       2.570   2.893  19.578  0.00  0.00    +0.000 A 
ATOM     14  C   UNL     1       3.560   3.881  19.680  0.00  0.00    +0.000 A 
ATOM     15  C   UNL     1       3.194   5.176  20.093  0.00  0.00    +0.000 A 
BRANCH  10  17
ATOM     16  C   UNL     1       1.835   7.841  20.194  0.00  0.00    +0.000 C 
ATOM     17  O   UNL     1       1.392   6.671  20.867  0.00  0.00    +0.000 OA
ENDBRANCH  10  17
ENDBRANCH   9  14
ENDBRANCH   1   9
BRANCH   6  18
ATOM     18  C   UNL     1       8.013   7.398  18.383  0.00  0.00    +0.000 C 
BRANCH  18  19
ATOM     19  C   UNL     1       7.688   8.768  17.785  0.00  0.00    +0.000 C 
BRANCH  19  20
ATOM     20  O   UNL     1       8.870   9.532  17.522  0.00  0.00    +0.000 OA
BRANCH  20  21
ATOM     21  C   UNL     1       9.095  10.543  18.427  0.00  0.00    +0.000 A 
ATOM     22  C   UNL     1       8.911  11.841  17.951  0.00  0.00    +0.000 A 
ATOM     23  C   UNL     1       9.120  12.944  18.794  0.00  0.00    +0.000 A 
ATOM     24  C   UNL     1       9.495  12.738  20.118  0.00  0.00    +0.000 A 
ATOM     25 BR   UNL     1       9.785  14.217  21.261  0.00  0.00    +0.000 Br
ATOM     26  C   UNL     1       9.661  11.447  20.610  0.00  0.00    +0.000 A 
ATOM     27  C   UNL     1       9.454  10.352  19.767  0.00  0.00    +0.000 A 
ENDBRANCH  20  21
ENDBRANCH  19  20
ENDBRANCH  18  19
ENDBRANCH   6  18
TORSDOF 7
ENDMDL
MODEL 2
REMARK VINA RESULT:      -7.9      4.363      7.439
REMARK  Name = 
REMARK  9 active torsions:
REMARK  status: ('A' for Active; 'I' for Inactive)
REMARK    1  A    between atoms: C_1  and  O_2
REMARK    2  A    between atoms: O_2  and  C_3
REMARK    3  A    between atoms: C_7  and  C_8
REMARK    4  A    between atoms: C_8  and  C_9
REMARK    5  A    between atoms: C_11  and  C_12
REMARK    6  A    between atoms: N_14  and  C_15
REMARK    7  A    between atoms: C_15  and  C_16
REMARK    8  A    between atoms: C_16  and  O_17
REMARK    9  A    between atoms: O_17  and  C_18
REMARK                            x       y       z     vdW  Elec       q    Type
REMARK                         _______ _______ _______ _____ _____    ______ ____
ROOT
ATOM      1  C   UNL     1       2.691   4.010  18.350  0.00  0.00    +0.000 A 
ATOM      2  C   UNL     1       2.472   3.166  19.366  0.00  0.00    +0.000 A 
ATOM      3  C   UNL     1       2.080   3.744  20.662  0.00  0.00    +0.000 A 
ATOM      4  C   UNL     1       1.784   2.799  21.798  0.00  0.00    +0.000 C 
ATOM      5  N   UNL     1       2.001   5.014  20.897  0.00  0.00    +0.000 NA
ATOM      6  N   UNL     1       2.240   5.882  19.855  0.00  0.00    +0.000 N 
ATOM      7  C   UNL     1       2.448   5.470  18.542  0.00  0.00    +0.000 A 
ATOM      8  O   UNL     1       2.465   6.235  17.582  0.00  0.00    +0.000 OA
ENDROOT
BRANCH   1   9
ATOM      9  C   UNL     1       3.202   3.558  17.009  0.00  0.00    +0.000 C 
BRANCH   9  14
ATOM     10  C   UNL     1       6.856   4.502  17.646  0.00  0.00    +0.000 A 
ATOM     11  C   UNL     1       7.238   4.937  16.375  0.00  0.00    +0.000 A 
ATOM     12  C   UNL     1       6.339   4.894  15.310  0.00  0.00    +0.000 A 
ATOM     13  C   UNL     1       5.044   4.425  15.513  0.00  0.00    +0.000 A 
ATOM     14  C   UNL     1       4.639   3.985  16.780  0.00  0.00    +0.000 A 
ATOM     15  C   UNL     1       5.561   4.018  17.843  0.00  0.00    +0.000 A 
BRANCH  10  17
ATOM     16  C   UNL     1       7.845   5.820  19.366  0.00  0.00    +0.000 C 
ATOM     17  O   UNL     1       7.828   4.623  18.600  0.00  0.00    +0.000 OA
ENDBRANCH  10  17
ENDBRANCH   9  14
ENDBRANCH   1   9
BRANCH   6  18
ATOM     18  C   UNL     1       2.192   7.319  20.160  0.00  0.00    +0.000 C 
BRANCH  18  19
ATOM     19  C   UNL     1       1.065   7.699  21.122  0.00  0.00    +0.000 C 
BRANCH  19  20
ATOM     20  O   UNL     1       1.427   8.797  21.965  0.00  0.00    +0.000 OA
BRANCH  20  21
ATOM     21  C   UNL     1       0.464   9.776  22.054  0.00  0.00    +0.000 A 
ATOM     22  C   UNL     1       0.339  10.613  20.946  0.00  0.00    +0.000 A 
ATOM     23  C   UNL     1      -0.611  11.646  20.939  0.00  0.00    +0.000 A 
ATOM     24  C   UNL     1      -1.446  11.822  22.039  0.00  0.00    +0.000 A 
ATOM     25 BR   UNL     1      -2.725  13.215  22.043  0.00  0.00    +0.000 Br
ATOM     26  C   UNL     1      -1.344  10.980  23.142  0.00  0.00    +0.000 A 
ATOM     27  C   UNL     1      -0.395   9.953  23.145  0.00  0.00    +0.000 A 
ENDBRANCH  20  21
ENDBRANCH  19  20
ENDBRANCH  18  19
ENDBRANCH   6  18
TORSDOF 7
ENDMDL
MODEL 3
REMARK VINA RESULT:      -7.9      1.719      2.361
REMARK  Name = 
REMARK  9 active torsions:
REMARK  status: ('A' for Active; 'I' for Inactive)
REMARK    1  A    between atoms: C_1  and  O_2
REMARK    2  A    between atoms: O_2  and  C_3
REMARK    3  A    between atoms: C_7  and  C_8
REMARK    4  A    between atoms: C_8  and  C_9
REMARK    5  A    between atoms: C_11  and  C_12
REMARK    6  A    between atoms: N_14  and  C_15
REMARK    7  A    between atoms: C_15  and  C_16
REMARK    8  A    between atoms: C_16  and  O_17
REMARK    9  A    between atoms: O_17  and  C_18
REMARK                            x       y       z     vdW  Elec       q    Type
REMARK                         _______ _______ _______ _____ _____    ______ ____
ROOT
ATOM      1  C   UNL     1       4.621   5.672  16.929  0.00  0.00    +0.000 A 
ATOM      2  C   UNL     1       5.015   5.243  15.723  0.00  0.00    +0.000 A 
ATOM      3  C   UNL     1       6.453   5.301  15.414  0.00  0.00    +0.000 A 
ATOM      4  C   UNL     1       6.912   4.775  14.078  0.00  0.00    +0.000 C 
ATOM      5  N   UNL     1       7.346   5.801  16.206  0.00  0.00    +0.000 NA
ATOM      6  N   UNL     1       6.939   6.254  17.439  0.00  0.00    +0.000 N 
ATOM      7  C   UNL     1       5.644   6.101  17.927  0.00  0.00    +0.000 A 
ATOM      8  O   UNL     1       5.323   6.322  19.092  0.00  0.00    +0.000 OA
ENDROOT
BRANCH   1   9
ATOM      9  C   UNL     1       3.174   5.769  17.328  0.00  0.00    +0.000 C 
BRANCH   9  14
ATOM     10  C   UNL     1       1.552   3.195  19.650  0.00  0.00    +0.000 A 
ATOM     11  C   UNL     1       1.845   2.010  18.971  0.00  0.00    +0.000 A 
ATOM     12  C   UNL     1       2.527   2.039  17.756  0.00  0.00    +0.000 A 
ATOM     13  C   UNL     1       2.933   3.256  17.216  0.00  0.00    +0.000 A 
ATOM     14  C   UNL     1       2.651   4.457  17.880  0.00  0.00    +0.000 A 
ATOM     15  C   UNL     1       1.947   4.416  19.098  0.00  0.00    +0.000 A 
BRANCH  10  17
ATOM     16  C   UNL     1       1.677   2.592  21.951  0.00  0.00    +0.000 C 
ATOM     17  O   UNL     1       0.900   3.017  20.839  0.00  0.00    +0.000 OA
ENDBRANCH  10  17
ENDBRANCH   9  14
ENDBRANCH   1   9
BRANCH   6  18
ATOM     18  C   UNL     1       7.964   6.863  18.299  0.00  0.00    +0.000 C 
BRANCH  18  19
ATOM     19  C   UNL     1       8.144   8.363  18.060  0.00  0.00    +0.000 C 
BRANCH  19  20
ATOM     20  O   UNL     1       8.931   8.978  19.085  0.00  0.00    +0.000 OA
BRANCH  20  21
ATOM     21  C   UNL     1       9.152  10.322  18.892  0.00  0.00    +0.000 A 
ATOM     22  C   UNL     1       9.975  10.947  19.829  0.00  0.00    +0.000 A 
ATOM     23  C   UNL     1      10.258  12.318  19.723  0.00  0.00    +0.000 A 
ATOM     24  C   UNL     1       9.730  13.052  18.665  0.00  0.00    +0.000 A 
ATOM     25 BR   UNL     1      10.101  14.900  18.517  0.00  0.00    +0.000 Br
ATOM     26  C   UNL     1       8.926  12.434  17.712  0.00  0.00    +0.000 A 
ATOM     27  C   UNL     1       8.644  11.069  17.822  0.00  0.00    +0.000 A 
ENDBRANCH  20  21
ENDBRANCH  19  20
ENDBRANCH  18  19
ENDBRANCH   6  18
TORSDOF 7
ENDMDL
MODEL 4
REMARK VINA RESULT:      -7.7      1.170      1.623
REMARK  Name = 
REMARK  9 active torsions:
REMARK  status: ('A' for Active; 'I' for Inactive)
REMARK    1  A    between atoms: C_1  and  O_2
REMARK    2  A    between atoms: O_2  and  C_3
REMARK    3  A    between atoms: C_7  and  C_8
REMARK    4  A    between atoms: C_8  and  C_9
REMARK    5  A    between atoms: C_11  and  C_12
REMARK    6  A    between atoms: N_14  and  C_15
REMARK    7  A    between atoms: C_15  and  C_16
REMARK    8  A    between atoms: C_16  and  O_17
REMARK    9  A    between atoms: O_17  and  C_18
REMARK                            x       y       z     vdW  Elec       q    Type
REMARK                         _______ _______ _______ _____ _____    ______ ____
ROOT
ATOM      1  C   UNL     1       5.353   4.239  17.321  0.00  0.00    +0.000 A 
ATOM      2  C   UNL     1       5.538   4.192  15.996  0.00  0.00    +0.000 A 
ATOM      3  C   UNL     1       6.600   5.036  15.424  0.00  0.00    +0.000 A 
ATOM      4  C   UNL     1       6.850   4.953  13.941  0.00  0.00    +0.000 C 
ATOM      5  N   UNL     1       7.316   5.867  16.111  0.00  0.00    +0.000 NA
ATOM      6  N   UNL     1       7.114   5.927  17.471  0.00  0.00    +0.000 N 
ATOM      7  C   UNL     1       6.269   5.063  18.163  0.00  0.00    +0.000 A 
ATOM      8  O   UNL     1       6.234   4.979  19.387  0.00  0.00    +0.000 OA
ENDROOT
BRANCH   1   9
ATOM      9  C   UNL     1       4.233   3.513  18.015  0.00  0.00    +0.000 C 
BRANCH   9  14
ATOM     10  C   UNL     1       2.300   6.632  19.101  0.00  0.00    +0.000 A 
ATOM     11  C   UNL     1       1.890   6.252  20.382  0.00  0.00    +0.000 A 
ATOM     12  C   UNL     1       2.201   4.987  20.880  0.00  0.00    +0.000 A 
ATOM     13  C   UNL     1       2.936   4.096  20.104  0.00  0.00    +0.000 A 
ATOM     14  C   UNL     1       3.359   4.457  18.817  0.00  0.00    +0.000 A 
ATOM     15  C   UNL     1       3.024   5.730  18.319  0.00  0.00    +0.000 A 
BRANCH  10  17
ATOM     16  C   UNL     1       2.679   8.519  17.699  0.00  0.00    +0.000 C 
ATOM     17  O   UNL     1       1.947   7.906  18.751  0.00  0.00    +0.000 OA
ENDBRANCH  10  17
ENDBRANCH   9  14
ENDBRANCH   1   9
BRANCH   6  18
ATOM     18  C   UNL     1       7.904   6.914  18.220  0.00  0.00    +0.000 C 
BRANCH  18  19
ATOM     19  C   UNL     1       7.474   8.359  17.959  0.00  0.00    +0.000 C 
BRANCH  19  20
ATOM     20  O   UNL     1       8.552   9.155  17.454  0.00  0.00    +0.000 OA
BRANCH  20  21
ATOM     21  C   UNL     1       8.857  10.245  18.237  0.00  0.00    +0.000 A 
ATOM     22  C   UNL     1       9.205   9.969  19.560  0.00  0.00    +0.000 A 
ATOM     23  C   UNL     1       9.529  11.012  20.441  0.00  0.00    +0.000 A 
ATOM     24  C   UNL     1       9.522  12.327  19.986  0.00  0.00    +0.000 A 
ATOM     25 BR   UNL     1       9.952  13.740  21.167  0.00  0.00    +0.000 Br
ATOM     26  C   UNL     1       9.198  12.612  18.663  0.00  0.00    +0.000 A 
ATOM     27  C   UNL     1       8.873  11.571  17.789  0.00  0.00    +0.000 A 
ENDBRANCH  20  21
ENDBRANCH  19  20
ENDBRANCH  18  19
ENDBRANCH   6  18
TORSDOF 7
ENDMDL
MODEL 5
REMARK VINA RESULT:      -7.6      4.763      7.655
REMARK  Name = 
REMARK  9 active torsions:
REMARK  status: ('A' for Active; 'I' for Inactive)
REMARK    1  A    between atoms: C_1  and  O_2
REMARK    2  A    between atoms: O_2  and  C_3
REMARK    3  A    between atoms: C_7  and  C_8
REMARK    4  A    between atoms: C_8  and  C_9
REMARK    5  A    between atoms: C_11  and  C_12
REMARK    6  A    between atoms: N_14  and  C_15
REMARK    7  A    between atoms: C_15  and  C_16
REMARK    8  A    between atoms: C_16  and  O_17
REMARK    9  A    between atoms: O_17  and  C_18
REMARK                            x       y       z     vdW  Elec       q    Type
REMARK                         _______ _______ _______ _____ _____    ______ ____
ROOT
ATOM      1  C   UNL     1       5.259   4.734  16.618  0.00  0.00    +0.000 A 
ATOM      2  C   UNL     1       4.372   3.797  16.975  0.00  0.00    +0.000 A 
ATOM      3  C   UNL     1       3.097   4.248  17.556  0.00  0.00    +0.000 A 
ATOM      4  C   UNL     1       2.072   3.202  17.914  0.00  0.00    +0.000 C 
ATOM      5  N   UNL     1       2.809   5.485  17.804  0.00  0.00    +0.000 NA
ATOM      6  N   UNL     1       3.727   6.448  17.450  0.00  0.00    +0.000 N 
ATOM      7  C   UNL     1       4.892   6.176  16.739  0.00  0.00    +0.000 A 
ATOM      8  O   UNL     1       5.612   7.044  16.251  0.00  0.00    +0.000 OA
ENDROOT
BRANCH   1   9
ATOM      9  C   UNL     1       6.639   4.405  16.118  0.00  0.00    +0.000 C 
BRANCH   9  14
ATOM     10  C   UNL     1       6.053   3.386  12.476  0.00  0.00    +0.000 A 
ATOM     11  C   UNL     1       6.950   4.233  11.821  0.00  0.00    +0.000 A 
ATOM     12  C   UNL     1       7.713   5.151  12.540  0.00  0.00    +0.000 A 
ATOM     13  C   UNL     1       7.592   5.221  13.925  0.00  0.00    +0.000 A 
ATOM     14  C   UNL     1       6.699   4.381  14.603  0.00  0.00    +0.000 A 
ATOM     15  C   UNL     1       5.922   3.469  13.864  0.00  0.00    +0.000 A 
BRANCH  10  17
ATOM     16  C   UNL     1       6.079   1.346  11.248  0.00  0.00    +0.000 C 
ATOM     17  O   UNL     1       5.389   2.521  11.650  0.00  0.00    +0.000 OA
ENDBRANCH  10  17
ENDBRANCH   9  14
ENDBRANCH   1   9
BRANCH   6  18
ATOM     18  C   UNL     1       3.398   7.839  17.789  0.00  0.00    +0.000 C 
BRANCH  18  19
ATOM     19  C   UNL     1       2.220   7.967  18.757  0.00  0.00    +0.000 C 
BRANCH  19  20
ATOM     20  O   UNL     1       1.330   9.022  18.379  0.00  0.00    +0.000 OA
BRANCH  20  21
ATOM     21  C   UNL     1       0.734   9.659  19.444  0.00  0.00    +0.000 A 
ATOM     22  C   UNL     1       0.241  10.939  19.191  0.00  0.00    +0.000 A 
ATOM     23  C   UNL     1      -0.380  11.676  20.211  0.00  0.00    +0.000 A 
ATOM     24  C   UNL     1      -0.521  11.116  21.478  0.00  0.00    +0.000 A 
ATOM     25 BR   UNL     1      -1.351  12.102  22.862  0.00  0.00    +0.000 Br
ATOM     26  C   UNL     1      -0.052   9.832  21.736  0.00  0.00    +0.000 A 
ATOM     27  C   UNL     1       0.568   9.102  20.717  0.00  0.00    +0.000 A 
ENDBRANCH  20  21
ENDBRANCH  19  20
ENDBRANCH  18  19
ENDBRANCH   6  18
TORSDOF 7
ENDMDL
MODEL 6
REMARK VINA RESULT:      -7.6      5.283      8.702
REMARK  Name = 
REMARK  9 active torsions:
REMARK  status: ('A' for Active; 'I' for Inactive)
REMARK    1  A    between atoms: C_1  and  O_2
REMARK    2  A    between atoms: O_2  and  C_3
REMARK    3  A    between atoms: C_7  and  C_8
REMARK    4  A    between atoms: C_8  and  C_9
REMARK    5  A    between atoms: C_11  and  C_12
REMARK    6  A    between atoms: N_14  and  C_15
REMARK    7  A    between atoms: C_15  and  C_16
REMARK    8  A    between atoms: C_16  and  O_17
REMARK    9  A    between atoms: O_17  and  C_18
REMARK                            x       y       z     vdW  Elec       q    Type
REMARK                         _______ _______ _______ _____ _____    ______ ____
ROOT
ATOM      1  C   UNL     1       0.278  10.518  19.642  0.00  0.00    +0.000 A 
ATOM      2  C   UNL     1      -0.128  10.484  20.917  0.00  0.00    +0.000 A 
ATOM      3  C   UNL     1       0.356   9.377  21.759  0.00  0.00    +0.000 A 
ATOM      4  C   UNL     1      -0.055   9.358  23.209  0.00  0.00    +0.000 C 
ATOM      5  N   UNL     1       1.091   8.404  21.327  0.00  0.00    +0.000 NA
ATOM      6  N   UNL     1       1.496   8.432  20.012  0.00  0.00    +0.000 N 
ATOM      7  C   UNL     1       1.257   9.503  19.155  0.00  0.00    +0.000 A 
ATOM      8  O   UNL     1       1.780   9.622  18.050  0.00  0.00    +0.000 OA
ENDROOT
BRANCH   1   9
ATOM      9  C   UNL     1      -0.229  11.529  18.650  0.00  0.00    +0.000 C 
BRANCH   9  14
ATOM     10  C   UNL     1      -4.028  11.560  18.185  0.00  0.00    +0.000 A 
ATOM     11  C   UNL     1      -4.201  10.435  17.375  0.00  0.00    +0.000 A 
ATOM     12  C   UNL     1      -3.101   9.692  16.950  0.00  0.00    +0.000 A 
ATOM     13  C   UNL     1      -1.818  10.062  17.344  0.00  0.00    +0.000 A 
ATOM     14  C   UNL     1      -1.621  11.186  18.157  0.00  0.00    +0.000 A 
ATOM     15  C   UNL     1      -2.739  11.939  18.565  0.00  0.00    +0.000 A 
BRANCH  10  17
ATOM     16  C   UNL     1      -6.146  12.424  17.521  0.00  0.00    +0.000 C 
ATOM     17  O   UNL     1      -5.193  12.180  18.546  0.00  0.00    +0.000 OA
ENDBRANCH  10  17
ENDBRANCH   9  14
ENDBRANCH   1   9
BRANCH   6  18
ATOM     18  C   UNL     1       2.287   7.289  19.533  0.00  0.00    +0.000 C 
BRANCH  18  19
ATOM     19  C   UNL     1       1.937   5.974  20.230  0.00  0.00    +0.000 C 
BRANCH  19  20
ATOM     20  O   UNL     1       3.083   5.131  20.389  0.00  0.00    +0.000 OA
BRANCH  20  21
ATOM     21  C   UNL     1       3.712   4.812  19.208  0.00  0.00    +0.000 A 
ATOM     22  C   UNL     1       5.067   5.135  19.130  0.00  0.00    +0.000 A 
ATOM     23  C   UNL     1       5.798   4.856  17.965  0.00  0.00    +0.000 A 
ATOM     24  C   UNL     1       5.170   4.235  16.889  0.00  0.00    +0.000 A 
ATOM     25 BR   UNL     1       6.146   3.859  15.313  0.00  0.00    +0.000 Br
ATOM     26  C   UNL     1       3.825   3.888  16.963  0.00  0.00    +0.000 A 
ATOM     27  C   UNL     1       3.099   4.171  18.124  0.00  0.00    +0.000 A 
ENDBRANCH  20  21
ENDBRANCH  19  20
ENDBRANCH  18  19
ENDBRANCH   6  18
TORSDOF 7
ENDMDL
MODEL 7
REMARK VINA RESULT:      -7.5      1.692      2.387
REMARK  Name = 
REMARK  9 active torsions:
REMARK  status: ('A' for Active; 'I' for Inactive)
REMARK    1  A    between atoms: C_1  and  O_2
REMARK    2  A    between atoms: O_2  and  C_3
REMARK    3  A    between atoms: C_7  and  C_8
REMARK    4  A    between atoms: C_8  and  C_9
REMARK    5  A    between atoms: C_11  and  C_12
REMARK    6  A    between atoms: N_14  and  C_15
REMARK    7  A    between atoms: C_15  and  C_16
REMARK    8  A    between atoms: C_16  and  O_17
REMARK    9  A    between atoms: O_17  and  C_18
REMARK                            x       y       z     vdW  Elec       q    Type
REMARK                         _______ _______ _______ _____ _____    ______ ____
ROOT
ATOM      1  C   UNL     1       4.818   5.289  17.495  0.00  0.00    +0.000 A 
ATOM      2  C   UNL     1       5.024   5.020  16.200  0.00  0.00    +0.000 A 
ATOM      3  C   UNL     1       6.360   5.299  15.647  0.00  0.00    +0.000 A 
ATOM      4  C   UNL     1       6.616   4.953  14.203  0.00  0.00    +0.000 C 
ATOM      5  N   UNL     1       7.322   5.848  16.316  0.00  0.00    +0.000 NA
ATOM      6  N   UNL     1       7.105   6.138  17.644  0.00  0.00    +0.000 N 
ATOM      7  C   UNL     1       5.954   5.769  18.335  0.00  0.00    +0.000 A 
ATOM      8  O   UNL     1       5.837   5.847  19.555  0.00  0.00    +0.000 OA
ENDROOT
BRANCH   1   9
ATOM      9  C   UNL     1       3.472   5.154  18.153  0.00  0.00    +0.000 C 
BRANCH   9  14
ATOM     10  C   UNL     1       1.791   7.941  20.166  0.00  0.00    +0.000 A 
ATOM     11  C   UNL     1       1.682   8.936  19.192  0.00  0.00    +0.000 A 
ATOM     12  C   UNL     1       2.178   8.728  17.906  0.00  0.00    +0.000 A 
ATOM     13  C   UNL     1       2.777   7.515  17.580  0.00  0.00    +0.000 A 
ATOM     14  C   UNL     1       2.897   6.501  18.541  0.00  0.00    +0.000 A 
ATOM     15  C   UNL     1       2.407   6.730  19.841  0.00  0.00    +0.000 A 
BRANCH  10  17
ATOM     16  C   UNL     1      -0.072   8.812  21.366  0.00  0.00    +0.000 C 
ATOM     17  O   UNL     1       1.241   8.271  21.374  0.00  0.00    +0.000 OA
ENDBRANCH  10  17
ENDBRANCH   9  14
ENDBRANCH   1   9
BRANCH   6  18
ATOM     18  C   UNL     1       8.195   6.808  18.368  0.00  0.00    +0.000 C 
BRANCH  18  19
ATOM     19  C   UNL     1       8.204   8.327  18.183  0.00  0.00    +0.000 C 
BRANCH  19  20
ATOM     20  O   UNL     1       8.842   8.995  19.275  0.00  0.00    +0.000 OA
BRANCH  20  21
ATOM     21  C   UNL     1       9.200  10.296  19.004  0.00  0.00    +0.000 A 
ATOM     22  C   UNL     1       8.494  10.922  17.976  0.00  0.00    +0.000 A 
ATOM     23  C   UNL     1       8.786  12.246  17.618  0.00  0.00    +0.000 A 
ATOM     24  C   UNL     1       9.773  12.946  18.307  0.00  0.00    +0.000 A 
ATOM     25 BR   UNL     1      10.178  14.730  17.829  0.00  0.00    +0.000 Br
ATOM     26  C   UNL     1      10.468  12.339  19.348  0.00  0.00    +0.000 A 
ATOM     27  C   UNL     1      10.176  11.018  19.700  0.00  0.00    +0.000 A 
ENDBRANCH  20  21
ENDBRANCH  19  20
ENDBRANCH  18  19
ENDBRANCH   6  18
TORSDOF 7
ENDMDL
MODEL 8
REMARK VINA RESULT:      -7.4      4.634      7.321
REMARK  Name = 
REMARK  9 active torsions:
REMARK  status: ('A' for Active; 'I' for Inactive)
REMARK    1  A    between atoms: C_1  and  O_2
REMARK    2  A    between atoms: O_2  and  C_3
REMARK    3  A    between atoms: C_7  and  C_8
REMARK    4  A    between atoms: C_8  and  C_9
REMARK    5  A    between atoms: C_11  and  C_12
REMARK    6  A    between atoms: N_14  and  C_15
REMARK    7  A    between atoms: C_15  and  C_16
REMARK    8  A    between atoms: C_16  and  O_17
REMARK    9  A    between atoms: O_17  and  C_18
REMARK                            x       y       z     vdW  Elec       q    Type
REMARK                         _______ _______ _______ _____ _____    ______ ____
ROOT
ATOM      1  C   UNL     1       5.237   4.775  16.674  0.00  0.00    +0.000 A 
ATOM      2  C   UNL     1       4.349   3.855  17.069  0.00  0.00    +0.000 A 
ATOM      3  C   UNL     1       3.074   4.333  17.631  0.00  0.00    +0.000 A 
ATOM      4  C   UNL     1       2.048   3.305  18.032  0.00  0.00    +0.000 C 
ATOM      5  N   UNL     1       2.790   5.580  17.828  0.00  0.00    +0.000 NA
ATOM      6  N   UNL     1       3.710   6.525  17.435  0.00  0.00    +0.000 N 
ATOM      7  C   UNL     1       4.874   6.221  16.735  0.00  0.00    +0.000 A 
ATOM      8  O   UNL     1       5.595   7.067  16.212  0.00  0.00    +0.000 OA
ENDROOT
BRANCH   1   9
ATOM      9  C   UNL     1       6.616   4.422  16.187  0.00  0.00    +0.000 C 
BRANCH   9  14
ATOM     10  C   UNL     1       6.024   3.445  12.534  0.00  0.00    +0.000 A 
ATOM     11  C   UNL     1       6.967   4.252  11.893  0.00  0.00    +0.000 A 
ATOM     12  C   UNL     1       7.762   5.133  12.624  0.00  0.00    +0.000 A 
ATOM     13  C   UNL     1       7.630   5.203  14.008  0.00  0.00    +0.000 A 
ATOM     14  C   UNL     1       6.692   4.401  14.673  0.00  0.00    +0.000 A 
ATOM     15  C   UNL     1       5.882   3.529  13.921  0.00  0.00    +0.000 A 
BRANCH  10  17
ATOM     16  C   UNL     1       4.112   3.102  11.157  0.00  0.00    +0.000 C 
ATOM     17  O   UNL     1       5.331   2.614  11.698  0.00  0.00    +0.000 OA
ENDBRANCH  10  17
ENDBRANCH   9  14
ENDBRANCH   1   9
BRANCH   6  18
ATOM     18  C   UNL     1       3.384   7.930  17.716  0.00  0.00    +0.000 C 
BRANCH  18  19
ATOM     19  C   UNL     1       2.070   8.109  18.479  0.00  0.00    +0.000 C 
BRANCH  19  20
ATOM     20  O   UNL     1       1.253   9.135  17.906  0.00  0.00    +0.000 OA
BRANCH  20  21
ATOM     21  C   UNL     1       0.896  10.126  18.791  0.00  0.00    +0.000 A 
ATOM     22  C   UNL     1       1.613  11.319  18.694  0.00  0.00    +0.000 A 
ATOM     23  C   UNL     1       1.329  12.390  19.554  0.00  0.00    +0.000 A 
ATOM     24  C   UNL     1       0.312  12.267  20.497  0.00  0.00    +0.000 A 
ATOM     25 BR   UNL     1      -0.074  13.702  21.666  0.00  0.00    +0.000 Br
ATOM     26  C   UNL     1      -0.423  11.089  20.589  0.00  0.00    +0.000 A 
ATOM     27  C   UNL     1      -0.135  10.023  19.731  0.00  0.00    +0.000 A 
ENDBRANCH  20  21
ENDBRANCH  19  20
ENDBRANCH  18  19
ENDBRANCH   6  18
TORSDOF 7
ENDMDL
MODEL 9
REMARK VINA RESULT:      -7.4      1.269      1.486
REMARK  Name = 
REMARK  9 active torsions:
REMARK  status: ('A' for Active; 'I' for Inactive)
REMARK    1  A    between atoms: C_1  and  O_2
REMARK    2  A    between atoms: O_2  and  C_3
REMARK    3  A    between atoms: C_7  and  C_8
REMARK    4  A    between atoms: C_8  and  C_9
REMARK    5  A    between atoms: C_11  and  C_12
REMARK    6  A    between atoms: N_14  and  C_15
REMARK    7  A    between atoms: C_15  and  C_16
REMARK    8  A    between atoms: C_16  and  O_17
REMARK    9  A    between atoms: O_17  and  C_18
REMARK                            x       y       z     vdW  Elec       q    Type
REMARK                         _______ _______ _______ _____ _____    ______ ____
ROOT
ATOM      1  C   UNL     1       5.701   5.006  18.432  0.00  0.00    +0.000 A 
ATOM      2  C   UNL     1       5.085   5.359  17.297  0.00  0.00    +0.000 A 
ATOM      3  C   UNL     1       5.655   6.479  16.530  0.00  0.00    +0.000 A 
ATOM      4  C   UNL     1       4.998   6.852  15.226  0.00  0.00    +0.000 C 
ATOM      5  N   UNL     1       6.669   7.183  16.918  0.00  0.00    +0.000 NA
ATOM      6  N   UNL     1       7.293   6.829  18.092  0.00  0.00    +0.000 N 
ATOM      7  C   UNL     1       6.968   5.690  18.824  0.00  0.00    +0.000 A 
ATOM      8  O   UNL     1       7.644   5.263  19.756  0.00  0.00    +0.000 OA
ENDROOT
BRANCH   1   9
ATOM      9  C   UNL     1       5.159   3.955  19.362  0.00  0.00    +0.000 C 
BRANCH   9  14
ATOM     10  C   UNL     1       1.828   5.499  20.442  0.00  0.00    +0.000 A 
ATOM     11  C   UNL     1       0.967   4.414  20.260  0.00  0.00    +0.000 A 
ATOM     12  C   UNL     1       1.445   3.205  19.758  0.00  0.00    +0.000 A 
ATOM     13  C   UNL     1       2.795   3.067  19.446  0.00  0.00    +0.000 A 
ATOM     14  C   UNL     1       3.677   4.142  19.622  0.00  0.00    +0.000 A 
ATOM     15  C   UNL     1       3.178   5.363  20.113  0.00  0.00    +0.000 A 
BRANCH  10  17
ATOM     16  C   UNL     1       1.723   7.876  20.539  0.00  0.00    +0.000 C 
ATOM     17  O   UNL     1       1.229   6.613  20.963  0.00  0.00    +0.000 OA
ENDBRANCH  10  17
ENDBRANCH   9  14
ENDBRANCH   1   9
BRANCH   6  18
ATOM     18  C   UNL     1       8.410   7.675  18.536  0.00  0.00    +0.000 C 
BRANCH  18  19
ATOM     19  C   UNL     1       8.260   9.142  18.128  0.00  0.00    +0.000 C 
BRANCH  19  20
ATOM     20  O   UNL     1       8.740  10.031  19.142  0.00  0.00    +0.000 OA
BRANCH  20  21
ATOM     21  C   UNL     1       9.386  11.142  18.652  0.00  0.00    +0.000 A 
ATOM     22  C   UNL     1       8.923  12.374  19.116  0.00  0.00    +0.000 A 
ATOM     23  C   UNL     1       9.512  13.567  18.673  0.00  0.00    +0.000 A 
ATOM     24  C   UNL     1      10.578  13.520  17.780  0.00  0.00    +0.000 A 
ATOM     25 BR   UNL     1      11.376  15.124  17.172  0.00  0.00    +0.000 Br
ATOM     26  C   UNL     1      11.063  12.297  17.327  0.00  0.00    +0.000 A 
ATOM     27  C   UNL     1      10.472  11.110  17.769  0.00  0.00    +0.000 A 
ENDBRANCH  20  21
ENDBRANCH  19  20
ENDBRANCH  18  19
ENDBRANCH   6  18
TORSDOF 7
ENDMDL
