MODEL 1
REMARK VINA RESULT:      -8.6      0.000      0.000
REMARK  Name = 
REMARK  5 active torsions:
REMARK  status: ('A' for Active; 'I' for Inactive)
REMARK    1  A    between atoms: C_1  and  C_2
REMARK    2  A    between atoms: N_5  and  C_6
REMARK    3  A    between atoms: C_6  and  C_7
REMARK    4  A    between atoms: C_20  and  C_21
REMARK    5  A    between atoms: C_22  and  N_23
REMARK                            x       y       z     vdW  Elec       q    Type
REMARK                         _______ _______ _______ _____ _____    ______ ____
ROOT
ATOM      1  C   UNL     1       3.500   2.140  18.997  0.00  0.00    +0.000 C 
ATOM      2  C   UNL     1       3.577   3.615  18.736  0.00  0.00    +0.000 A 
ATOM      3  N   UNL     1       4.440   3.977  17.758  0.00  0.00    +0.000 NA
ATOM      4  C   UNL     1       4.476   5.258  17.380  0.00  0.00    +0.000 A 
ATOM      5  N   UNL     1       5.367   5.677  16.413  0.00  0.00    +0.000 N 
ATOM      6  N   UNL     1       3.690   6.196  17.918  0.00  0.00    +0.000 NA
ATOM      7  C   UNL     1       2.898   5.868  18.972  0.00  0.00    +0.000 A 
ATOM      8  N   UNL     1       2.237   6.961  19.620  0.00  0.00    +0.000 N 
ATOM      9  C   UNL     1       1.869   7.060  20.948  0.00  0.00    +0.000 A 
ATOM     10  C   UNL     1       1.276   8.290  21.094  0.00  0.00    +0.000 A 
ATOM     11  N   UNL     1       1.308   8.981  19.923  0.00  0.00    +0.000 NA
ATOM     12  C   UNL     1       1.903   8.189  19.049  0.00  0.00    +0.000 A 
ATOM     13  C   UNL     1       2.111   8.541  17.620  0.00  0.00    +0.000 C 
ATOM     14  C   UNL     1       2.806   4.557  19.398  0.00  0.00    +0.000 A 
ATOM     15  H   UNL     1       4.846   5.915  15.579  0.00  0.00    +0.000 HD
ENDROOT
BRANCH  14  16
ATOM     16  N   UNL     1       1.829   4.118  20.352  0.00  0.00    +0.000 N 
ATOM     17  O   UNL     1       0.679   3.938  19.937  0.00  0.00    +0.000 OA
ATOM     18  O   UNL     1       2.210   3.968  21.518  0.00  0.00    +0.000 OA
ENDBRANCH  14  16
BRANCH   5  19
ATOM     19  C   UNL     1       6.484   4.784  16.163  0.00  0.00    +0.000 C 
BRANCH  19  20
ATOM     20  C   UNL     1       6.640   4.599  14.670  0.00  0.00    +0.000 A 
ATOM     21  C   UNL     1       7.615   5.336  13.968  0.00  0.00    +0.000 A 
ATOM     22  C   UNL     1       7.808   5.149  12.597  0.00  0.00    +0.000 A 
ATOM     23  C   UNL     1       7.030   4.221  11.912  0.00  0.00    +0.000 A 
ATOM     24  C   UNL     1       6.069   3.490  12.602  0.00  0.00    +0.000 A 
ATOM     25  F   UNL     1       5.328   2.591  11.941  0.00  0.00    +0.000 F 
ATOM     26  C   UNL     1       5.867   3.668  13.967  0.00  0.00    +0.000 A 
ENDBRANCH  19  20
ENDBRANCH   5  19
TORSDOF 3
ENDMDL
MODEL 2
REMARK VINA RESULT:      -8.3      0.953      1.488
REMARK  Name = 
REMARK  5 active torsions:
REMARK  status: ('A' for Active; 'I' for Inactive)
REMARK    1  A    between atoms: C_1  and  C_2
REMARK    2  A    between atoms: N_5  and  C_6
REMARK    3  A    between atoms: C_6  and  C_7
REMARK    4  A    between atoms: C_20  and  C_21
REMARK    5  A    between atoms: C_22  and  N_23
REMARK                            x       y       z     vdW  Elec       q    Type
REMARK                         _______ _______ _______ _____ _____    ______ ____
ROOT
ATOM      1  C   UNL     1       3.624   2.284  19.095  0.00  0.00    +0.000 C 
ATOM      2  C   UNL     1       3.672   3.759  18.828  0.00  0.00    +0.000 A 
ATOM      3  N   UNL     1       4.553   4.138  17.873  0.00  0.00    +0.000 NA
ATOM      4  C   UNL     1       4.569   5.417  17.489  0.00  0.00    +0.000 A 
ATOM      5  N   UNL     1       5.477   5.853  16.546  0.00  0.00    +0.000 N 
ATOM      6  N   UNL     1       3.745   6.337  17.998  0.00  0.00    +0.000 NA
ATOM      7  C   UNL     1       2.931   5.995  19.031  0.00  0.00    +0.000 A 
ATOM      8  N   UNL     1       2.225   7.075  19.654  0.00  0.00    +0.000 N 
ATOM      9  C   UNL     1       1.817   7.172  20.971  0.00  0.00    +0.000 A 
ATOM     10  C   UNL     1       1.189   8.387  21.092  0.00  0.00    +0.000 A 
ATOM     11  N   UNL     1       1.238   9.072  19.919  0.00  0.00    +0.000 NA
ATOM     12  C   UNL     1       1.878   8.292  19.066  0.00  0.00    +0.000 A 
ATOM     13  C   UNL     1       2.118   8.641  17.642  0.00  0.00    +0.000 C 
ATOM     14  C   UNL     1       2.859   4.685  19.463  0.00  0.00    +0.000 A 
ATOM     15  H   UNL     1       4.975   6.074  15.696  0.00  0.00    +0.000 HD
ENDROOT
BRANCH  14  16
ATOM     16  N   UNL     1       1.867   4.227  20.390  0.00  0.00    +0.000 N 
ATOM     17  O   UNL     1       2.225   4.059  21.561  0.00  0.00    +0.000 OA
ATOM     18  O   UNL     1       0.733   4.021  19.944  0.00  0.00    +0.000 OA
ENDBRANCH  14  16
BRANCH   5  19
ATOM     19  C   UNL     1       6.623   4.987  16.333  0.00  0.00    +0.000 C 
BRANCH  19  20
ATOM     20  C   UNL     1       6.772   4.725  14.851  0.00  0.00    +0.000 A 
ATOM     21  C   UNL     1       6.058   3.670  14.248  0.00  0.00    +0.000 A 
ATOM     22  C   UNL     1       6.145   3.437  12.873  0.00  0.00    +0.000 A 
ATOM     23  C   UNL     1       6.944   4.259  12.084  0.00  0.00    +0.000 A 
ATOM     24  C   UNL     1       7.646   5.303  12.675  0.00  0.00    +0.000 A 
ATOM     25  F   UNL     1       8.407   6.098  11.911  0.00  0.00    +0.000 F 
ATOM     26  C   UNL     1       7.569   5.544  14.043  0.00  0.00    +0.000 A 
ENDBRANCH  19  20
ENDBRANCH   5  19
TORSDOF 3
ENDMDL
MODEL 3
REMARK VINA RESULT:      -8.3      3.867      7.819
REMARK  Name = 
REMARK  5 active torsions:
REMARK  status: ('A' for Active; 'I' for Inactive)
REMARK    1  A    between atoms: C_1  and  C_2
REMARK    2  A    between atoms: N_5  and  C_6
REMARK    3  A    between atoms: C_6  and  C_7
REMARK    4  A    between atoms: C_20  and  C_21
REMARK    5  A    between atoms: C_22  and  N_23
REMARK                            x       y       z     vdW  Elec       q    Type
REMARK                         _______ _______ _______ _____ _____    ______ ____
ROOT
ATOM      1  C   UNL     1       2.057   2.892  21.592  0.00  0.00    +0.000 C 
ATOM      2  C   UNL     1       2.501   3.939  20.615  0.00  0.00    +0.000 A 
ATOM      3  N   UNL     1       2.059   5.191  20.879  0.00  0.00    +0.000 NA
ATOM      4  C   UNL     1       2.509   6.199  20.128  0.00  0.00    +0.000 A 
ATOM      5  N   UNL     1       2.055   7.485  20.339  0.00  0.00    +0.000 N 
ATOM      6  N   UNL     1       3.388   6.029  19.135  0.00  0.00    +0.000 NA
ATOM      7  C   UNL     1       3.757   4.768  18.791  0.00  0.00    +0.000 A 
ATOM      8  N   UNL     1       4.541   4.651  17.597  0.00  0.00    +0.000 N 
ATOM      9  C   UNL     1       4.584   3.589  16.713  0.00  0.00    +0.000 A 
ATOM     10  C   UNL     1       5.469   3.944  15.726  0.00  0.00    +0.000 A 
ATOM     11  N   UNL     1       5.939   5.204  15.931  0.00  0.00    +0.000 NA
ATOM     12  C   UNL     1       5.363   5.631  17.041  0.00  0.00    +0.000 A 
ATOM     13  C   UNL     1       5.630   6.958  17.656  0.00  0.00    +0.000 C 
ATOM     14  C   UNL     1       3.337   3.685  19.538  0.00  0.00    +0.000 A 
ATOM     15  H   UNL     1       2.812   8.033  20.728  0.00  0.00    +0.000 HD
ENDROOT
BRANCH  14  16
ATOM     16  N   UNL     1       3.867   2.365  19.359  0.00  0.00    +0.000 N 
ATOM     17  O   UNL     1       3.190   1.571  18.698  0.00  0.00    +0.000 OA
ATOM     18  O   UNL     1       4.955   2.120  19.892  0.00  0.00    +0.000 OA
ENDBRANCH  14  16
BRANCH   5  19
ATOM     19  C   UNL     1       0.815   7.596  21.087  0.00  0.00    +0.000 C 
BRANCH  19  20
ATOM     20  C   UNL     1       0.421   9.053  21.169  0.00  0.00    +0.000 A 
ATOM     21  C   UNL     1       0.611   9.897  20.055  0.00  0.00    +0.000 A 
ATOM     22  C   UNL     1       0.212  11.235  20.092  0.00  0.00    +0.000 A 
ATOM     23  C   UNL     1      -0.384  11.746  21.241  0.00  0.00    +0.000 A 
ATOM     24  C   UNL     1      -0.576  10.916  22.339  0.00  0.00    +0.000 A 
ATOM     25  F   UNL     1      -1.158  11.409  23.441  0.00  0.00    +0.000 F 
ATOM     26  C   UNL     1      -0.182   9.582  22.316  0.00  0.00    +0.000 A 
ENDBRANCH  19  20
ENDBRANCH   5  19
TORSDOF 3
ENDMDL
MODEL 4
REMARK VINA RESULT:      -8.2      3.488      7.765
REMARK  Name = 
REMARK  5 active torsions:
REMARK  status: ('A' for Active; 'I' for Inactive)
REMARK    1  A    between atoms: C_1  and  C_2
REMARK    2  A    between atoms: N_5  and  C_6
REMARK    3  A    between atoms: C_6  and  C_7
REMARK    4  A    between atoms: C_20  and  C_21
REMARK    5  A    between atoms: C_22  and  N_23
REMARK                            x       y       z     vdW  Elec       q    Type
REMARK                         _______ _______ _______ _____ _____    ______ ____
ROOT
ATOM      1  C   UNL     1       2.097   2.888  21.684  0.00  0.00    +0.000 C 
ATOM      2  C   UNL     1       2.454   3.953  20.692  0.00  0.00    +0.000 A 
ATOM      3  N   UNL     1       1.958   5.181  20.969  0.00  0.00    +0.000 NA
ATOM      4  C   UNL     1       2.330   6.210  20.203  0.00  0.00    +0.000 A 
ATOM      5  N   UNL     1       1.819   7.471  20.428  0.00  0.00    +0.000 N 
ATOM      6  N   UNL     1       3.182   6.082  19.181  0.00  0.00    +0.000 NA
ATOM      7  C   UNL     1       3.604   4.840  18.825  0.00  0.00    +0.000 A 
ATOM      8  N   UNL     1       4.352   4.760  17.605  0.00  0.00    +0.000 N 
ATOM      9  C   UNL     1       4.418   3.700  16.722  0.00  0.00    +0.000 A 
ATOM     10  C   UNL     1       5.251   4.096  15.704  0.00  0.00    +0.000 A 
ATOM     11  N   UNL     1       5.662   5.379  15.893  0.00  0.00    +0.000 NA
ATOM     12  C   UNL     1       5.104   5.779  17.022  0.00  0.00    +0.000 A 
ATOM     13  C   UNL     1       5.324   7.119  17.626  0.00  0.00    +0.000 C 
ATOM     14  C   UNL     1       3.264   3.739  19.587  0.00  0.00    +0.000 A 
ATOM     15  H   UNL     1       2.559   8.057  20.791  0.00  0.00    +0.000 HD
ENDROOT
BRANCH  14  16
ATOM     16  N   UNL     1       3.855   2.448  19.391  0.00  0.00    +0.000 N 
ATOM     17  O   UNL     1       3.216   1.632  18.717  0.00  0.00    +0.000 OA
ATOM     18  O   UNL     1       4.952   2.244  19.924  0.00  0.00    +0.000 OA
ENDBRANCH  14  16
BRANCH   5  19
ATOM     19  C   UNL     1       0.601   7.521  21.217  0.00  0.00    +0.000 C 
BRANCH  19  20
ATOM     20  C   UNL     1       0.212   8.966  21.428  0.00  0.00    +0.000 A 
ATOM     21  C   UNL     1      -0.353   9.371  22.654  0.00  0.00    +0.000 A 
ATOM     22  C   UNL     1      -0.679  10.709  22.889  0.00  0.00    +0.000 A 
ATOM     23  C   UNL     1      -0.441  11.660  21.901  0.00  0.00    +0.000 A 
ATOM     24  C   UNL     1       0.119  11.265  20.691  0.00  0.00    +0.000 A 
ATOM     25  F   UNL     1       0.354  12.184  19.745  0.00  0.00    +0.000 F 
ATOM     26  C   UNL     1       0.446   9.936  20.446  0.00  0.00    +0.000 A 
ENDBRANCH  19  20
ENDBRANCH   5  19
TORSDOF 3
ENDMDL
MODEL 5
REMARK VINA RESULT:      -7.9      3.613      7.534
REMARK  Name = 
REMARK  5 active torsions:
REMARK  status: ('A' for Active; 'I' for Inactive)
REMARK    1  A    between atoms: C_1  and  C_2
REMARK    2  A    between atoms: N_5  and  C_6
REMARK    3  A    between atoms: C_6  and  C_7
REMARK    4  A    between atoms: C_20  and  C_21
REMARK    5  A    between atoms: C_22  and  N_23
REMARK                            x       y       z     vdW  Elec       q    Type
REMARK                         _______ _______ _______ _____ _____    ______ ____
ROOT
ATOM      1  C   UNL     1       1.540   4.368  19.752  0.00  0.00    +0.000 C 
ATOM      2  C   UNL     1       2.454   5.200  18.902  0.00  0.00    +0.000 A 
ATOM      3  N   UNL     1       2.099   6.501  18.785  0.00  0.00    +0.000 NA
ATOM      4  C   UNL     1       2.925   7.334  18.149  0.00  0.00    +0.000 A 
ATOM      5  N   UNL     1       2.584   8.660  17.975  0.00  0.00    +0.000 N 
ATOM      6  N   UNL     1       4.094   6.943  17.632  0.00  0.00    +0.000 NA
ATOM      7  C   UNL     1       4.413   5.622  17.647  0.00  0.00    +0.000 A 
ATOM      8  N   UNL     1       5.581   5.253  16.903  0.00  0.00    +0.000 N 
ATOM      9  C   UNL     1       5.836   4.051  16.271  0.00  0.00    +0.000 A 
ATOM     10  C   UNL     1       7.074   4.177  15.688  0.00  0.00    +0.000 A 
ATOM     11  N   UNL     1       7.574   5.425  15.887  0.00  0.00    +0.000 NA
ATOM     12  C   UNL     1       6.667   6.073  16.597  0.00  0.00    +0.000 A 
ATOM     13  C   UNL     1       6.831   7.471  17.074  0.00  0.00    +0.000 C 
ATOM     14  C   UNL     1       3.606   4.714  18.303  0.00  0.00    +0.000 A 
ATOM     15  H   UNL     1       3.189   9.225  18.556  0.00  0.00    +0.000 HD
ENDROOT
BRANCH  14  16
ATOM     16  N   UNL     1       4.000   3.356  18.542  0.00  0.00    +0.000 N 
ATOM     17  O   UNL     1       4.833   3.159  19.433  0.00  0.00    +0.000 OA
ATOM     18  O   UNL     1       3.486   2.488  17.827  0.00  0.00    +0.000 OA
ENDBRANCH  14  16
BRANCH   5  19
ATOM     19  C   UNL     1       1.175   8.969  18.132  0.00  0.00    +0.000 C 
BRANCH  19  20
ATOM     20  C   UNL     1       1.026  10.076  19.152  0.00  0.00    +0.000 A 
ATOM     21  C   UNL     1       1.287  11.411  18.783  0.00  0.00    +0.000 A 
ATOM     22  C   UNL     1       1.113  12.455  19.694  0.00  0.00    +0.000 A 
ATOM     23  C   UNL     1       0.673  12.178  20.985  0.00  0.00    +0.000 A 
ATOM     24  C   UNL     1       0.412  10.862  21.351  0.00  0.00    +0.000 A 
ATOM     25  F   UNL     1      -0.019  10.599  22.592  0.00  0.00    +0.000 F 
ATOM     26  C   UNL     1       0.583   9.814  20.453  0.00  0.00    +0.000 A 
ENDBRANCH  19  20
ENDBRANCH   5  19
TORSDOF 3
ENDMDL
MODEL 6
REMARK VINA RESULT:      -7.8      3.549      7.231
REMARK  Name = 
REMARK  5 active torsions:
REMARK  status: ('A' for Active; 'I' for Inactive)
REMARK    1  A    between atoms: C_1  and  C_2
REMARK    2  A    between atoms: N_5  and  C_6
REMARK    3  A    between atoms: C_6  and  C_7
REMARK    4  A    between atoms: C_20  and  C_21
REMARK    5  A    between atoms: C_22  and  N_23
REMARK                            x       y       z     vdW  Elec       q    Type
REMARK                         _______ _______ _______ _____ _____    ______ ____
ROOT
ATOM      1  C   UNL     1       0.739   2.865  19.893  0.00  0.00    +0.000 C 
ATOM      2  C   UNL     1       1.787   3.860  19.492  0.00  0.00    +0.000 A 
ATOM      3  N   UNL     1       1.681   5.071  20.086  0.00  0.00    +0.000 NA
ATOM      4  C   UNL     1       2.645   5.972  19.878  0.00  0.00    +0.000 A 
ATOM      5  N   UNL     1       2.557   7.231  20.434  0.00  0.00    +0.000 N 
ATOM      6  N   UNL     1       3.716   5.725  19.117  0.00  0.00    +0.000 NA
ATOM      7  C   UNL     1       3.782   4.555  18.429  0.00  0.00    +0.000 A 
ATOM      8  N   UNL     1       4.854   4.444  17.485  0.00  0.00    +0.000 N 
ATOM      9  C   UNL     1       4.875   3.719  16.310  0.00  0.00    +0.000 A 
ATOM     10  C   UNL     1       6.110   3.930  15.747  0.00  0.00    +0.000 A 
ATOM     11  N   UNL     1       6.837   4.800  16.498  0.00  0.00    +0.000 NA
ATOM     12  C   UNL     1       6.073   5.122  17.527  0.00  0.00    +0.000 A 
ATOM     13  C   UNL     1       6.500   6.027  18.626  0.00  0.00    +0.000 C 
ATOM     14  C   UNL     1       2.823   3.578  18.615  0.00  0.00    +0.000 A 
ATOM     15  H   UNL     1       3.262   7.312  21.156  0.00  0.00    +0.000 HD
ENDROOT
BRANCH  14  16
ATOM     16  N   UNL     1       2.957   2.250  18.092  0.00  0.00    +0.000 N 
ATOM     17  O   UNL     1       2.279   1.965  17.098  0.00  0.00    +0.000 OA
ATOM     18  O   UNL     1       3.729   1.488  18.684  0.00  0.00    +0.000 OA
ENDBRANCH  14  16
BRANCH   5  19
ATOM     19  C   UNL     1       1.232   7.632  20.870  0.00  0.00    +0.000 C 
BRANCH  19  20
ATOM     20  C   UNL     1       0.874   8.943  20.208  0.00  0.00    +0.000 A 
ATOM     21  C   UNL     1       1.450   9.286  18.968  0.00  0.00    +0.000 A 
ATOM     22  C   UNL     1       1.100  10.471  18.316  0.00  0.00    +0.000 A 
ATOM     23  C   UNL     1       0.167  11.326  18.894  0.00  0.00    +0.000 A 
ATOM     24  C   UNL     1      -0.406  10.990  20.115  0.00  0.00    +0.000 A 
ATOM     25  F   UNL     1      -1.310  11.812  20.665  0.00  0.00    +0.000 F 
ATOM     26  C   UNL     1      -0.065   9.814  20.775  0.00  0.00    +0.000 A 
ENDBRANCH  19  20
ENDBRANCH   5  19
TORSDOF 3
ENDMDL
MODEL 7
REMARK VINA RESULT:      -7.8      3.546      7.306
REMARK  Name = 
REMARK  5 active torsions:
REMARK  status: ('A' for Active; 'I' for Inactive)
REMARK    1  A    between atoms: C_1  and  C_2
REMARK    2  A    between atoms: N_5  and  C_6
REMARK    3  A    between atoms: C_6  and  C_7
REMARK    4  A    between atoms: C_20  and  C_21
REMARK    5  A    between atoms: C_22  and  N_23
REMARK                            x       y       z     vdW  Elec       q    Type
REMARK                         _______ _______ _______ _____ _____    ______ ____
ROOT
ATOM      1  C   UNL     1       1.580   4.373  19.775  0.00  0.00    +0.000 C 
ATOM      2  C   UNL     1       2.495   5.202  18.925  0.00  0.00    +0.000 A 
ATOM      3  N   UNL     1       2.163   6.512  18.837  0.00  0.00    +0.000 NA
ATOM      4  C   UNL     1       2.994   7.341  18.201  0.00  0.00    +0.000 A 
ATOM      5  N   UNL     1       2.675   8.675  18.056  0.00  0.00    +0.000 N 
ATOM      6  N   UNL     1       4.147   6.937  17.658  0.00  0.00    +0.000 NA
ATOM      7  C   UNL     1       4.442   5.611  17.646  0.00  0.00    +0.000 A 
ATOM      8  N   UNL     1       5.590   5.233  16.876  0.00  0.00    +0.000 N 
ATOM      9  C   UNL     1       5.813   4.039  16.219  0.00  0.00    +0.000 A 
ATOM     10  C   UNL     1       7.043   4.151  15.619  0.00  0.00    +0.000 A 
ATOM     11  N   UNL     1       7.569   5.387  15.832  0.00  0.00    +0.000 NA
ATOM     12  C   UNL     1       6.686   6.038  16.567  0.00  0.00    +0.000 A 
ATOM     13  C   UNL     1       6.884   7.425  17.066  0.00  0.00    +0.000 C 
ATOM     14  C   UNL     1       3.628   4.706  18.299  0.00  0.00    +0.000 A 
ATOM     15  H   UNL     1       3.300   9.219  18.637  0.00  0.00    +0.000 HD
ENDROOT
BRANCH  14  16
ATOM     16  N   UNL     1       4.000   3.337  18.508  0.00  0.00    +0.000 N 
ATOM     17  O   UNL     1       3.462   2.491  17.786  0.00  0.00    +0.000 OA
ATOM     18  O   UNL     1       4.822   3.108  19.402  0.00  0.00    +0.000 OA
ENDBRANCH  14  16
BRANCH   5  19
ATOM     19  C   UNL     1       1.274   9.008  18.242  0.00  0.00    +0.000 C 
BRANCH  19  20
ATOM     20  C   UNL     1       1.150  10.497  18.471  0.00  0.00    +0.000 A 
ATOM     21  C   UNL     1      -0.010  11.020  19.077  0.00  0.00    +0.000 A 
ATOM     22  C   UNL     1      -0.129  12.387  19.340  0.00  0.00    +0.000 A 
ATOM     23  C   UNL     1       0.911  13.248  19.003  0.00  0.00    +0.000 A 
ATOM     24  C   UNL     1       2.058  12.734  18.407  0.00  0.00    +0.000 A 
ATOM     25  F   UNL     1       3.062  13.564  18.091  0.00  0.00    +0.000 F 
ATOM     26  C   UNL     1       2.187  11.375  18.139  0.00  0.00    +0.000 A 
ENDBRANCH  19  20
ENDBRANCH   5  19
TORSDOF 3
ENDMDL
MODEL 8
REMARK VINA RESULT:      -7.8      3.773      7.358
REMARK  Name = 
REMARK  5 active torsions:
REMARK  status: ('A' for Active; 'I' for Inactive)
REMARK    1  A    between atoms: C_1  and  C_2
REMARK    2  A    between atoms: N_5  and  C_6
REMARK    3  A    between atoms: C_6  and  C_7
REMARK    4  A    between atoms: C_20  and  C_21
REMARK    5  A    between atoms: C_22  and  N_23
REMARK                            x       y       z     vdW  Elec       q    Type
REMARK                         _______ _______ _______ _____ _____    ______ ____
ROOT
ATOM      1  C   UNL     1       1.579   4.320  19.762  0.00  0.00    +0.000 C 
ATOM      2  C   UNL     1       2.489   5.170  18.927  0.00  0.00    +0.000 A 
ATOM      3  N   UNL     1       2.145   6.477  18.857  0.00  0.00    +0.000 NA
ATOM      4  C   UNL     1       2.971   7.323  18.236  0.00  0.00    +0.000 A 
ATOM      5  N   UNL     1       2.641   8.657  18.110  0.00  0.00    +0.000 N 
ATOM      6  N   UNL     1       4.129   6.937  17.690  0.00  0.00    +0.000 NA
ATOM      7  C   UNL     1       4.435   5.614  17.658  0.00  0.00    +0.000 A 
ATOM      8  N   UNL     1       5.588   5.258  16.886  0.00  0.00    +0.000 N 
ATOM      9  C   UNL     1       5.823   4.075  16.212  0.00  0.00    +0.000 A 
ATOM     10  C   UNL     1       7.053   4.207  15.616  0.00  0.00    +0.000 A 
ATOM     11  N   UNL     1       7.569   5.444  15.848  0.00  0.00    +0.000 NA
ATOM     12  C   UNL     1       6.678   6.077  16.591  0.00  0.00    +0.000 A 
ATOM     13  C   UNL     1       6.863   7.457  17.111  0.00  0.00    +0.000 C 
ATOM     14  C   UNL     1       3.628   4.693  18.296  0.00  0.00    +0.000 A 
ATOM     15  H   UNL     1       3.260   9.197  18.701  0.00  0.00    +0.000 HD
ENDROOT
BRANCH  14  16
ATOM     16  N   UNL     1       4.012   3.324  18.485  0.00  0.00    +0.000 N 
ATOM     17  O   UNL     1       4.846   3.089  19.366  0.00  0.00    +0.000 OA
ATOM     18  O   UNL     1       3.489   2.486  17.742  0.00  0.00    +0.000 OA
ENDBRANCH  14  16
BRANCH   5  19
ATOM     19  C   UNL     1       1.237   8.974  18.297  0.00  0.00    +0.000 C 
BRANCH  19  20
ATOM     20  C   UNL     1       1.086  10.472  18.431  0.00  0.00    +0.000 A 
ATOM     21  C   UNL     1       2.203  11.311  18.243  0.00  0.00    +0.000 A 
ATOM     22  C   UNL     1       2.080  12.701  18.317  0.00  0.00    +0.000 A 
ATOM     23  C   UNL     1       0.836  13.269  18.576  0.00  0.00    +0.000 A 
ATOM     24  C   UNL     1      -0.269  12.445  18.758  0.00  0.00    +0.000 A 
ATOM     25  F   UNL     1      -1.466  12.996  18.999  0.00  0.00    +0.000 F 
ATOM     26  C   UNL     1      -0.158  11.060  18.688  0.00  0.00    +0.000 A 
ENDBRANCH  19  20
ENDBRANCH   5  19
TORSDOF 3
ENDMDL
MODEL 9
REMARK VINA RESULT:      -7.8      3.528      7.522
REMARK  Name = 
REMARK  5 active torsions:
REMARK  status: ('A' for Active; 'I' for Inactive)
REMARK    1  A    between atoms: C_1  and  C_2
REMARK    2  A    between atoms: N_5  and  C_6
REMARK    3  A    between atoms: C_6  and  C_7
REMARK    4  A    between atoms: C_20  and  C_21
REMARK    5  A    between atoms: C_22  and  N_23
REMARK                            x       y       z     vdW  Elec       q    Type
REMARK                         _______ _______ _______ _____ _____    ______ ____
ROOT
ATOM      1  C   UNL     1       1.522   4.355  19.739  0.00  0.00    +0.000 C 
ATOM      2  C   UNL     1       2.436   5.188  18.893  0.00  0.00    +0.000 A 
ATOM      3  N   UNL     1       2.077   6.488  18.772  0.00  0.00    +0.000 NA
ATOM      4  C   UNL     1       2.903   7.323  18.138  0.00  0.00    +0.000 A 
ATOM      5  N   UNL     1       2.557   8.647  17.959  0.00  0.00    +0.000 N 
ATOM      6  N   UNL     1       4.076   6.936  17.627  0.00  0.00    +0.000 NA
ATOM      7  C   UNL     1       4.400   5.616  17.646  0.00  0.00    +0.000 A 
ATOM      8  N   UNL     1       5.572   5.250  16.908  0.00  0.00    +0.000 N 
ATOM      9  C   UNL     1       5.836   4.049  16.279  0.00  0.00    +0.000 A 
ATOM     10  C   UNL     1       7.075   4.178  15.703  0.00  0.00    +0.000 A 
ATOM     11  N   UNL     1       7.570   5.428  15.902  0.00  0.00    +0.000 NA
ATOM     12  C   UNL     1       6.657   6.074  16.606  0.00  0.00    +0.000 A 
ATOM     13  C   UNL     1       6.814   7.473  17.082  0.00  0.00    +0.000 C 
ATOM     14  C   UNL     1       3.593   4.706  18.300  0.00  0.00    +0.000 A 
ATOM     15  H   UNL     1       3.157   9.216  18.543  0.00  0.00    +0.000 HD
ENDROOT
BRANCH  14  16
ATOM     16  N   UNL     1       3.991   3.350  18.543  0.00  0.00    +0.000 N 
ATOM     17  O   UNL     1       4.827   3.159  19.433  0.00  0.00    +0.000 OA
ATOM     18  O   UNL     1       3.478   2.478  17.833  0.00  0.00    +0.000 OA
ENDBRANCH  14  16
BRANCH   5  19
ATOM     19  C   UNL     1       1.146   8.951  18.110  0.00  0.00    +0.000 C 
BRANCH  19  20
ATOM     20  C   UNL     1       0.991  10.092  19.089  0.00  0.00    +0.000 A 
ATOM     21  C   UNL     1       0.532   9.838  20.397  0.00  0.00    +0.000 A 
ATOM     22  C   UNL     1       0.424  10.869  21.334  0.00  0.00    +0.000 A 
ATOM     23  C   UNL     1       0.777  12.167  20.975  0.00  0.00    +0.000 A 
ATOM     24  C   UNL     1       1.233  12.420  19.686  0.00  0.00    +0.000 A 
ATOM     25  F   UNL     1       1.581  13.669  19.346  0.00  0.00    +0.000 F 
ATOM     26  C   UNL     1       1.344  11.402  18.745  0.00  0.00    +0.000 A 
ENDBRANCH  19  20
ENDBRANCH   5  19
TORSDOF 3
ENDMDL
