MODEL 1
REMARK VINA RESULT:      -7.1      0.000      0.000
REMARK  Name = 
REMARK  8 active torsions:
REMARK  status: ('A' for Active; 'I' for Inactive)
REMARK    1  A    between atoms: O_1  and  C_2
REMARK    2  A    between atoms: C_11  and  C_12
REMARK    3  A    between atoms: C_21  and  C_22
REMARK    4  A    between atoms: C_25  and  O_26
REMARK    5  A    between atoms: O_26  and  C_27
REMARK    6  A    between atoms: N_30  and  C_31
REMARK    7  A    between atoms: C_31  and  C_32
REMARK    8  A    between atoms: C_32  and  C_33
REMARK                            x       y       z     vdW  Elec       q    Type
REMARK                         _______ _______ _______ _____ _____    ______ ____
ROOT
ATOM      1  C   UNL     1       3.711  15.443  21.940  0.00  0.00    +0.000 A 
ATOM      2  C   UNL     1       3.992  14.534  20.935  0.00  0.00    +0.000 A 
ATOM      3  C   UNL     1       2.953  13.778  20.397  0.00  0.00    +0.000 A 
ATOM      4  C   UNL     1       1.622  13.915  20.847  0.00  0.00    +0.000 A 
ATOM      5  C   UNL     1       1.351  14.844  21.876  0.00  0.00    +0.000 A 
ATOM      6  C   UNL     1       2.413  15.607  22.407  0.00  0.00    +0.000 A 
ATOM      7  C   UNL     1      -0.011  14.978  22.517  0.00  0.00    +0.000 C 
ATOM      8  C   UNL     1      -1.199  15.321  21.614  0.00  0.00    +0.000 C 
ATOM      9  C   UNL     1      -1.040  14.987  20.137  0.00  0.00    +0.000 C 
ATOM     10  C   UNL     1      -0.636  13.557  19.898  0.00  0.00    +0.000 C 
ATOM     11  C   UNL     1       0.581  13.043  20.216  0.00  0.00    +0.000 C 
ENDROOT
BRANCH  10  12
ATOM     12  C   UNL     1      -1.660  12.766  19.182  0.00  0.00    +0.000 A 
ATOM     13  C   UNL     1      -2.869  12.477  19.833  0.00  0.00    +0.000 A 
ATOM     14  C   UNL     1      -3.924  11.861  19.160  0.00  0.00    +0.000 A 
ATOM     15  C   UNL     1      -3.666  11.421  17.862  0.00  0.00    +0.000 A 
ATOM     16  N   UNL     1      -4.492  10.843  16.929  0.00  0.00    +0.000 N 
ATOM     17  C   UNL     1      -3.723  10.168  16.019  0.00  0.00    +0.000 A 
ATOM     18  C   UNL     1      -2.472  10.744  16.069  0.00  0.00    +0.000 A 
ATOM     19  C   UNL     1      -2.423  11.547  17.244  0.00  0.00    +0.000 A 
ATOM     20  C   UNL     1      -1.430  12.320  17.872  0.00  0.00    +0.000 A 
ATOM     21  H   UNL     1      -5.503  10.867  16.950  0.00  0.00    +0.000 HD
ENDBRANCH  10  12
BRANCH  11  22
ATOM     22  C   UNL     1       0.871  11.654  19.787  0.00  0.00    +0.000 A 
ATOM     23  C   UNL     1       0.569  10.580  20.655  0.00  0.00    +0.000 A 
ATOM     24  C   UNL     1       0.877   9.283  20.298  0.00  0.00    +0.000 A 
ATOM     25  C   UNL     1       1.488   9.008  19.079  0.00  0.00    +0.000 A 
ATOM     26  C   UNL     1       1.809  10.062  18.216  0.00  0.00    +0.000 A 
ATOM     27  C   UNL     1       1.492  11.379  18.564  0.00  0.00    +0.000 A 
BRANCH  25  28
ATOM     28  O   UNL     1       1.816   7.755  18.628  0.00  0.00    +0.000 OA
BRANCH  28  29
ATOM     29  C   UNL     1       2.609   6.966  19.511  0.00  0.00    +0.000 C 
ATOM     30  C   UNL     1       1.729   5.914  20.166  0.00  0.00    +0.000 C 
ATOM     31  C   UNL     1       2.720   4.802  20.447  0.00  0.00    +0.000 C 
ATOM     32  N   UNL     1       3.566   4.729  19.239  0.00  0.00    +0.000 NA
ATOM     33  C   UNL     1       3.684   6.137  18.790  0.00  0.00    +0.000 C 
BRANCH  32  34
ATOM     34  C   UNL     1       2.935   3.873  18.216  0.00  0.00    +0.000 C 
BRANCH  34  35
ATOM     35  C   UNL     1       3.849   2.735  17.746  0.00  0.00    +0.000 C 
BRANCH  35  36
ATOM     36  C   UNL     1       3.522   1.449  18.484  0.00  0.00    +0.000 C 
ATOM     37  F   UNL     1       2.418   1.644  19.254  0.00  0.00    +0.000 F 
ENDBRANCH  35  36
ENDBRANCH  34  35
ENDBRANCH  32  34
ENDBRANCH  28  29
ENDBRANCH  25  28
ENDBRANCH  11  22
BRANCH   1  38
ATOM     38  O   UNL     1       4.699  16.187  22.512  0.00  0.00    +0.000 OA
ATOM     39  H   UNL     1       5.403  15.586  22.808  0.00  0.00    +0.000 HD
ENDBRANCH   1  38
TORSDOF 8
ENDMDL
MODEL 2
REMARK VINA RESULT:      -7.0      1.603      2.051
REMARK  Name = 
REMARK  8 active torsions:
REMARK  status: ('A' for Active; 'I' for Inactive)
REMARK    1  A    between atoms: O_1  and  C_2
REMARK    2  A    between atoms: C_11  and  C_12
REMARK    3  A    between atoms: C_21  and  C_22
REMARK    4  A    between atoms: C_25  and  O_26
REMARK    5  A    between atoms: O_26  and  C_27
REMARK    6  A    between atoms: N_30  and  C_31
REMARK    7  A    between atoms: C_31  and  C_32
REMARK    8  A    between atoms: C_32  and  C_33
REMARK                            x       y       z     vdW  Elec       q    Type
REMARK                         _______ _______ _______ _____ _____    ______ ____
ROOT
ATOM      1  C   UNL     1       5.256  15.409  18.710  0.00  0.00    +0.000 A 
ATOM      2  C   UNL     1       5.038  14.206  18.063  0.00  0.00    +0.000 A 
ATOM      3  C   UNL     1       3.810  13.567  18.219  0.00  0.00    +0.000 A 
ATOM      4  C   UNL     1       2.782  14.115  19.016  0.00  0.00    +0.000 A 
ATOM      5  C   UNL     1       3.021  15.342  19.675  0.00  0.00    +0.000 A 
ATOM      6  C   UNL     1       4.268  15.979  19.502  0.00  0.00    +0.000 A 
ATOM      7  C   UNL     1       2.040  15.950  20.651  0.00  0.00    +0.000 C 
ATOM      8  C   UNL     1       0.626  16.259  20.150  0.00  0.00    +0.000 C 
ATOM      9  C   UNL     1       0.160  15.478  18.930  0.00  0.00    +0.000 C 
ATOM     10  C   UNL     1       0.311  13.989  19.090  0.00  0.00    +0.000 C 
ATOM     11  C   UNL     1       1.505  13.341  19.134  0.00  0.00    +0.000 C 
ENDROOT
BRANCH  10  12
ATOM     12  C   UNL     1      -0.977  13.262  19.100  0.00  0.00    +0.000 A 
ATOM     13  C   UNL     1      -1.794  13.346  20.237  0.00  0.00    +0.000 A 
ATOM     14  C   UNL     1      -3.079  12.803  20.248  0.00  0.00    +0.000 A 
ATOM     15  C   UNL     1      -3.450  12.053  19.131  0.00  0.00    +0.000 A 
ATOM     16  N   UNL     1      -4.641  11.447  18.812  0.00  0.00    +0.000 N 
ATOM     17  C   UNL     1      -4.400  10.463  17.892  0.00  0.00    +0.000 A 
ATOM     18  C   UNL     1      -3.217  10.798  17.269  0.00  0.00    +0.000 A 
ATOM     19  C   UNL     1      -2.599  11.813  18.053  0.00  0.00    +0.000 A 
ATOM     20  C   UNL     1      -1.379  12.509  17.986  0.00  0.00    +0.000 A 
ATOM     21  H   UNL     1      -5.534  11.659  19.234  0.00  0.00    +0.000 HD
ENDBRANCH  10  12
BRANCH  11  22
ATOM     22  C   UNL     1       1.480  11.860  19.154  0.00  0.00    +0.000 A 
ATOM     23  C   UNL     1       1.853  11.141  17.994  0.00  0.00    +0.000 A 
ATOM     24  C   UNL     1       1.789   9.763  17.974  0.00  0.00    +0.000 A 
ATOM     25  C   UNL     1       1.359   9.055  19.092  0.00  0.00    +0.000 A 
ATOM     26  C   UNL     1       0.972   9.752  20.241  0.00  0.00    +0.000 A 
ATOM     27  C   UNL     1       1.042  11.149  20.276  0.00  0.00    +0.000 A 
BRANCH  25  28
ATOM     28  O   UNL     1       1.279   7.689  19.175  0.00  0.00    +0.000 OA
BRANCH  28  29
ATOM     29  C   UNL     1       2.516   7.005  19.358  0.00  0.00    +0.000 C 
ATOM     30  C   UNL     1       2.292   5.801  20.258  0.00  0.00    +0.000 C 
ATOM     31  C   UNL     1       3.381   4.853  19.797  0.00  0.00    +0.000 C 
ATOM     32  N   UNL     1       3.387   4.963  18.324  0.00  0.00    +0.000 NA
ATOM     33  C   UNL     1       3.069   6.388  18.063  0.00  0.00    +0.000 C 
BRANCH  32  34
ATOM     34  C   UNL     1       2.384   4.056  17.734  0.00  0.00    +0.000 C 
BRANCH  34  35
ATOM     35  C   UNL     1       2.367   2.673  18.396  0.00  0.00    +0.000 C 
BRANCH  35  36
ATOM     36  C   UNL     1       0.948   2.268  18.751  0.00  0.00    +0.000 C 
ATOM     37  F   UNL     1       0.523   3.008  19.810  0.00  0.00    +0.000 F 
ENDBRANCH  35  36
ENDBRANCH  34  35
ENDBRANCH  32  34
ENDBRANCH  28  29
ENDBRANCH  25  28
ENDBRANCH  11  22
BRANCH   1  38
ATOM     38  O   UNL     1       6.451  16.057  18.606  0.00  0.00    +0.000 OA
ATOM     39  H   UNL     1       7.099  15.598  19.165  0.00  0.00    +0.000 HD
ENDBRANCH   1  38
TORSDOF 8
ENDMDL
MODEL 3
REMARK VINA RESULT:      -6.9      0.939      1.301
REMARK  Name = 
REMARK  8 active torsions:
REMARK  status: ('A' for Active; 'I' for Inactive)
REMARK    1  A    between atoms: O_1  and  C_2
REMARK    2  A    between atoms: C_11  and  C_12
REMARK    3  A    between atoms: C_21  and  C_22
REMARK    4  A    between atoms: C_25  and  O_26
REMARK    5  A    between atoms: O_26  and  C_27
REMARK    6  A    between atoms: N_30  and  C_31
REMARK    7  A    between atoms: C_31  and  C_32
REMARK    8  A    between atoms: C_32  and  C_33
REMARK                            x       y       z     vdW  Elec       q    Type
REMARK                         _______ _______ _______ _____ _____    ______ ____
ROOT
ATOM      1  C   UNL     1       3.929  15.536  21.850  0.00  0.00    +0.000 A 
ATOM      2  C   UNL     1       4.199  14.567  20.900  0.00  0.00    +0.000 A 
ATOM      3  C   UNL     1       3.149  13.800  20.400  0.00  0.00    +0.000 A 
ATOM      4  C   UNL     1       1.818  13.987  20.832  0.00  0.00    +0.000 A 
ATOM      5  C   UNL     1       1.559  14.978  21.806  0.00  0.00    +0.000 A 
ATOM      6  C   UNL     1       2.632  15.750  22.299  0.00  0.00    +0.000 A 
ATOM      7  C   UNL     1       0.196  15.172  22.431  0.00  0.00    +0.000 C 
ATOM      8  C   UNL     1      -0.981  15.485  21.502  0.00  0.00    +0.000 C 
ATOM      9  C   UNL     1      -0.820  15.065  20.048  0.00  0.00    +0.000 C 
ATOM     10  C   UNL     1      -0.441  13.616  19.891  0.00  0.00    +0.000 C 
ATOM     11  C   UNL     1       0.764  13.099  20.245  0.00  0.00    +0.000 C 
ENDROOT
BRANCH  10  12
ATOM     12  C   UNL     1      -1.476  12.804  19.216  0.00  0.00    +0.000 A 
ATOM     13  C   UNL     1      -2.642  12.471  19.921  0.00  0.00    +0.000 A 
ATOM     14  C   UNL     1      -3.711  11.833  19.292  0.00  0.00    +0.000 A 
ATOM     15  C   UNL     1      -3.505  11.418  17.976  0.00  0.00    +0.000 A 
ATOM     16  N   UNL     1      -4.359  10.828  17.076  0.00  0.00    +0.000 N 
ATOM     17  C   UNL     1      -3.616  10.188  16.120  0.00  0.00    +0.000 A 
ATOM     18  C   UNL     1      -2.382  10.801  16.117  0.00  0.00    +0.000 A 
ATOM     19  C   UNL     1      -2.298  11.590  17.299  0.00  0.00    +0.000 A 
ATOM     20  C   UNL     1      -1.299  12.383  17.889  0.00  0.00    +0.000 A 
ATOM     21  H   UNL     1      -5.367  10.821  17.147  0.00  0.00    +0.000 HD
ENDBRANCH  10  12
BRANCH  11  22
ATOM     22  C   UNL     1       1.031  11.684  19.897  0.00  0.00    +0.000 A 
ATOM     23  C   UNL     1       1.632  11.374  18.655  0.00  0.00    +0.000 A 
ATOM     24  C   UNL     1       1.843  10.061  18.287  0.00  0.00    +0.000 A 
ATOM     25  C   UNL     1       1.472   9.018  19.132  0.00  0.00    +0.000 A 
ATOM     26  C   UNL     1       0.862   9.308  20.357  0.00  0.00    +0.000 A 
ATOM     27  C   UNL     1       0.652  10.636  20.743  0.00  0.00    +0.000 A 
BRANCH  25  28
ATOM     28  O   UNL     1       1.657   7.686  18.864  0.00  0.00    +0.000 OA
BRANCH  28  29
ATOM     29  C   UNL     1       2.337   6.940  19.871  0.00  0.00    +0.000 C 
ATOM     30  C   UNL     1       1.477   5.756  20.281  0.00  0.00    +0.000 C 
ATOM     31  C   UNL     1       2.517   4.750  20.731  0.00  0.00    +0.000 C 
ATOM     32  N   UNL     1       3.602   4.848  19.735  0.00  0.00    +0.000 NA
ATOM     33  C   UNL     1       3.635   6.285  19.371  0.00  0.00    +0.000 C 
BRANCH  32  34
ATOM     34  C   UNL     1       3.314   3.991  18.569  0.00  0.00    +0.000 C 
BRANCH  34  35
ATOM     35  C   UNL     1       3.635   4.672  17.234  0.00  0.00    +0.000 C 
BRANCH  35  36
ATOM     36  C   UNL     1       4.766   3.951  16.524  0.00  0.00    +0.000 C 
ATOM     37  F   UNL     1       5.870   3.960  17.317  0.00  0.00    +0.000 F 
ENDBRANCH  35  36
ENDBRANCH  34  35
ENDBRANCH  32  34
ENDBRANCH  28  29
ENDBRANCH  25  28
ENDBRANCH  11  22
BRANCH   1  38
ATOM     38  O   UNL     1       4.928  16.293  22.386  0.00  0.00    +0.000 OA
ATOM     39  H   UNL     1       4.585  16.738  23.178  0.00  0.00    +0.000 HD
ENDBRANCH   1  38
TORSDOF 8
ENDMDL
MODEL 4
REMARK VINA RESULT:      -6.9      3.164      5.088
REMARK  Name = 
REMARK  8 active torsions:
REMARK  status: ('A' for Active; 'I' for Inactive)
REMARK    1  A    between atoms: O_1  and  C_2
REMARK    2  A    between atoms: C_11  and  C_12
REMARK    3  A    between atoms: C_21  and  C_22
REMARK    4  A    between atoms: C_25  and  O_26
REMARK    5  A    between atoms: O_26  and  C_27
REMARK    6  A    between atoms: N_30  and  C_31
REMARK    7  A    between atoms: C_31  and  C_32
REMARK    8  A    between atoms: C_32  and  C_33
REMARK                            x       y       z     vdW  Elec       q    Type
REMARK                         _______ _______ _______ _____ _____    ______ ____
ROOT
ATOM      1  C   UNL     1      -4.405  13.174  24.069  0.00  0.00    +0.000 A 
ATOM      2  C   UNL     1      -3.549  12.098  23.911  0.00  0.00    +0.000 A 
ATOM      3  C   UNL     1      -2.419  12.245  23.110  0.00  0.00    +0.000 A 
ATOM      4  C   UNL     1      -2.122  13.461  22.457  0.00  0.00    +0.000 A 
ATOM      5  C   UNL     1      -3.008  14.549  22.624  0.00  0.00    +0.000 A 
ATOM      6  C   UNL     1      -4.145  14.387  23.443  0.00  0.00    +0.000 A 
ATOM      7  C   UNL     1      -2.854  15.851  21.870  0.00  0.00    +0.000 C 
ATOM      8  C   UNL     1      -1.543  16.626  22.037  0.00  0.00    +0.000 C 
ATOM      9  C   UNL     1      -0.337  15.816  22.491  0.00  0.00    +0.000 C 
ATOM     10  C   UNL     1      -0.086  14.603  21.636  0.00  0.00    +0.000 C 
ATOM     11  C   UNL     1      -0.892  13.510  21.604  0.00  0.00    +0.000 C 
ENDROOT
BRANCH  10  12
ATOM     12  C   UNL     1       1.191  14.659  20.891  0.00  0.00    +0.000 A 
ATOM     13  C   UNL     1       2.375  14.292  21.547  0.00  0.00    +0.000 A 
ATOM     14  C   UNL     1       3.583  14.187  20.857  0.00  0.00    +0.000 A 
ATOM     15  C   UNL     1       3.580  14.603  19.525  0.00  0.00    +0.000 A 
ATOM     16  N   UNL     1       4.570  14.572  18.573  0.00  0.00    +0.000 N 
ATOM     17  C   UNL     1       4.273  15.489  17.601  0.00  0.00    +0.000 A 
ATOM     18  C   UNL     1       2.911  15.688  17.662  0.00  0.00    +0.000 A 
ATOM     19  C   UNL     1       2.456  15.126  18.889  0.00  0.00    +0.000 A 
ATOM     20  C   UNL     1       1.215  15.063  19.547  0.00  0.00    +0.000 A 
ATOM     21  H   UNL     1       5.406  14.006  18.620  0.00  0.00    +0.000 HD
ENDBRANCH  10  12
BRANCH  11  22
ATOM     22  C   UNL     1      -0.432  12.342  20.817  0.00  0.00    +0.000 A 
ATOM     23  C   UNL     1       0.414  11.385  21.422  0.00  0.00    +0.000 A 
ATOM     24  C   UNL     1       0.896  10.316  20.694  0.00  0.00    +0.000 A 
ATOM     25  C   UNL     1       0.558  10.160  19.353  0.00  0.00    +0.000 A 
ATOM     26  C   UNL     1      -0.266  11.107  18.736  0.00  0.00    +0.000 A 
ATOM     27  C   UNL     1      -0.768  12.189  19.467  0.00  0.00    +0.000 A 
BRANCH  25  28
ATOM     28  O   UNL     1       0.970   9.125  18.554  0.00  0.00    +0.000 OA
BRANCH  28  29
ATOM     29  C   UNL     1       2.108   8.401  19.014  0.00  0.00    +0.000 C 
ATOM     30  C   UNL     1       1.664   7.376  20.044  0.00  0.00    +0.000 C 
ATOM     31  C   UNL     1       2.718   6.297  19.893  0.00  0.00    +0.000 C 
ATOM     32  N   UNL     1       2.927   6.166  18.437  0.00  0.00    +0.000 NA
ATOM     33  C   UNL     1       2.771   7.547  17.920  0.00  0.00    +0.000 C 
BRANCH  32  34
ATOM     34  C   UNL     1       1.935   5.243  17.853  0.00  0.00    +0.000 C 
BRANCH  34  35
ATOM     35  C   UNL     1       1.842   3.912  18.609  0.00  0.00    +0.000 C 
BRANCH  35  36
ATOM     36  C   UNL     1       2.475   2.794  17.801  0.00  0.00    +0.000 C 
ATOM     37  F   UNL     1       3.208   3.332  16.790  0.00  0.00    +0.000 F 
ENDBRANCH  35  36
ENDBRANCH  34  35
ENDBRANCH  32  34
ENDBRANCH  28  29
ENDBRANCH  25  28
ENDBRANCH  11  22
BRANCH   1  38
ATOM     38  O   UNL     1      -5.535  13.070  24.824  0.00  0.00    +0.000 OA
ATOM     39  H   UNL     1      -5.505  13.749  25.517  0.00  0.00    +0.000 HD
ENDBRANCH   1  38
TORSDOF 8
ENDMDL
MODEL 5
REMARK VINA RESULT:      -6.8      4.369      7.795
REMARK  Name = 
REMARK  8 active torsions:
REMARK  status: ('A' for Active; 'I' for Inactive)
REMARK    1  A    between atoms: O_1  and  C_2
REMARK    2  A    between atoms: C_11  and  C_12
REMARK    3  A    between atoms: C_21  and  C_22
REMARK    4  A    between atoms: C_25  and  O_26
REMARK    5  A    between atoms: O_26  and  C_27
REMARK    6  A    between atoms: N_30  and  C_31
REMARK    7  A    between atoms: C_31  and  C_32
REMARK    8  A    between atoms: C_32  and  C_33
REMARK                            x       y       z     vdW  Elec       q    Type
REMARK                         _______ _______ _______ _____ _____    ______ ____
ROOT
ATOM      1  C   UNL     1      -3.033  10.050  16.280  0.00  0.00    +0.000 A 
ATOM      2  C   UNL     1      -1.968  10.082  17.163  0.00  0.00    +0.000 A 
ATOM      3  C   UNL     1      -2.046  10.901  18.288  0.00  0.00    +0.000 A 
ATOM      4  C   UNL     1      -3.182  11.695  18.553  0.00  0.00    +0.000 A 
ATOM      5  C   UNL     1      -4.260  11.655  17.639  0.00  0.00    +0.000 A 
ATOM      6  C   UNL     1      -4.168  10.817  16.509  0.00  0.00    +0.000 A 
ATOM      7  C   UNL     1      -5.466  12.559  17.759  0.00  0.00    +0.000 C 
ATOM      8  C   UNL     1      -6.288  12.492  19.050  0.00  0.00    +0.000 C 
ATOM      9  C   UNL     1      -5.569  11.951  20.277  0.00  0.00    +0.000 C 
ATOM     10  C   UNL     1      -4.269  12.656  20.558  0.00  0.00    +0.000 C 
ATOM     11  C   UNL     1      -3.161  12.554  19.779  0.00  0.00    +0.000 C 
ENDROOT
BRANCH  10  12
ATOM     12  C   UNL     1      -4.268  13.409  21.831  0.00  0.00    +0.000 A 
ATOM     13  C   UNL     1      -4.010  12.720  23.025  0.00  0.00    +0.000 A 
ATOM     14  C   UNL     1      -3.854  13.398  24.234  0.00  0.00    +0.000 A 
ATOM     15  C   UNL     1      -4.110  14.769  24.219  0.00  0.00    +0.000 A 
ATOM     16  N   UNL     1      -3.991  15.715  25.208  0.00  0.00    +0.000 N 
ATOM     17  C   UNL     1      -4.780  16.787  24.886  0.00  0.00    +0.000 A 
ATOM     18  C   UNL     1      -4.952  16.744  23.519  0.00  0.00    +0.000 A 
ATOM     19  C   UNL     1      -4.528  15.457  23.081  0.00  0.00    +0.000 A 
ATOM     20  C   UNL     1      -4.512  14.790  21.843  0.00  0.00    +0.000 A 
ATOM     21  H   UNL     1      -3.455  15.607  26.057  0.00  0.00    +0.000 HD
ENDBRANCH  10  12
BRANCH  11  22
ATOM     22  C   UNL     1      -1.919  13.198  20.268  0.00  0.00    +0.000 A 
ATOM     23  C   UNL     1      -1.013  12.453  21.059  0.00  0.00    +0.000 A 
ATOM     24  C   UNL     1       0.124  13.047  21.567  0.00  0.00    +0.000 A 
ATOM     25  C   UNL     1       0.402  14.386  21.311  0.00  0.00    +0.000 A 
ATOM     26  C   UNL     1      -0.492  15.140  20.544  0.00  0.00    +0.000 A 
ATOM     27  C   UNL     1      -1.644  14.546  20.015  0.00  0.00    +0.000 A 
BRANCH  25  28
ATOM     28  O   UNL     1       1.512  15.058  21.755  0.00  0.00    +0.000 OA
BRANCH  28  29
ATOM     29  C   UNL     1       2.346  15.615  20.742  0.00  0.00    +0.000 C 
ATOM     30  C   UNL     1       3.752  15.058  20.893  0.00  0.00    +0.000 C 
ATOM     31  C   UNL     1       4.273  15.124  19.470  0.00  0.00    +0.000 C 
ATOM     32  N   UNL     1       3.147  14.673  18.628  0.00  0.00    +0.000 NA
ATOM     33  C   UNL     1       1.943  15.193  19.320  0.00  0.00    +0.000 C 
BRANCH  32  34
ATOM     34  C   UNL     1       3.133  13.201  18.528  0.00  0.00    +0.000 C 
BRANCH  34  35
ATOM     35  C   UNL     1       1.718  12.627  18.386  0.00  0.00    +0.000 C 
BRANCH  35  36
ATOM     36  C   UNL     1       1.759  11.111  18.336  0.00  0.00    +0.000 C 
ATOM     37  F   UNL     1       1.129  10.610  19.432  0.00  0.00    +0.000 F 
ENDBRANCH  35  36
ENDBRANCH  34  35
ENDBRANCH  32  34
ENDBRANCH  28  29
ENDBRANCH  25  28
ENDBRANCH  11  22
BRANCH   1  38
ATOM     38  O   UNL     1      -2.990   9.282  15.155  0.00  0.00    +0.000 OA
ATOM     39  H   UNL     1      -2.871   9.868  14.389  0.00  0.00    +0.000 HD
ENDBRANCH   1  38
TORSDOF 8
ENDMDL
MODEL 6
REMARK VINA RESULT:      -6.6      5.316      9.370
REMARK  Name = 
REMARK  8 active torsions:
REMARK  status: ('A' for Active; 'I' for Inactive)
REMARK    1  A    between atoms: O_1  and  C_2
REMARK    2  A    between atoms: C_11  and  C_12
REMARK    3  A    between atoms: C_21  and  C_22
REMARK    4  A    between atoms: C_25  and  O_26
REMARK    5  A    between atoms: O_26  and  C_27
REMARK    6  A    between atoms: N_30  and  C_31
REMARK    7  A    between atoms: C_31  and  C_32
REMARK    8  A    between atoms: C_32  and  C_33
REMARK                            x       y       z     vdW  Elec       q    Type
REMARK                         _______ _______ _______ _____ _____    ______ ____
ROOT
ATOM      1  C   UNL     1      -6.422  11.282  18.874  0.00  0.00    +0.000 A 
ATOM      2  C   UNL     1      -6.114  12.411  19.613  0.00  0.00    +0.000 A 
ATOM      3  C   UNL     1      -4.777  12.761  19.787  0.00  0.00    +0.000 A 
ATOM      4  C   UNL     1      -3.729  11.998  19.229  0.00  0.00    +0.000 A 
ATOM      5  C   UNL     1      -4.059  10.845  18.481  0.00  0.00    +0.000 A 
ATOM      6  C   UNL     1      -5.417  10.507  18.308  0.00  0.00    +0.000 A 
ATOM      7  C   UNL     1      -3.014   9.890  17.950  0.00  0.00    +0.000 C 
ATOM      8  C   UNL     1      -1.944  10.448  17.006  0.00  0.00    +0.000 C 
ATOM      9  C   UNL     1      -1.689  11.946  17.090  0.00  0.00    +0.000 C 
ATOM     10  C   UNL     1      -1.404  12.417  18.491  0.00  0.00    +0.000 C 
ATOM     11  C   UNL     1      -2.324  12.449  19.490  0.00  0.00    +0.000 C 
ENDROOT
BRANCH  10  12
ATOM     12  C   UNL     1      -0.033  12.946  18.670  0.00  0.00    +0.000 A 
ATOM     13  C   UNL     1       0.998  12.055  18.998  0.00  0.00    +0.000 A 
ATOM     14  C   UNL     1       2.329  12.470  19.037  0.00  0.00    +0.000 A 
ATOM     15  C   UNL     1       2.563  13.836  18.877  0.00  0.00    +0.000 A 
ATOM     16  N   UNL     1       3.738  14.544  18.806  0.00  0.00    +0.000 N 
ATOM     17  C   UNL     1       3.482  15.852  19.120  0.00  0.00    +0.000 A 
ATOM     18  C   UNL     1       2.142  16.055  18.867  0.00  0.00    +0.000 A 
ATOM     19  C   UNL     1       1.543  14.772  18.711  0.00  0.00    +0.000 A 
ATOM     20  C   UNL     1       0.230  14.314  18.504  0.00  0.00    +0.000 A 
ATOM     21  H   UNL     1       4.647  14.148  18.611  0.00  0.00    +0.000 HD
ENDBRANCH  10  12
BRANCH  11  22
ATOM     22  C   UNL     1      -1.923  13.072  20.773  0.00  0.00    +0.000 A 
ATOM     23  C   UNL     1      -1.850  14.481  20.870  0.00  0.00    +0.000 A 
ATOM     24  C   UNL     1      -1.429  15.081  22.039  0.00  0.00    +0.000 A 
ATOM     25  C   UNL     1      -1.071  14.313  23.143  0.00  0.00    +0.000 A 
ATOM     26  C   UNL     1      -1.122  12.918  23.057  0.00  0.00    +0.000 A 
ATOM     27  C   UNL     1      -1.556  12.299  21.880  0.00  0.00    +0.000 A 
BRANCH  25  28
ATOM     28  O   UNL     1      -0.659  14.815  24.351  0.00  0.00    +0.000 OA
BRANCH  28  29
ATOM     29  C   UNL     1      -1.649  15.513  25.102  0.00  0.00    +0.000 C 
ATOM     30  C   UNL     1      -2.031  16.785  24.364  0.00  0.00    +0.000 C 
ATOM     31  C   UNL     1      -3.459  17.002  24.826  0.00  0.00    +0.000 C 
ATOM     32  N   UNL     1      -4.075  15.661  24.809  0.00  0.00    +0.000 NA
ATOM     33  C   UNL     1      -2.978  14.750  25.216  0.00  0.00    +0.000 C 
BRANCH  32  34
ATOM     34  C   UNL     1      -4.586  15.342  23.463  0.00  0.00    +0.000 C 
BRANCH  34  35
ATOM     35  C   UNL     1      -4.899  13.852  23.281  0.00  0.00    +0.000 C 
BRANCH  35  36
ATOM     36  C   UNL     1      -6.398  13.620  23.258  0.00  0.00    +0.000 C 
ATOM     37  F   UNL     1      -6.646  12.332  22.897  0.00  0.00    +0.000 F 
ENDBRANCH  35  36
ENDBRANCH  34  35
ENDBRANCH  32  34
ENDBRANCH  28  29
ENDBRANCH  25  28
ENDBRANCH  11  22
BRANCH   1  38
ATOM     38  O   UNL     1      -7.715  10.888  18.697  0.00  0.00    +0.000 OA
ATOM     39  H   UNL     1      -7.716  10.055  18.196  0.00  0.00    +0.000 HD
ENDBRANCH   1  38
TORSDOF 8
ENDMDL
MODEL 7
REMARK VINA RESULT:      -6.6      5.271      8.539
REMARK  Name = 
REMARK  8 active torsions:
REMARK  status: ('A' for Active; 'I' for Inactive)
REMARK    1  A    between atoms: O_1  and  C_2
REMARK    2  A    between atoms: C_11  and  C_12
REMARK    3  A    between atoms: C_21  and  C_22
REMARK    4  A    between atoms: C_25  and  O_26
REMARK    5  A    between atoms: O_26  and  C_27
REMARK    6  A    between atoms: N_30  and  C_31
REMARK    7  A    between atoms: C_31  and  C_32
REMARK    8  A    between atoms: C_32  and  C_33
REMARK                            x       y       z     vdW  Elec       q    Type
REMARK                         _______ _______ _______ _____ _____    ______ ____
ROOT
ATOM      1  C   UNL     1      -3.083  10.043  16.104  0.00  0.00    +0.000 A 
ATOM      2  C   UNL     1      -2.053   9.932  17.021  0.00  0.00    +0.000 A 
ATOM      3  C   UNL     1      -2.091  10.708  18.178  0.00  0.00    +0.000 A 
ATOM      4  C   UNL     1      -3.153  11.600  18.441  0.00  0.00    +0.000 A 
ATOM      5  C   UNL     1      -4.196  11.705  17.493  0.00  0.00    +0.000 A 
ATOM      6  C   UNL     1      -4.145  10.909  16.329  0.00  0.00    +0.000 A 
ATOM      7  C   UNL     1      -5.310  12.719  17.614  0.00  0.00    +0.000 C 
ATOM      8  C   UNL     1      -6.181  12.681  18.873  0.00  0.00    +0.000 C 
ATOM      9  C   UNL     1      -5.564  12.021  20.098  0.00  0.00    +0.000 C 
ATOM     10  C   UNL     1      -4.213  12.581  20.451  0.00  0.00    +0.000 C 
ATOM     11  C   UNL     1      -3.092  12.401  19.705  0.00  0.00    +0.000 C 
ENDROOT
BRANCH  10  12
ATOM     12  C   UNL     1      -4.184  13.277  21.756  0.00  0.00    +0.000 A 
ATOM     13  C   UNL     1      -4.012  12.520  22.923  0.00  0.00    +0.000 A 
ATOM     14  C   UNL     1      -3.833  13.131  24.164  0.00  0.00    +0.000 A 
ATOM     15  C   UNL     1      -3.978  14.518  24.204  0.00  0.00    +0.000 A 
ATOM     16  N   UNL     1      -3.810  15.410  25.236  0.00  0.00    +0.000 N 
ATOM     17  C   UNL     1      -4.503  16.554  24.944  0.00  0.00    +0.000 A 
ATOM     18  C   UNL     1      -4.643  16.582  23.574  0.00  0.00    +0.000 A 
ATOM     19  C   UNL     1      -4.311  15.285  23.089  0.00  0.00    +0.000 A 
ATOM     20  C   UNL     1      -4.317  14.672  21.823  0.00  0.00    +0.000 A 
ATOM     21  H   UNL     1      -3.306  15.223  26.092  0.00  0.00    +0.000 HD
ENDBRANCH  10  12
BRANCH  11  22
ATOM     22  C   UNL     1      -1.811  12.898  20.261  0.00  0.00    +0.000 A 
ATOM     23  C   UNL     1      -1.030  12.046  21.077  0.00  0.00    +0.000 A 
ATOM     24  C   UNL     1       0.140  12.504  21.647  0.00  0.00    +0.000 A 
ATOM     25  C   UNL     1       0.574  13.809  21.430  0.00  0.00    +0.000 A 
ATOM     26  C   UNL     1      -0.196  14.667  20.639  0.00  0.00    +0.000 A 
ATOM     27  C   UNL     1      -1.379  14.211  20.048  0.00  0.00    +0.000 A 
BRANCH  25  28
ATOM     28  O   UNL     1       1.728  14.348  21.936  0.00  0.00    +0.000 OA
BRANCH  28  29
ATOM     29  C   UNL     1       2.212  15.513  21.273  0.00  0.00    +0.000 C 
ATOM     30  C   UNL     1       2.953  16.386  22.272  0.00  0.00    +0.000 C 
ATOM     31  C   UNL     1       3.948  17.108  21.386  0.00  0.00    +0.000 C 
ATOM     32  N   UNL     1       4.449  16.079  20.454  0.00  0.00    +0.000 NA
ATOM     33  C   UNL     1       3.274  15.209  20.204  0.00  0.00    +0.000 C 
BRANCH  32  34
ATOM     34  C   UNL     1       5.569  15.333  21.059  0.00  0.00    +0.000 C 
BRANCH  34  35
ATOM     35  C   UNL     1       6.670  14.987  20.049  0.00  0.00    +0.000 C 
BRANCH  35  36
ATOM     36  C   UNL     1       6.795  16.078  19.001  0.00  0.00    +0.000 C 
ATOM     37  F   UNL     1       7.134  15.517  17.810  0.00  0.00    +0.000 F 
ENDBRANCH  35  36
ENDBRANCH  34  35
ENDBRANCH  32  34
ENDBRANCH  28  29
ENDBRANCH  25  28
ENDBRANCH  11  22
BRANCH   1  38
ATOM     38  O   UNL     1      -3.075   9.322  14.947  0.00  0.00    +0.000 OA
ATOM     39  H   UNL     1      -3.216   8.386  15.167  0.00  0.00    +0.000 HD
ENDBRANCH   1  38
TORSDOF 8
ENDMDL
MODEL 8
REMARK VINA RESULT:      -6.6      1.536      1.867
REMARK  Name = 
REMARK  8 active torsions:
REMARK  status: ('A' for Active; 'I' for Inactive)
REMARK    1  A    between atoms: O_1  and  C_2
REMARK    2  A    between atoms: C_11  and  C_12
REMARK    3  A    between atoms: C_21  and  C_22
REMARK    4  A    between atoms: C_25  and  O_26
REMARK    5  A    between atoms: O_26  and  C_27
REMARK    6  A    between atoms: N_30  and  C_31
REMARK    7  A    between atoms: C_31  and  C_32
REMARK    8  A    between atoms: C_32  and  C_33
REMARK                            x       y       z     vdW  Elec       q    Type
REMARK                         _______ _______ _______ _____ _____    ______ ____
ROOT
ATOM      1  C   UNL     1       3.352  15.344  22.094  0.00  0.00    +0.000 A 
ATOM      2  C   UNL     1       3.704  14.557  21.011  0.00  0.00    +0.000 A 
ATOM      3  C   UNL     1       2.725  13.784  20.391  0.00  0.00    +0.000 A 
ATOM      4  C   UNL     1       1.385  13.783  20.835  0.00  0.00    +0.000 A 
ATOM      5  C   UNL     1       1.042  14.588  21.945  0.00  0.00    +0.000 A 
ATOM      6  C   UNL     1       2.043  15.369  22.559  0.00  0.00    +0.000 A 
ATOM      7  C   UNL     1      -0.330  14.563  22.579  0.00  0.00    +0.000 C 
ATOM      8  C   UNL     1      -1.535  14.906  21.697  0.00  0.00    +0.000 C 
ATOM      9  C   UNL     1      -1.343  14.727  20.198  0.00  0.00    +0.000 C 
ATOM     10  C   UNL     1      -0.836  13.359  19.828  0.00  0.00    +0.000 C 
ATOM     11  C   UNL     1       0.412  12.904  20.111  0.00  0.00    +0.000 C 
ENDROOT
BRANCH  10  12
ATOM     12  C   UNL     1      -1.798  12.569  19.028  0.00  0.00    +0.000 A 
ATOM     13  C   UNL     1      -3.024  12.210  19.605  0.00  0.00    +0.000 A 
ATOM     14  C   UNL     1      -4.024  11.592  18.854  0.00  0.00    +0.000 A 
ATOM     15  C   UNL     1      -3.690  11.223  17.550  0.00  0.00    +0.000 A 
ATOM     16  N   UNL     1      -4.450  10.663  16.553  0.00  0.00    +0.000 N 
ATOM     17  C   UNL     1      -3.616  10.058  15.652  0.00  0.00    +0.000 A 
ATOM     18  C   UNL     1      -2.389  10.672  15.789  0.00  0.00    +0.000 A 
ATOM     19  C   UNL     1      -2.425  11.420  17.000  0.00  0.00    +0.000 A 
ATOM     20  C   UNL     1      -1.490  12.194  17.711  0.00  0.00    +0.000 A 
ATOM     21  H   UNL     1      -5.461  10.653  16.526  0.00  0.00    +0.000 HD
ENDBRANCH  10  12
BRANCH  11  22
ATOM     22  C   UNL     1       0.804  11.587  19.555  0.00  0.00    +0.000 A 
ATOM     23  C   UNL     1       1.615  11.533  18.398  0.00  0.00    +0.000 A 
ATOM     24  C   UNL     1       1.950  10.320  17.833  0.00  0.00    +0.000 A 
ATOM     25  C   UNL     1       1.498   9.127  18.392  0.00  0.00    +0.000 A 
ATOM     26  C   UNL     1       0.681   9.165  19.527  0.00  0.00    +0.000 A 
ATOM     27  C   UNL     1       0.344  10.390  20.113  0.00  0.00    +0.000 A 
BRANCH  25  28
ATOM     28  O   UNL     1       1.791   7.875  17.916  0.00  0.00    +0.000 OA
BRANCH  28  29
ATOM     29  C   UNL     1       2.830   7.180  18.599  0.00  0.00    +0.000 C 
ATOM     30  C   UNL     1       2.580   5.684  18.498  0.00  0.00    +0.000 C 
ATOM     31  C   UNL     1       3.986   5.122  18.584  0.00  0.00    +0.000 C 
ATOM     32  N   UNL     1       4.809   6.016  17.746  0.00  0.00    +0.000 NA
ATOM     33  C   UNL     1       4.212   7.358  17.949  0.00  0.00    +0.000 C 
BRANCH  32  34
ATOM     34  C   UNL     1       4.755   5.595  16.333  0.00  0.00    +0.000 C 
BRANCH  34  35
ATOM     35  C   UNL     1       5.098   4.113  16.139  0.00  0.00    +0.000 C 
BRANCH  35  36
ATOM     36  C   UNL     1       6.347   3.961  15.290  0.00  0.00    +0.000 C 
ATOM     37  F   UNL     1       5.999   3.482  14.065  0.00  0.00    +0.000 F 
ENDBRANCH  35  36
ENDBRANCH  34  35
ENDBRANCH  32  34
ENDBRANCH  28  29
ENDBRANCH  25  28
ENDBRANCH  11  22
BRANCH   1  38
ATOM     38  O   UNL     1       4.281  16.097  22.747  0.00  0.00    +0.000 OA
ATOM     39  H   UNL     1       3.921  16.992  22.868  0.00  0.00    +0.000 HD
ENDBRANCH   1  38
TORSDOF 8
ENDMDL
MODEL 9
REMARK VINA RESULT:      -6.5      5.203      8.432
REMARK  Name = 
REMARK  8 active torsions:
REMARK  status: ('A' for Active; 'I' for Inactive)
REMARK    1  A    between atoms: O_1  and  C_2
REMARK    2  A    between atoms: C_11  and  C_12
REMARK    3  A    between atoms: C_21  and  C_22
REMARK    4  A    between atoms: C_25  and  O_26
REMARK    5  A    between atoms: O_26  and  C_27
REMARK    6  A    between atoms: N_30  and  C_31
REMARK    7  A    between atoms: C_31  and  C_32
REMARK    8  A    between atoms: C_32  and  C_33
REMARK                            x       y       z     vdW  Elec       q    Type
REMARK                         _______ _______ _______ _____ _____    ______ ____
ROOT
ATOM      1  C   UNL     1      -3.161  10.073  16.075  0.00  0.00    +0.000 A 
ATOM      2  C   UNL     1      -2.080  10.013  16.938  0.00  0.00    +0.000 A 
ATOM      3  C   UNL     1      -2.092  10.795  18.091  0.00  0.00    +0.000 A 
ATOM      4  C   UNL     1      -3.175  11.643  18.405  0.00  0.00    +0.000 A 
ATOM      5  C   UNL     1      -4.270  11.697  17.512  0.00  0.00    +0.000 A 
ATOM      6  C   UNL     1      -4.246  10.895  16.352  0.00  0.00    +0.000 A 
ATOM      7  C   UNL     1      -5.418  12.664  17.687  0.00  0.00    +0.000 C 
ATOM      8  C   UNL     1      -6.220  12.598  18.990  0.00  0.00    +0.000 C 
ATOM      9  C   UNL     1      -5.513  11.973  20.184  0.00  0.00    +0.000 C 
ATOM     10  C   UNL     1      -4.170  12.593  20.463  0.00  0.00    +0.000 C 
ATOM     11  C   UNL     1      -3.083  12.455  19.660  0.00  0.00    +0.000 C 
ENDROOT
BRANCH  10  12
ATOM     12  C   UNL     1      -4.103  13.299  21.761  0.00  0.00    +0.000 A 
ATOM     13  C   UNL     1      -3.793  12.565  22.916  0.00  0.00    +0.000 A 
ATOM     14  C   UNL     1      -3.575  13.198  24.139  0.00  0.00    +0.000 A 
ATOM     15  C   UNL     1      -3.821  14.570  24.186  0.00  0.00    +0.000 A 
ATOM     16  N   UNL     1      -3.650  15.480  25.202  0.00  0.00    +0.000 N 
ATOM     17  C   UNL     1      -4.446  16.567  24.957  0.00  0.00    +0.000 A 
ATOM     18  C   UNL     1      -4.683  16.574  23.600  0.00  0.00    +0.000 A 
ATOM     19  C   UNL     1      -4.288  15.302  23.095  0.00  0.00    +0.000 A 
ATOM     20  C   UNL     1      -4.336  14.680  21.835  0.00  0.00    +0.000 A 
ATOM     21  H   UNL     1      -3.074  15.337  26.020  0.00  0.00    +0.000 HD
ENDBRANCH  10  12
BRANCH  11  22
ATOM     22  C   UNL     1      -1.797  13.010  20.146  0.00  0.00    +0.000 A 
ATOM     23  C   UNL     1      -1.461  14.351  19.850  0.00  0.00    +0.000 A 
ATOM     24  C   UNL     1      -0.248  14.874  20.248  0.00  0.00    +0.000 A 
ATOM     25  C   UNL     1       0.666  14.092  20.949  0.00  0.00    +0.000 A 
ATOM     26  C   UNL     1       0.355  12.759  21.235  0.00  0.00    +0.000 A 
ATOM     27  C   UNL     1      -0.876  12.222  20.845  0.00  0.00    +0.000 A 
BRANCH  25  28
ATOM     28  O   UNL     1       1.886  14.525  21.402  0.00  0.00    +0.000 OA
BRANCH  28  29
ATOM     29  C   UNL     1       2.384  15.717  20.801  0.00  0.00    +0.000 C 
ATOM     30  C   UNL     1       3.477  16.301  21.680  0.00  0.00    +0.000 C 
ATOM     31  C   UNL     1       4.337  17.036  20.671  0.00  0.00    +0.000 C 
ATOM     32  N   UNL     1       4.422  16.130  19.507  0.00  0.00    +0.000 NA
ATOM     33  C   UNL     1       3.093  15.473  19.459  0.00  0.00    +0.000 C 
BRANCH  32  34
ATOM     34  C   UNL     1       5.514  15.155  19.689  0.00  0.00    +0.000 C 
BRANCH  34  35
ATOM     35  C   UNL     1       6.720  15.436  18.784  0.00  0.00    +0.000 C 
BRANCH  35  36
ATOM     36  C   UNL     1       6.860  14.353  17.730  0.00  0.00    +0.000 C 
ATOM     37  F   UNL     1       8.021  13.676  17.936  0.00  0.00    +0.000 F 
ENDBRANCH  35  36
ENDBRANCH  34  35
ENDBRANCH  32  34
ENDBRANCH  28  29
ENDBRANCH  25  28
ENDBRANCH  11  22
BRANCH   1  38
ATOM     38  O   UNL     1      -3.182   9.345  14.923  0.00  0.00    +0.000 OA
ATOM     39  H   UNL     1      -2.329   8.891  14.832  0.00  0.00    +0.000 HD
ENDBRANCH   1  38
TORSDOF 8
ENDMDL
