MODEL 1
REMARK VINA RESULT:      -7.9      0.000      0.000
REMARK  Name = 
REMARK  6 active torsions:
REMARK  status: ('A' for Active; 'I' for Inactive)
REMARK    1  A    between atoms: C_1  and  C_2
REMARK    2  A    between atoms: C_2  and  N_3
REMARK    3  A    between atoms: N_5  and  C_6
REMARK    4  A    between atoms: C_6  and  C_7
REMARK    5  A    between atoms: C_7  and  C_9
REMARK    6  A    between atoms: C_12  and  N_13
REMARK                            x       y       z     vdW  Elec       q    Type
REMARK                         _______ _______ _______ _____ _____    ______ ____
ROOT
ATOM      1  N   UNL     1       3.666   3.840  19.502  0.00  0.00    +0.000 N 
ATOM      2  C   UNL     1       4.608   3.554  18.596  0.00  0.00    +0.000 A 
ATOM      3  N   UNL     1       4.739   4.625  17.791  0.00  0.00    +0.000 N 
ATOM      4  C   UNL     1       3.850   5.636  18.220  0.00  0.00    +0.000 A 
ATOM      5  C   UNL     1       3.234   5.159  19.351  0.00  0.00    +0.000 A 
ATOM      6  C   UNL     1       2.285   5.891  20.134  0.00  0.00    +0.000 C 
ATOM      7  O   UNL     1       1.686   5.530  21.136  0.00  0.00    +0.000 OA
ATOM      8  C   UNL     1       2.019   7.262  19.623  0.00  0.00    +0.000 A 
ATOM      9  C   UNL     1       1.134   8.074  20.351  0.00  0.00    +0.000 A 
ATOM     10  C   UNL     1       0.839   9.363  19.909  0.00  0.00    +0.000 A 
ATOM     11  C   UNL     1       1.428   9.850  18.746  0.00  0.00    +0.000 A 
ATOM     12  C   UNL     1       2.311   9.049  18.014  0.00  0.00    +0.000 A 
ATOM     13  C   UNL     1       2.613   7.749  18.448  0.00  0.00    +0.000 A 
ATOM     14  C   UNL     1       3.566   6.916  17.639  0.00  0.00    +0.000 C 
ATOM     15  O   UNL     1       3.999   7.365  16.581  0.00  0.00    +0.000 OA
ENDROOT
BRANCH   1  17
ATOM     16  C   UNL     1       1.864   2.245  19.893  0.00  0.00    +0.000 C 
ATOM     17  C   UNL     1       3.121   2.874  20.469  0.00  0.00    +0.000 C 
ENDBRANCH   1  17
BRANCH   3  18
ATOM     18  C   UNL     1       5.667   4.676  16.640  0.00  0.00    +0.000 C 
BRANCH  18  19
ATOM     19  C   UNL     1       7.101   4.951  17.088  0.00  0.00    +0.000 C 
ATOM     20  O   UNL     1       7.985   4.098  17.017  0.00  0.00    +0.000 OA
BRANCH  19  21
ATOM     21  C   UNL     1       7.443   6.312  17.575  0.00  0.00    +0.000 A 
ATOM     22  C   UNL     1       7.182   7.461  16.818  0.00  0.00    +0.000 A 
ATOM     23  C   UNL     1       7.652   8.705  17.258  0.00  0.00    +0.000 A 
ATOM     24  C   UNL     1       8.378   8.792  18.456  0.00  0.00    +0.000 A 
ATOM     25  C   UNL     1       8.572   7.656  19.252  0.00  0.00    +0.000 A 
ATOM     26  C   UNL     1       8.093   6.419  18.813  0.00  0.00    +0.000 A 
BRANCH  24  27
ATOM     27  N   UNL     1       8.980  10.072  18.854  0.00  0.00    +0.000 N 
ATOM     28  O   UNL     1       9.541  10.123  19.957  0.00  0.00    +0.000 OA
ATOM     29  O   UNL     1       8.865  11.027  18.075  0.00  0.00    +0.000 OA
ENDBRANCH  24  27
ENDBRANCH  19  21
ENDBRANCH  18  19
ENDBRANCH   3  18
TORSDOF 5
ENDMDL
MODEL 2
REMARK VINA RESULT:      -7.6      3.908      7.440
REMARK  Name = 
REMARK  6 active torsions:
REMARK  status: ('A' for Active; 'I' for Inactive)
REMARK    1  A    between atoms: C_1  and  C_2
REMARK    2  A    between atoms: C_2  and  N_3
REMARK    3  A    between atoms: N_5  and  C_6
REMARK    4  A    between atoms: C_6  and  C_7
REMARK    5  A    between atoms: C_7  and  C_9
REMARK    6  A    between atoms: C_12  and  N_13
REMARK                            x       y       z     vdW  Elec       q    Type
REMARK                         _______ _______ _______ _____ _____    ______ ____
ROOT
ATOM      1  N   UNL     1       2.261   4.988  20.573  0.00  0.00    +0.000 N 
ATOM      2  C   UNL     1       1.613   6.126  20.843  0.00  0.00    +0.000 A 
ATOM      3  N   UNL     1       1.956   7.024  19.901  0.00  0.00    +0.000 N 
ATOM      4  C   UNL     1       2.847   6.419  18.988  0.00  0.00    +0.000 A 
ATOM      5  C   UNL     1       2.971   5.107  19.377  0.00  0.00    +0.000 A 
ATOM      6  C   UNL     1       3.753   4.123  18.691  0.00  0.00    +0.000 C 
ATOM      7  O   UNL     1       3.925   2.950  18.984  0.00  0.00    +0.000 OA
ATOM      8  C   UNL     1       4.433   4.641  17.474  0.00  0.00    +0.000 A 
ATOM      9  C   UNL     1       5.188   3.738  16.708  0.00  0.00    +0.000 A 
ATOM     10  C   UNL     1       5.856   4.174  15.565  0.00  0.00    +0.000 A 
ATOM     11  C   UNL     1       5.769   5.507  15.176  0.00  0.00    +0.000 A 
ATOM     12  C   UNL     1       5.019   6.415  15.931  0.00  0.00    +0.000 A 
ATOM     13  C   UNL     1       4.345   5.987  17.086  0.00  0.00    +0.000 A 
ATOM     14  C   UNL     1       3.547   6.988  17.873  0.00  0.00    +0.000 C 
ATOM     15  O   UNL     1       3.564   8.167  17.529  0.00  0.00    +0.000 OA
ENDROOT
BRANCH   1  17
ATOM     16  C   UNL     1       1.130   2.885  21.067  0.00  0.00    +0.000 C 
ATOM     17  C   UNL     1       2.274   3.808  21.452  0.00  0.00    +0.000 C 
ENDBRANCH   1  17
BRANCH   3  18
ATOM     18  C   UNL     1       1.463   8.420  19.882  0.00  0.00    +0.000 C 
BRANCH  18  19
ATOM     19  C   UNL     1       1.223   8.948  21.295  0.00  0.00    +0.000 C 
ATOM     20  O   UNL     1       1.946   8.642  22.242  0.00  0.00    +0.000 OA
BRANCH  19  21
ATOM     21  C   UNL     1       0.107   9.905  21.513  0.00  0.00    +0.000 A 
ATOM     22  C   UNL     1      -0.413  10.692  20.478  0.00  0.00    +0.000 A 
ATOM     23  C   UNL     1      -1.364  11.679  20.765  0.00  0.00    +0.000 A 
ATOM     24  C   UNL     1      -1.793  11.870  22.088  0.00  0.00    +0.000 A 
ATOM     25  C   UNL     1      -1.332  11.032  23.111  0.00  0.00    +0.000 A 
ATOM     26  C   UNL     1      -0.389  10.044  22.818  0.00  0.00    +0.000 A 
BRANCH  24  27
ATOM     27  N   UNL     1      -2.694  12.986  22.410  0.00  0.00    +0.000 N 
ATOM     28  O   UNL     1      -2.178  14.086  22.653  0.00  0.00    +0.000 OA
ATOM     29  O   UNL     1      -3.909  12.751  22.444  0.00  0.00    +0.000 OA
ENDBRANCH  24  27
ENDBRANCH  19  21
ENDBRANCH  18  19
ENDBRANCH   3  18
TORSDOF 5
ENDMDL
MODEL 3
REMARK VINA RESULT:      -7.5      2.943      4.967
REMARK  Name = 
REMARK  6 active torsions:
REMARK  status: ('A' for Active; 'I' for Inactive)
REMARK    1  A    between atoms: C_1  and  C_2
REMARK    2  A    between atoms: C_2  and  N_3
REMARK    3  A    between atoms: N_5  and  C_6
REMARK    4  A    between atoms: C_6  and  C_7
REMARK    5  A    between atoms: C_7  and  C_9
REMARK    6  A    between atoms: C_12  and  N_13
REMARK                            x       y       z     vdW  Elec       q    Type
REMARK                         _______ _______ _______ _____ _____    ______ ____
ROOT
ATOM      1  N   UNL     1       3.981   4.534  18.777  0.00  0.00    +0.000 N 
ATOM      2  C   UNL     1       4.720   4.799  17.694  0.00  0.00    +0.000 A 
ATOM      3  N   UNL     1       4.419   6.047  17.289  0.00  0.00    +0.000 N 
ATOM      4  C   UNL     1       3.458   6.598  18.165  0.00  0.00    +0.000 A 
ATOM      5  C   UNL     1       3.248   5.663  19.150  0.00  0.00    +0.000 A 
ATOM      6  C   UNL     1       2.375   5.840  20.271  0.00  0.00    +0.000 C 
ATOM      7  O   UNL     1       2.124   5.053  21.171  0.00  0.00    +0.000 OA
ATOM      8  C   UNL     1       1.702   7.166  20.301  0.00  0.00    +0.000 A 
ATOM      9  C   UNL     1       0.859   7.451  21.388  0.00  0.00    +0.000 A 
ATOM     10  C   UNL     1       0.194   8.673  21.459  0.00  0.00    +0.000 A 
ATOM     11  C   UNL     1       0.369   9.619  20.452  0.00  0.00    +0.000 A 
ATOM     12  C   UNL     1       1.206   9.345  19.365  0.00  0.00    +0.000 A 
ATOM     13  C   UNL     1       1.879   8.116  19.283  0.00  0.00    +0.000 A 
ATOM     14  C   UNL     1       2.771   7.856  18.103  0.00  0.00    +0.000 C 
ATOM     15  O   UNL     1       2.833   8.692  17.206  0.00  0.00    +0.000 OA
ENDROOT
BRANCH   1  17
ATOM     16  C   UNL     1       3.267   2.222  18.481  0.00  0.00    +0.000 C 
ATOM     17  C   UNL     1       3.905   3.220  19.433  0.00  0.00    +0.000 C 
ENDBRANCH   1  17
BRANCH   3  18
ATOM     18  C   UNL     1       5.013   6.686  16.094  0.00  0.00    +0.000 C 
BRANCH  18  19
ATOM     19  C   UNL     1       6.303   5.987  15.668  0.00  0.00    +0.000 C 
ATOM     20  O   UNL     1       7.356   6.116  16.293  0.00  0.00    +0.000 OA
BRANCH  19  21
ATOM     21  C   UNL     1       6.264   5.082  14.491  0.00  0.00    +0.000 A 
ATOM     22  C   UNL     1       5.179   4.232  14.240  0.00  0.00    +0.000 A 
ATOM     23  C   UNL     1       5.254   3.298  13.200  0.00  0.00    +0.000 A 
ATOM     24  C   UNL     1       6.414   3.223  12.412  0.00  0.00    +0.000 A 
ATOM     25  C   UNL     1       7.467   4.124  12.612  0.00  0.00    +0.000 A 
ATOM     26  C   UNL     1       7.384   5.059  13.646  0.00  0.00    +0.000 A 
BRANCH  24  27
ATOM     27  N   UNL     1       6.544   2.161  11.404  0.00  0.00    +0.000 N 
ATOM     28  O   UNL     1       7.652   2.013  10.869  0.00  0.00    +0.000 OA
ATOM     29  O   UNL     1       5.533   1.499  11.133  0.00  0.00    +0.000 OA
ENDBRANCH  24  27
ENDBRANCH  19  21
ENDBRANCH  18  19
ENDBRANCH   3  18
TORSDOF 5
ENDMDL
MODEL 4
REMARK VINA RESULT:      -7.4      3.940      7.524
REMARK  Name = 
REMARK  6 active torsions:
REMARK  status: ('A' for Active; 'I' for Inactive)
REMARK    1  A    between atoms: C_1  and  C_2
REMARK    2  A    between atoms: C_2  and  N_3
REMARK    3  A    between atoms: N_5  and  C_6
REMARK    4  A    between atoms: C_6  and  C_7
REMARK    5  A    between atoms: C_7  and  C_9
REMARK    6  A    between atoms: C_12  and  N_13
REMARK                            x       y       z     vdW  Elec       q    Type
REMARK                         _______ _______ _______ _____ _____    ______ ____
ROOT
ATOM      1  N   UNL     1       2.189   5.065  20.674  0.00  0.00    +0.000 N 
ATOM      2  C   UNL     1       1.513   6.184  20.957  0.00  0.00    +0.000 A 
ATOM      3  N   UNL     1       1.823   7.096  20.018  0.00  0.00    +0.000 N 
ATOM      4  C   UNL     1       2.722   6.521  19.093  0.00  0.00    +0.000 A 
ATOM      5  C   UNL     1       2.885   5.211  19.472  0.00  0.00    +0.000 A 
ATOM      6  C   UNL     1       3.687   4.252  18.774  0.00  0.00    +0.000 C 
ATOM      7  O   UNL     1       3.892   3.082  19.057  0.00  0.00    +0.000 OA
ATOM      8  C   UNL     1       4.340   4.796  17.553  0.00  0.00    +0.000 A 
ATOM      9  C   UNL     1       5.113   3.917  16.775  0.00  0.00    +0.000 A 
ATOM     10  C   UNL     1       5.757   4.378  15.628  0.00  0.00    +0.000 A 
ATOM     11  C   UNL     1       5.631   5.711  15.248  0.00  0.00    +0.000 A 
ATOM     12  C   UNL     1       4.864   6.594  16.016  0.00  0.00    +0.000 A 
ATOM     13  C   UNL     1       4.213   6.141  17.174  0.00  0.00    +0.000 A 
ATOM     14  C   UNL     1       3.396   7.115  17.974  0.00  0.00    +0.000 C 
ATOM     15  O   UNL     1       3.378   8.296  17.638  0.00  0.00    +0.000 OA
ENDROOT
BRANCH   1  17
ATOM     16  C   UNL     1       1.166   2.897  21.118  0.00  0.00    +0.000 C 
ATOM     17  C   UNL     1       2.242   3.881  21.546  0.00  0.00    +0.000 C 
ENDBRANCH   1  17
BRANCH   3  18
ATOM     18  C   UNL     1       1.293   8.478  20.012  0.00  0.00    +0.000 C 
BRANCH  18  19
ATOM     19  C   UNL     1       1.227   9.059  21.423  0.00  0.00    +0.000 C 
ATOM     20  O   UNL     1       1.995   8.701  22.316  0.00  0.00    +0.000 OA
BRANCH  19  21
ATOM     21  C   UNL     1       0.234  10.128  21.704  0.00  0.00    +0.000 A 
ATOM     22  C   UNL     1      -0.450  10.208  22.923  0.00  0.00    +0.000 A 
ATOM     23  C   UNL     1      -1.476  11.147  23.084  0.00  0.00    +0.000 A 
ATOM     24  C   UNL     1      -1.810  12.004  22.023  0.00  0.00    +0.000 A 
ATOM     25  C   UNL     1      -1.075  11.977  20.832  0.00  0.00    +0.000 A 
ATOM     26  C   UNL     1      -0.046  11.045  20.679  0.00  0.00    +0.000 A 
BRANCH  24  27
ATOM     27  N   UNL     1      -2.968  12.901  22.146  0.00  0.00    +0.000 N 
ATOM     28  O   UNL     1      -4.053  12.499  21.705  0.00  0.00    +0.000 OA
ATOM     29  O   UNL     1      -2.781  14.013  22.657  0.00  0.00    +0.000 OA
ENDBRANCH  24  27
ENDBRANCH  19  21
ENDBRANCH  18  19
ENDBRANCH   3  18
TORSDOF 5
ENDMDL
MODEL 5
REMARK VINA RESULT:      -7.3      6.035      9.147
REMARK  Name = 
REMARK  6 active torsions:
REMARK  status: ('A' for Active; 'I' for Inactive)
REMARK    1  A    between atoms: C_1  and  C_2
REMARK    2  A    between atoms: C_2  and  N_3
REMARK    3  A    between atoms: N_5  and  C_6
REMARK    4  A    between atoms: C_6  and  C_7
REMARK    5  A    between atoms: C_7  and  C_9
REMARK    6  A    between atoms: C_12  and  N_13
REMARK                            x       y       z     vdW  Elec       q    Type
REMARK                         _______ _______ _______ _____ _____    ______ ____
ROOT
ATOM      1  N   UNL     1      -3.286  11.293  17.217  0.00  0.00    +0.000 N 
ATOM      2  C   UNL     1      -1.975  11.307  17.482  0.00  0.00    +0.000 A 
ATOM      3  N   UNL     1      -1.819  11.764  18.739  0.00  0.00    +0.000 N 
ATOM      4  C   UNL     1      -3.089  12.034  19.294  0.00  0.00    +0.000 A 
ATOM      5  C   UNL     1      -4.014  11.657  18.351  0.00  0.00    +0.000 A 
ATOM      6  C   UNL     1      -5.433  11.722  18.528  0.00  0.00    +0.000 C 
ATOM      7  O   UNL     1      -6.313  11.423  17.735  0.00  0.00    +0.000 OA
ATOM      8  C   UNL     1      -5.847  12.230  19.863  0.00  0.00    +0.000 A 
ATOM      9  C   UNL     1      -7.221  12.287  20.148  0.00  0.00    +0.000 A 
ATOM     10  C   UNL     1      -7.663  12.768  21.379  0.00  0.00    +0.000 A 
ATOM     11  C   UNL     1      -6.741  13.186  22.334  0.00  0.00    +0.000 A 
ATOM     12  C   UNL     1      -5.370  13.132  22.060  0.00  0.00    +0.000 A 
ATOM     13  C   UNL     1      -4.913  12.653  20.823  0.00  0.00    +0.000 A 
ATOM     14  C   UNL     1      -3.435  12.608  20.563  0.00  0.00    +0.000 C 
ATOM     15  O   UNL     1      -2.666  13.058  21.409  0.00  0.00    +0.000 OA
ENDROOT
BRANCH   1  17
ATOM     16  C   UNL     1      -3.032   9.932  15.210  0.00  0.00    +0.000 C 
ATOM     17  C   UNL     1      -3.864  11.002  15.895  0.00  0.00    +0.000 C 
ENDBRANCH   1  17
BRANCH   3  18
ATOM     18  C   UNL     1      -0.500  11.954  19.384  0.00  0.00    +0.000 C 
BRANCH  18  19
ATOM     19  C   UNL     1      -0.149  10.782  20.299  0.00  0.00    +0.000 C 
ATOM     20  O   UNL     1      -0.556  10.711  21.458  0.00  0.00    +0.000 OA
BRANCH  19  21
ATOM     21  C   UNL     1       0.667   9.670  19.746  0.00  0.00    +0.000 A 
ATOM     22  C   UNL     1       1.078   8.586  20.531  0.00  0.00    +0.000 A 
ATOM     23  C   UNL     1       1.963   7.639  20.001  0.00  0.00    +0.000 A 
ATOM     24  C   UNL     1       2.430   7.782  18.684  0.00  0.00    +0.000 A 
ATOM     25  C   UNL     1       1.959   8.822  17.874  0.00  0.00    +0.000 A 
ATOM     26  C   UNL     1       1.070   9.759  18.405  0.00  0.00    +0.000 A 
BRANCH  24  27
ATOM     27  N   UNL     1       3.455   6.863  18.170  0.00  0.00    +0.000 N 
ATOM     28  O   UNL     1       3.724   5.865  18.853  0.00  0.00    +0.000 OA
ATOM     29  O   UNL     1       4.003   7.157  17.099  0.00  0.00    +0.000 OA
ENDBRANCH  24  27
ENDBRANCH  19  21
ENDBRANCH  18  19
ENDBRANCH   3  18
TORSDOF 5
ENDMDL
MODEL 6
REMARK VINA RESULT:      -7.3      4.502      7.379
REMARK  Name = 
REMARK  6 active torsions:
REMARK  status: ('A' for Active; 'I' for Inactive)
REMARK    1  A    between atoms: C_1  and  C_2
REMARK    2  A    between atoms: C_2  and  N_3
REMARK    3  A    between atoms: N_5  and  C_6
REMARK    4  A    between atoms: C_6  and  C_7
REMARK    5  A    between atoms: C_7  and  C_9
REMARK    6  A    between atoms: C_12  and  N_13
REMARK                            x       y       z     vdW  Elec       q    Type
REMARK                         _______ _______ _______ _____ _____    ______ ____
ROOT
ATOM      1  N   UNL     1      -1.635  10.720  17.931  0.00  0.00    +0.000 N 
ATOM      2  C   UNL     1      -0.564   9.918  17.956  0.00  0.00    +0.000 A 
ATOM      3  N   UNL     1      -0.008  10.019  19.178  0.00  0.00    +0.000 N 
ATOM      4  C   UNL     1      -0.771  10.912  19.961  0.00  0.00    +0.000 A 
ATOM      5  C   UNL     1      -1.844  11.288  19.190  0.00  0.00    +0.000 A 
ATOM      6  C   UNL     1      -2.896  12.157  19.622  0.00  0.00    +0.000 C 
ATOM      7  O   UNL     1      -3.867  12.548  18.992  0.00  0.00    +0.000 OA
ATOM      8  C   UNL     1      -2.746  12.626  21.025  0.00  0.00    +0.000 A 
ATOM      9  C   UNL     1      -3.754  13.449  21.555  0.00  0.00    +0.000 A 
ATOM     10  C   UNL     1      -3.656  13.927  22.861  0.00  0.00    +0.000 A 
ATOM     11  C   UNL     1      -2.558  13.584  23.645  0.00  0.00    +0.000 A 
ATOM     12  C   UNL     1      -1.549  12.765  23.127  0.00  0.00    +0.000 A 
ATOM     13  C   UNL     1      -1.637  12.280  21.813  0.00  0.00    +0.000 A 
ATOM     14  C   UNL     1      -0.536  11.403  21.289  0.00  0.00    +0.000 C 
ATOM     15  O   UNL     1       0.446  11.191  21.996  0.00  0.00    +0.000 OA
ENDROOT
BRANCH   1  17
ATOM     16  C   UNL     1      -3.375   9.849  16.462  0.00  0.00    +0.000 C 
ATOM     17  C   UNL     1      -2.430  11.009  16.728  0.00  0.00    +0.000 C 
ENDBRANCH   1  17
BRANCH   3  18
ATOM     18  C   UNL     1       1.223   9.301  19.579  0.00  0.00    +0.000 C 
BRANCH  18  19
ATOM     19  C   UNL     1       2.001   8.802  18.364  0.00  0.00    +0.000 C 
ATOM     20  O   UNL     1       2.063   9.444  17.315  0.00  0.00    +0.000 OA
BRANCH  19  21
ATOM     21  C   UNL     1       2.750   7.524  18.478  0.00  0.00    +0.000 A 
ATOM     22  C   UNL     1       2.517   6.614  19.517  0.00  0.00    +0.000 A 
ATOM     23  C   UNL     1       3.346   5.495  19.660  0.00  0.00    +0.000 A 
ATOM     24  C   UNL     1       4.404   5.291  18.759  0.00  0.00    +0.000 A 
ATOM     25  C   UNL     1       4.590   6.157  17.676  0.00  0.00    +0.000 A 
ATOM     26  C   UNL     1       3.754   7.268  17.532  0.00  0.00    +0.000 A 
BRANCH  24  27
ATOM     27  N   UNL     1       5.351   4.189  18.983  0.00  0.00    +0.000 N 
ATOM     28  O   UNL     1       4.925   3.175  19.553  0.00  0.00    +0.000 OA
ATOM     29  O   UNL     1       6.520   4.353  18.612  0.00  0.00    +0.000 OA
ENDBRANCH  24  27
ENDBRANCH  19  21
ENDBRANCH  18  19
ENDBRANCH   3  18
TORSDOF 5
ENDMDL
MODEL 7
REMARK VINA RESULT:      -7.3      4.758      8.043
REMARK  Name = 
REMARK  6 active torsions:
REMARK  status: ('A' for Active; 'I' for Inactive)
REMARK    1  A    between atoms: C_1  and  C_2
REMARK    2  A    between atoms: C_2  and  N_3
REMARK    3  A    between atoms: N_5  and  C_6
REMARK    4  A    between atoms: C_6  and  C_7
REMARK    5  A    between atoms: C_7  and  C_9
REMARK    6  A    between atoms: C_12  and  N_13
REMARK                            x       y       z     vdW  Elec       q    Type
REMARK                         _______ _______ _______ _____ _____    ______ ____
ROOT
ATOM      1  N   UNL     1      -1.563  10.928  18.082  0.00  0.00    +0.000 N 
ATOM      2  C   UNL     1      -0.373  10.330  18.208  0.00  0.00    +0.000 A 
ATOM      3  N   UNL     1       0.047  10.520  19.473  0.00  0.00    +0.000 N 
ATOM      4  C   UNL     1      -0.929  11.257  20.178  0.00  0.00    +0.000 A 
ATOM      5  C   UNL     1      -1.979  11.441  19.312  0.00  0.00    +0.000 A 
ATOM      6  C   UNL     1      -3.204  12.106  19.642  0.00  0.00    +0.000 C 
ATOM      7  O   UNL     1      -4.169  12.322  18.926  0.00  0.00    +0.000 OA
ATOM      8  C   UNL     1      -3.263  12.585  21.049  0.00  0.00    +0.000 A 
ATOM      9  C   UNL     1      -4.444  13.211  21.481  0.00  0.00    +0.000 A 
ATOM     10  C   UNL     1      -4.548  13.690  22.786  0.00  0.00    +0.000 A 
ATOM     11  C   UNL     1      -3.480  13.542  23.667  0.00  0.00    +0.000 A 
ATOM     12  C   UNL     1      -2.300  12.920  23.247  0.00  0.00    +0.000 A 
ATOM     13  C   UNL     1      -2.184  12.436  21.934  0.00  0.00    +0.000 A 
ATOM     14  C   UNL     1      -0.903  11.772  21.517  0.00  0.00    +0.000 C 
ATOM     15  O   UNL     1       0.035  11.734  22.309  0.00  0.00    +0.000 OA
ENDROOT
BRANCH   1  17
ATOM     16  C   UNL     1      -3.068   9.807  16.525  0.00  0.00    +0.000 C 
ATOM     17  C   UNL     1      -2.288  11.079  16.811  0.00  0.00    +0.000 C 
ENDBRANCH   1  17
BRANCH   3  18
ATOM     18  C   UNL     1       1.346  10.030  19.986  0.00  0.00    +0.000 C 
BRANCH  18  19
ATOM     19  C   UNL     1       1.214   8.643  20.610  0.00  0.00    +0.000 C 
ATOM     20  O   UNL     1       0.584   8.448  21.650  0.00  0.00    +0.000 OA
BRANCH  19  21
ATOM     21  C   UNL     1       1.825   7.487  19.904  0.00  0.00    +0.000 A 
ATOM     22  C   UNL     1       2.436   7.618  18.650  0.00  0.00    +0.000 A 
ATOM     23  C   UNL     1       2.868   6.477  17.964  0.00  0.00    +0.000 A 
ATOM     24  C   UNL     1       2.690   5.208  18.539  0.00  0.00    +0.000 A 
ATOM     25  C   UNL     1       2.150   5.082  19.825  0.00  0.00    +0.000 A 
ATOM     26  C   UNL     1       1.728   6.225  20.509  0.00  0.00    +0.000 A 
BRANCH  24  27
ATOM     27  N   UNL     1       3.026   4.003  17.768  0.00  0.00    +0.000 N 
ATOM     28  O   UNL     1       2.107   3.439  17.158  0.00  0.00    +0.000 OA
ATOM     29  O   UNL     1       4.200   3.611  17.798  0.00  0.00    +0.000 OA
ENDBRANCH  24  27
ENDBRANCH  19  21
ENDBRANCH  18  19
ENDBRANCH   3  18
TORSDOF 5
ENDMDL
MODEL 8
REMARK VINA RESULT:      -7.2      4.539      7.712
REMARK  Name = 
REMARK  6 active torsions:
REMARK  status: ('A' for Active; 'I' for Inactive)
REMARK    1  A    between atoms: C_1  and  C_2
REMARK    2  A    between atoms: C_2  and  N_3
REMARK    3  A    between atoms: N_5  and  C_6
REMARK    4  A    between atoms: C_6  and  C_7
REMARK    5  A    between atoms: C_7  and  C_9
REMARK    6  A    between atoms: C_12  and  N_13
REMARK                            x       y       z     vdW  Elec       q    Type
REMARK                         _______ _______ _______ _____ _____    ______ ____
ROOT
ATOM      1  N   UNL     1      -1.733  10.727  17.930  0.00  0.00    +0.000 N 
ATOM      2  C   UNL     1      -0.593  10.031  17.863  0.00  0.00    +0.000 A 
ATOM      3  N   UNL     1       0.076  10.232  19.013  0.00  0.00    +0.000 N 
ATOM      4  C   UNL     1      -0.685  11.080  19.848  0.00  0.00    +0.000 A 
ATOM      5  C   UNL     1      -1.863  11.323  19.186  0.00  0.00    +0.000 A 
ATOM      6  C   UNL     1      -2.945  12.106  19.704  0.00  0.00    +0.000 C 
ATOM      7  O   UNL     1      -4.010  12.378  19.171  0.00  0.00    +0.000 OA
ATOM      8  C   UNL     1      -2.694  12.643  21.068  0.00  0.00    +0.000 A 
ATOM      9  C   UNL     1      -3.717  13.387  21.679  0.00  0.00    +0.000 A 
ATOM     10  C   UNL     1      -3.529  13.925  22.951  0.00  0.00    +0.000 A 
ATOM     11  C   UNL     1      -2.327  13.718  23.622  0.00  0.00    +0.000 A 
ATOM     12  C   UNL     1      -1.303  12.977  23.023  0.00  0.00    +0.000 A 
ATOM     13  C   UNL     1      -1.480  12.434  21.741  0.00  0.00    +0.000 A 
ATOM     14  C   UNL     1      -0.360  11.643  21.127  0.00  0.00    +0.000 C 
ATOM     15  O   UNL     1       0.706  11.553  21.730  0.00  0.00    +0.000 OA
ENDROOT
BRANCH   1  17
ATOM     16  C   UNL     1      -2.667   9.633  15.961  0.00  0.00    +0.000 C 
ATOM     17  C   UNL     1      -2.675  10.892  16.812  0.00  0.00    +0.000 C 
ENDBRANCH   1  17
BRANCH   3  18
ATOM     18  C   UNL     1       1.406   9.650  19.300  0.00  0.00    +0.000 C 
BRANCH  18  19
ATOM     19  C   UNL     1       1.296   8.411  20.187  0.00  0.00    +0.000 C 
ATOM     20  O   UNL     1       0.650   8.409  21.234  0.00  0.00    +0.000 OA
BRANCH  19  21
ATOM     21  C   UNL     1       1.951   7.156  19.735  0.00  0.00    +0.000 A 
ATOM     22  C   UNL     1       1.837   5.957  20.450  0.00  0.00    +0.000 A 
ATOM     23  C   UNL     1       2.588   4.841  20.061  0.00  0.00    +0.000 A 
ATOM     24  C   UNL     1       3.447   4.930  18.955  0.00  0.00    +0.000 A 
ATOM     25  C   UNL     1       3.504   6.104  18.194  0.00  0.00    +0.000 A 
ATOM     26  C   UNL     1       2.746   7.212  18.581  0.00  0.00    +0.000 A 
BRANCH  24  27
ATOM     27  N   UNL     1       4.329   3.803  18.623  0.00  0.00    +0.000 N 
ATOM     28  O   UNL     1       3.993   3.071  17.682  0.00  0.00    +0.000 OA
ATOM     29  O   UNL     1       5.339   3.638  19.321  0.00  0.00    +0.000 OA
ENDBRANCH  24  27
ENDBRANCH  19  21
ENDBRANCH  18  19
ENDBRANCH   3  18
TORSDOF 5
ENDMDL
MODEL 9
REMARK VINA RESULT:      -7.2      4.748      7.504
REMARK  Name = 
REMARK  6 active torsions:
REMARK  status: ('A' for Active; 'I' for Inactive)
REMARK    1  A    between atoms: C_1  and  C_2
REMARK    2  A    between atoms: C_2  and  N_3
REMARK    3  A    between atoms: N_5  and  C_6
REMARK    4  A    between atoms: C_6  and  C_7
REMARK    5  A    between atoms: C_7  and  C_9
REMARK    6  A    between atoms: C_12  and  N_13
REMARK                            x       y       z     vdW  Elec       q    Type
REMARK                         _______ _______ _______ _____ _____    ______ ____
ROOT
ATOM      1  N   UNL     1      -0.508  11.228  20.619  0.00  0.00    +0.000 N 
ATOM      2  C   UNL     1       0.346  10.465  19.927  0.00  0.00    +0.000 A 
ATOM      3  N   UNL     1      -0.266  10.104  18.783  0.00  0.00    +0.000 N 
ATOM      4  C   UNL     1      -1.555  10.678  18.748  0.00  0.00    +0.000 A 
ATOM      5  C   UNL     1      -1.669  11.452  19.876  0.00  0.00    +0.000 A 
ATOM      6  C   UNL     1      -2.810  12.250  20.209  0.00  0.00    +0.000 C 
ATOM      7  O   UNL     1      -2.990  12.947  21.196  0.00  0.00    +0.000 OA
ATOM      8  C   UNL     1      -3.898  12.188  19.196  0.00  0.00    +0.000 A 
ATOM      9  C   UNL     1      -5.042  12.974  19.412  0.00  0.00    +0.000 A 
ATOM     10  C   UNL     1      -6.096  12.944  18.500  0.00  0.00    +0.000 A 
ATOM     11  C   UNL     1      -6.013  12.138  17.368  0.00  0.00    +0.000 A 
ATOM     12  C   UNL     1      -4.877  11.352  17.144  0.00  0.00    +0.000 A 
ATOM     13  C   UNL     1      -3.811  11.373  18.056  0.00  0.00    +0.000 A 
ATOM     14  C   UNL     1      -2.607  10.519  17.784  0.00  0.00    +0.000 C 
ATOM     15  O   UNL     1      -2.614   9.769  16.810  0.00  0.00    +0.000 OA
ENDROOT
BRANCH   1  17
ATOM     16  C   UNL     1      -0.855  10.693  22.972  0.00  0.00    +0.000 C 
ATOM     17  C   UNL     1      -0.276  11.700  21.993  0.00  0.00    +0.000 C 
ENDBRANCH   1  17
BRANCH   3  18
ATOM     18  C   UNL     1       0.353   9.225  17.766  0.00  0.00    +0.000 C 
BRANCH  18  19
ATOM     19  C   UNL     1       1.878   9.264  17.845  0.00  0.00    +0.000 C 
ATOM     20  O   UNL     1       2.521  10.285  17.599  0.00  0.00    +0.000 OA
BRANCH  19  21
ATOM     21  C   UNL     1       2.597   8.041  18.284  0.00  0.00    +0.000 A 
ATOM     22  C   UNL     1       3.636   7.477  17.532  0.00  0.00    +0.000 A 
ATOM     23  C   UNL     1       4.183   6.246  17.916  0.00  0.00    +0.000 A 
ATOM     24  C   UNL     1       3.689   5.588  19.054  0.00  0.00    +0.000 A 
ATOM     25  C   UNL     1       2.705   6.188  19.849  0.00  0.00    +0.000 A 
ATOM     26  C   UNL     1       2.168   7.419  19.466  0.00  0.00    +0.000 A 
BRANCH  24  27
ATOM     27  N   UNL     1       4.174   4.241  19.386  0.00  0.00    +0.000 N 
ATOM     28  O   UNL     1       3.362   3.447  19.882  0.00  0.00    +0.000 OA
ATOM     29  O   UNL     1       5.368   3.992  19.174  0.00  0.00    +0.000 OA
ENDBRANCH  24  27
ENDBRANCH  19  21
ENDBRANCH  18  19
ENDBRANCH   3  18
TORSDOF 5
ENDMDL
