MODEL 1
REMARK VINA RESULT:      -6.0      0.000      0.000
REMARK  Name = 
REMARK  5 active torsions:
REMARK  status: ('A' for Active; 'I' for Inactive)
REMARK    1  A    between atoms: C_1  and  O_2
REMARK    2  A    between atoms: O_2  and  C_3
REMARK    3  A    between atoms: C_3  and  C_5
REMARK    4  A    between atoms: C_8  and  C_9
REMARK    5  A    between atoms: N_10  and  N_11
REMARK                            x       y       z     vdW  Elec       q    Type
REMARK                         _______ _______ _______ _____ _____    ______ ____
ROOT
ATOM      1  C   UNL     1       3.436   5.013  18.385  0.00  0.00    +0.000 A 
ATOM      2  C   UNL     1       3.435   6.250  17.726  0.00  0.00    +0.000 A 
ATOM      3  C   UNL     1       2.822   7.363  18.310  0.00  0.00    +0.000 A 
ATOM      4  C   UNL     1       2.207   7.245  19.557  0.00  0.00    +0.000 A 
ATOM      5  C   UNL     1       2.200   6.016  20.226  0.00  0.00    +0.000 A 
ATOM      6  C   UNL     1       2.813   4.901  19.638  0.00  0.00    +0.000 A 
ENDROOT
BRANCH   1   7
ATOM      7  C   UNL     1       4.118   3.870  17.719  0.00  0.00    +0.000 C 
ATOM      8  O   UNL     1       4.532   3.913  16.570  0.00  0.00    +0.000 OA
BRANCH   7  10
ATOM      9  C   UNL     1       3.412   1.691  18.164  0.00  0.00    +0.000 C 
ATOM     10  O   UNL     1       4.214   2.807  18.556  0.00  0.00    +0.000 OA
ENDBRANCH   7  10
ENDBRANCH   1   7
BRANCH   4  11
ATOM     11  C   UNL     1       1.572   8.423  20.194  0.00  0.00    +0.000 C 
ATOM     12  N   UNL     1       1.309   8.430  21.460  0.00  0.00    +0.000 NA
BRANCH  12  13
ATOM     13  N   UNL     1       0.657   9.523  21.948  0.00  0.00    +0.000 N 
ATOM     14  C   UNL     1       0.435  10.766  21.412  0.00  0.00    +0.000 A 
ATOM     15  N   UNL     1      -0.271  11.505  22.239  0.00  0.00    +0.000 NA
ATOM     16  N   UNL     1      -0.563  10.731  23.336  0.00  0.00    +0.000 NA
ATOM     17  C   UNL     1      -0.026   9.549  23.137  0.00  0.00    +0.000 A 
ENDBRANCH  12  13
ENDBRANCH   4  11
TORSDOF 4
ENDMDL
MODEL 2
REMARK VINA RESULT:      -6.0      2.337      3.483
REMARK  Name = 
REMARK  5 active torsions:
REMARK  status: ('A' for Active; 'I' for Inactive)
REMARK    1  A    between atoms: C_1  and  O_2
REMARK    2  A    between atoms: O_2  and  C_3
REMARK    3  A    between atoms: C_3  and  C_5
REMARK    4  A    between atoms: C_8  and  C_9
REMARK    5  A    between atoms: N_10  and  N_11
REMARK                            x       y       z     vdW  Elec       q    Type
REMARK                         _______ _______ _______ _____ _____    ______ ____
ROOT
ATOM      1  C   UNL     1       5.509   5.181  16.097  0.00  0.00    +0.000 A 
ATOM      2  C   UNL     1       4.622   4.324  16.763  0.00  0.00    +0.000 A 
ATOM      3  C   UNL     1       3.665   4.840  17.642  0.00  0.00    +0.000 A 
ATOM      4  C   UNL     1       3.590   6.216  17.861  0.00  0.00    +0.000 A 
ATOM      5  C   UNL     1       4.470   7.083  17.204  0.00  0.00    +0.000 A 
ATOM      6  C   UNL     1       5.429   6.563  16.324  0.00  0.00    +0.000 A 
ENDROOT
BRANCH   1   7
ATOM      7  C   UNL     1       6.494   4.572  15.161  0.00  0.00    +0.000 C 
ATOM      8  O   UNL     1       7.654   4.945  15.073  0.00  0.00    +0.000 OA
BRANCH   7  10
ATOM      9  C   UNL     1       6.138   3.672  13.039  0.00  0.00    +0.000 C 
ATOM     10  O   UNL     1       5.928   3.567  14.448  0.00  0.00    +0.000 OA
ENDBRANCH   7  10
ENDBRANCH   1   7
BRANCH   4  11
ATOM     11  C   UNL     1       2.567   6.776  18.776  0.00  0.00    +0.000 C 
ATOM     12  N   UNL     1       2.380   8.052  18.861  0.00  0.00    +0.000 NA
BRANCH  12  13
ATOM     13  N   UNL     1       1.472   8.483  19.782  0.00  0.00    +0.000 N 
ATOM     14  C   UNL     1       1.194   8.057  21.056  0.00  0.00    +0.000 A 
ATOM     15  N   UNL     1       0.241   8.790  21.588  0.00  0.00    +0.000 NA
ATOM     16  N   UNL     1      -0.102   9.751  20.669  0.00  0.00    +0.000 NA
ATOM     17  C   UNL     1       0.655   9.570  19.610  0.00  0.00    +0.000 A 
ENDBRANCH  12  13
ENDBRANCH   4  11
TORSDOF 4
ENDMDL
MODEL 3
REMARK VINA RESULT:      -5.9      2.348      3.342
REMARK  Name = 
REMARK  5 active torsions:
REMARK  status: ('A' for Active; 'I' for Inactive)
REMARK    1  A    between atoms: C_1  and  O_2
REMARK    2  A    between atoms: O_2  and  C_3
REMARK    3  A    between atoms: C_3  and  C_5
REMARK    4  A    between atoms: C_8  and  C_9
REMARK    5  A    between atoms: N_10  and  N_11
REMARK                            x       y       z     vdW  Elec       q    Type
REMARK                         _______ _______ _______ _____ _____    ______ ____
ROOT
ATOM      1  C   UNL     1       5.277   5.145  15.951  0.00  0.00    +0.000 A 
ATOM      2  C   UNL     1       5.322   6.518  16.232  0.00  0.00    +0.000 A 
ATOM      3  C   UNL     1       4.485   7.069  17.206  0.00  0.00    +0.000 A 
ATOM      4  C   UNL     1       3.596   6.250  17.906  0.00  0.00    +0.000 A 
ATOM      5  C   UNL     1       3.541   4.878  17.635  0.00  0.00    +0.000 A 
ATOM      6  C   UNL     1       4.381   4.328  16.656  0.00  0.00    +0.000 A 
ENDROOT
BRANCH   1   7
ATOM      7  C   UNL     1       6.205   4.617  14.914  0.00  0.00    +0.000 C 
ATOM      8  O   UNL     1       7.414   4.794  14.941  0.00  0.00    +0.000 OA
BRANCH   7  10
ATOM      9  C   UNL     1       6.321   3.579  12.827  0.00  0.00    +0.000 C 
ATOM     10  O   UNL     1       5.527   3.925  13.964  0.00  0.00    +0.000 OA
ENDBRANCH   7  10
ENDBRANCH   1   7
BRANCH   4  11
ATOM     11  C   UNL     1       2.718   6.820  18.955  0.00  0.00    +0.000 C 
ATOM     12  N   UNL     1       2.186   7.989  18.810  0.00  0.00    +0.000 NA
BRANCH  12  13
ATOM     13  N   UNL     1       1.453   8.467  19.855  0.00  0.00    +0.000 N 
ATOM     14  C   UNL     1       1.150   7.925  21.078  0.00  0.00    +0.000 A 
ATOM     15  N   UNL     1       0.425   8.763  21.786  0.00  0.00    +0.000 NA
ATOM     16  N   UNL     1       0.270   9.906  21.040  0.00  0.00    +0.000 NA
ATOM     17  C   UNL     1       0.907   9.724  19.905  0.00  0.00    +0.000 A 
ENDBRANCH  12  13
ENDBRANCH   4  11
TORSDOF 4
ENDMDL
MODEL 4
REMARK VINA RESULT:      -5.9      4.983      7.636
REMARK  Name = 
REMARK  5 active torsions:
REMARK  status: ('A' for Active; 'I' for Inactive)
REMARK    1  A    between atoms: C_1  and  O_2
REMARK    2  A    between atoms: O_2  and  C_3
REMARK    3  A    between atoms: C_3  and  C_5
REMARK    4  A    between atoms: C_8  and  C_9
REMARK    5  A    between atoms: N_10  and  N_11
REMARK                            x       y       z     vdW  Elec       q    Type
REMARK                         _______ _______ _______ _____ _____    ______ ____
ROOT
ATOM      1  C   UNL     1       1.006   8.940  19.867  0.00  0.00    +0.000 A 
ATOM      2  C   UNL     1       1.675   7.778  20.275  0.00  0.00    +0.000 A 
ATOM      3  C   UNL     1       2.610   7.166  19.435  0.00  0.00    +0.000 A 
ATOM      4  C   UNL     1       2.882   7.714  18.180  0.00  0.00    +0.000 A 
ATOM      5  C   UNL     1       2.221   8.874  17.759  0.00  0.00    +0.000 A 
ATOM      6  C   UNL     1       1.282   9.483  18.603  0.00  0.00    +0.000 A 
ENDROOT
BRANCH   1   7
ATOM      7  C   UNL     1       0.033   9.551  20.814  0.00  0.00    +0.000 C 
ATOM      8  O   UNL     1      -0.580  10.580  20.574  0.00  0.00    +0.000 OA
BRANCH   7  10
ATOM      9  C   UNL     1      -0.199   9.597  23.135  0.00  0.00    +0.000 C 
ATOM     10  O   UNL     1      -0.070   8.813  21.947  0.00  0.00    +0.000 OA
ENDBRANCH   7  10
ENDBRANCH   1   7
BRANCH   4  11
ATOM     11  C   UNL     1       3.886   7.086  17.289  0.00  0.00    +0.000 C 
ATOM     12  N   UNL     1       4.736   6.228  17.750  0.00  0.00    +0.000 NA
BRANCH  12  13
ATOM     13  N   UNL     1       5.671   5.756  16.877  0.00  0.00    +0.000 N 
ATOM     14  C   UNL     1       6.873   5.128  17.082  0.00  0.00    +0.000 A 
ATOM     15  N   UNL     1       7.436   4.827  15.932  0.00  0.00    +0.000 NA
ATOM     16  N   UNL     1       6.579   5.226  14.936  0.00  0.00    +0.000 NA
ATOM     17  C   UNL     1       5.524   5.754  15.514  0.00  0.00    +0.000 A 
ENDBRANCH  12  13
ENDBRANCH   4  11
TORSDOF 4
ENDMDL
MODEL 5
REMARK VINA RESULT:      -5.9      5.079      6.402
REMARK  Name = 
REMARK  5 active torsions:
REMARK  status: ('A' for Active; 'I' for Inactive)
REMARK    1  A    between atoms: C_1  and  O_2
REMARK    2  A    between atoms: O_2  and  C_3
REMARK    3  A    between atoms: C_3  and  C_5
REMARK    4  A    between atoms: C_8  and  C_9
REMARK    5  A    between atoms: N_10  and  N_11
REMARK                            x       y       z     vdW  Elec       q    Type
REMARK                         _______ _______ _______ _____ _____    ______ ____
ROOT
ATOM      1  C   UNL     1       6.659   4.807  14.900  0.00  0.00    +0.000 A 
ATOM      2  C   UNL     1       5.280   4.554  14.906  0.00  0.00    +0.000 A 
ATOM      3  C   UNL     1       4.608   4.317  16.109  0.00  0.00    +0.000 A 
ATOM      4  C   UNL     1       5.312   4.332  17.314  0.00  0.00    +0.000 A 
ATOM      5  C   UNL     1       6.689   4.582  17.324  0.00  0.00    +0.000 A 
ATOM      6  C   UNL     1       7.360   4.818  16.116  0.00  0.00    +0.000 A 
ENDROOT
BRANCH   1   7
ATOM      7  C   UNL     1       7.313   5.067  13.589  0.00  0.00    +0.000 C 
ATOM      8  O   UNL     1       8.353   5.697  13.471  0.00  0.00    +0.000 OA
BRANCH   7  10
ATOM      9  C   UNL     1       7.212   3.339  12.024  0.00  0.00    +0.000 C 
ATOM     10  O   UNL     1       6.605   4.509  12.574  0.00  0.00    +0.000 OA
ENDBRANCH   7  10
ENDBRANCH   1   7
BRANCH   4  11
ATOM     11  C   UNL     1       4.606   4.102  18.597  0.00  0.00    +0.000 C 
ATOM     12  N   UNL     1       3.787   3.112  18.734  0.00  0.00    +0.000 NA
BRANCH  12  13
ATOM     13  N   UNL     1       3.125   3.019  19.923  0.00  0.00    +0.000 N 
ATOM     14  C   UNL     1       3.455   2.404  21.104  0.00  0.00    +0.000 A 
ATOM     15  N   UNL     1       2.513   2.597  22.001  0.00  0.00    +0.000 NA
ATOM     16  N   UNL     1       1.550   3.389  21.425  0.00  0.00    +0.000 NA
ATOM     17  C   UNL     1       1.940   3.652  20.198  0.00  0.00    +0.000 A 
ENDBRANCH  12  13
ENDBRANCH   4  11
TORSDOF 4
ENDMDL
MODEL 6
REMARK VINA RESULT:      -5.9      1.194      1.723
REMARK  Name = 
REMARK  5 active torsions:
REMARK  status: ('A' for Active; 'I' for Inactive)
REMARK    1  A    between atoms: C_1  and  O_2
REMARK    2  A    between atoms: O_2  and  C_3
REMARK    3  A    between atoms: C_3  and  C_5
REMARK    4  A    between atoms: C_8  and  C_9
REMARK    5  A    between atoms: N_10  and  N_11
REMARK                            x       y       z     vdW  Elec       q    Type
REMARK                         _______ _______ _______ _____ _____    ______ ____
ROOT
ATOM      1  C   UNL     1       2.256   4.340  18.929  0.00  0.00    +0.000 A 
ATOM      2  C   UNL     1       1.540   4.365  20.133  0.00  0.00    +0.000 A 
ATOM      3  C   UNL     1       1.287   5.578  20.782  0.00  0.00    +0.000 A 
ATOM      4  C   UNL     1       1.750   6.773  20.229  0.00  0.00    +0.000 A 
ATOM      5  C   UNL     1       2.467   6.762  19.027  0.00  0.00    +0.000 A 
ATOM      6  C   UNL     1       2.721   5.544  18.380  0.00  0.00    +0.000 A 
ENDROOT
BRANCH   1   7
ATOM      7  C   UNL     1       2.479   3.019  18.280  0.00  0.00    +0.000 C 
ATOM      8  O   UNL     1       2.312   2.821  17.086  0.00  0.00    +0.000 OA
BRANCH   7  10
ATOM      9  C   UNL     1       4.270   2.208  19.536  0.00  0.00    +0.000 C 
ATOM     10  O   UNL     1       2.889   2.096  19.186  0.00  0.00    +0.000 OA
ENDBRANCH   7  10
ENDBRANCH   1   7
BRANCH   4  11
ATOM     11  C   UNL     1       1.470   8.066  20.897  0.00  0.00    +0.000 C 
ATOM     12  N   UNL     1       0.257   8.428  21.158  0.00  0.00    +0.000 NA
BRANCH  12  13
ATOM     13  N   UNL     1       0.087   9.665  21.706  0.00  0.00    +0.000 N 
ATOM     14  C   UNL     1       0.325  10.921  21.210  0.00  0.00    +0.000 A 
ATOM     15  N   UNL     1      -0.013  11.836  22.093  0.00  0.00    +0.000 NA
ATOM     16  N   UNL     1      -0.523  11.183  23.188  0.00  0.00    +0.000 NA
ATOM     17  C   UNL     1      -0.480   9.895  22.933  0.00  0.00    +0.000 A 
ENDBRANCH  12  13
ENDBRANCH   4  11
TORSDOF 4
ENDMDL
MODEL 7
REMARK VINA RESULT:      -5.8      2.544      3.577
REMARK  Name = 
REMARK  5 active torsions:
REMARK  status: ('A' for Active; 'I' for Inactive)
REMARK    1  A    between atoms: C_1  and  O_2
REMARK    2  A    between atoms: O_2  and  C_3
REMARK    3  A    between atoms: C_3  and  C_5
REMARK    4  A    between atoms: C_8  and  C_9
REMARK    5  A    between atoms: N_10  and  N_11
REMARK                            x       y       z     vdW  Elec       q    Type
REMARK                         _______ _______ _______ _____ _____    ______ ____
ROOT
ATOM      1  C   UNL     1       5.402   5.069  15.786  0.00  0.00    +0.000 A 
ATOM      2  C   UNL     1       5.340   6.462  15.932  0.00  0.00    +0.000 A 
ATOM      3  C   UNL     1       4.496   7.038  16.885  0.00  0.00    +0.000 A 
ATOM      4  C   UNL     1       3.707   6.223  17.700  0.00  0.00    +0.000 A 
ATOM      5  C   UNL     1       3.758   4.831  17.565  0.00  0.00    +0.000 A 
ATOM      6  C   UNL     1       4.605   4.257  16.606  0.00  0.00    +0.000 A 
ENDROOT
BRANCH   1   7
ATOM      7  C   UNL     1       6.332   4.517  14.763  0.00  0.00    +0.000 C 
ATOM      8  O   UNL     1       6.120   3.480  14.153  0.00  0.00    +0.000 OA
BRANCH   7  10
ATOM      9  C   UNL     1       7.927   5.350  13.278  0.00  0.00    +0.000 C 
ATOM     10  O   UNL     1       7.417   5.318  14.612  0.00  0.00    +0.000 OA
ENDBRANCH   7  10
ENDBRANCH   1   7
BRANCH   4  11
ATOM     11  C   UNL     1       2.823   6.822  18.728  0.00  0.00    +0.000 C 
ATOM     12  N   UNL     1       2.359   8.020  18.586  0.00  0.00    +0.000 NA
BRANCH  12  13
ATOM     13  N   UNL     1       1.616   8.519  19.614  0.00  0.00    +0.000 N 
ATOM     14  C   UNL     1       0.794   9.615  19.696  0.00  0.00    +0.000 A 
ATOM     15  N   UNL     1       0.257   9.698  20.894  0.00  0.00    +0.000 NA
ATOM     16  N   UNL     1       0.695   8.616  21.618  0.00  0.00    +0.000 NA
ATOM     17  C   UNL     1       1.482   7.912  20.836  0.00  0.00    +0.000 A 
ENDBRANCH  12  13
ENDBRANCH   4  11
TORSDOF 4
ENDMDL
MODEL 8
REMARK VINA RESULT:      -5.8      5.940      8.005
REMARK  Name = 
REMARK  5 active torsions:
REMARK  status: ('A' for Active; 'I' for Inactive)
REMARK    1  A    between atoms: C_1  and  O_2
REMARK    2  A    between atoms: O_2  and  C_3
REMARK    3  A    between atoms: C_3  and  C_5
REMARK    4  A    between atoms: C_8  and  C_9
REMARK    5  A    between atoms: N_10  and  N_11
REMARK                            x       y       z     vdW  Elec       q    Type
REMARK                         _______ _______ _______ _____ _____    ______ ____
ROOT
ATOM      1  C   UNL     1       2.516   4.823  19.278  0.00  0.00    +0.000 A 
ATOM      2  C   UNL     1       3.512   5.808  19.240  0.00  0.00    +0.000 A 
ATOM      3  C   UNL     1       4.365   5.911  18.137  0.00  0.00    +0.000 A 
ATOM      4  C   UNL     1       4.226   5.029  17.065  0.00  0.00    +0.000 A 
ATOM      5  C   UNL     1       3.236   4.040  17.089  0.00  0.00    +0.000 A 
ATOM      6  C   UNL     1       2.383   3.938  18.197  0.00  0.00    +0.000 A 
ENDROOT
BRANCH   1   7
ATOM      7  C   UNL     1       1.630   4.775  20.473  0.00  0.00    +0.000 C 
ATOM      8  O   UNL     1       1.407   5.744  21.183  0.00  0.00    +0.000 OA
BRANCH   7  10
ATOM      9  C   UNL     1       1.863   2.723  21.558  0.00  0.00    +0.000 C 
ATOM     10  O   UNL     1       1.117   3.531  20.647  0.00  0.00    +0.000 OA
ENDBRANCH   7  10
ENDBRANCH   1   7
BRANCH   4  11
ATOM     11  C   UNL     1       5.112   5.142  15.881  0.00  0.00    +0.000 C 
ATOM     12  N   UNL     1       5.320   4.125  15.110  0.00  0.00    +0.000 NA
BRANCH  12  13
ATOM     13  N   UNL     1       6.206   4.297  14.089  0.00  0.00    +0.000 N 
ATOM     14  C   UNL     1       6.289   3.720  12.847  0.00  0.00    +0.000 A 
ATOM     15  N   UNL     1       7.308   4.213  12.178  0.00  0.00    +0.000 NA
ATOM     16  N   UNL     1       7.899   5.167  12.970  0.00  0.00    +0.000 NA
ATOM     17  C   UNL     1       7.218   5.222  14.092  0.00  0.00    +0.000 A 
ENDBRANCH  12  13
ENDBRANCH   4  11
TORSDOF 4
ENDMDL
MODEL 9
REMARK VINA RESULT:      -5.8      5.072      7.611
REMARK  Name = 
REMARK  5 active torsions:
REMARK  status: ('A' for Active; 'I' for Inactive)
REMARK    1  A    between atoms: C_1  and  O_2
REMARK    2  A    between atoms: O_2  and  C_3
REMARK    3  A    between atoms: C_3  and  C_5
REMARK    4  A    between atoms: C_8  and  C_9
REMARK    5  A    between atoms: N_10  and  N_11
REMARK                            x       y       z     vdW  Elec       q    Type
REMARK                         _______ _______ _______ _____ _____    ______ ____
ROOT
ATOM      1  C   UNL     1       1.182   8.737  19.865  0.00  0.00    +0.000 A 
ATOM      2  C   UNL     1       1.639   9.123  18.597  0.00  0.00    +0.000 A 
ATOM      3  C   UNL     1       2.521   8.307  17.883  0.00  0.00    +0.000 A 
ATOM      4  C   UNL     1       2.952   7.099  18.434  0.00  0.00    +0.000 A 
ATOM      5  C   UNL     1       2.506   6.702  19.699  0.00  0.00    +0.000 A 
ATOM      6  C   UNL     1       1.622   7.523  20.413  0.00  0.00    +0.000 A 
ENDROOT
BRANCH   1   7
ATOM      7  C   UNL     1       0.232   9.643  20.567  0.00  0.00    +0.000 C 
ATOM      8  O   UNL     1       0.055  10.809  20.248  0.00  0.00    +0.000 OA
BRANCH   7  10
ATOM      9  C   UNL     1      -0.237   9.630  22.853  0.00  0.00    +0.000 C 
ATOM     10  O   UNL     1      -0.394   8.995  21.583  0.00  0.00    +0.000 OA
ENDBRANCH   7  10
ENDBRANCH   1   7
BRANCH   4  11
ATOM     11  C   UNL     1       3.872   6.216  17.677  0.00  0.00    +0.000 C 
ATOM     12  N   UNL     1       4.947   6.687  17.136  0.00  0.00    +0.000 NA
BRANCH  12  13
ATOM     13  N   UNL     1       5.696   5.821  16.396  0.00  0.00    +0.000 N 
ATOM     14  C   UNL     1       5.355   4.953  15.390  0.00  0.00    +0.000 A 
ATOM     15  N   UNL     1       6.422   4.325  14.945  0.00  0.00    +0.000 NA
ATOM     16  N   UNL     1       7.505   4.808  15.638  0.00  0.00    +0.000 NA
ATOM     17  C   UNL     1       7.060   5.714  16.479  0.00  0.00    +0.000 A 
ENDBRANCH  12  13
ENDBRANCH   4  11
TORSDOF 4
ENDMDL
