MODEL 1
REMARK VINA RESULT:      -8.2      0.000      0.000
REMARK  Name = 
REMARK  9 active torsions:
REMARK  status: ('A' for Active; 'I' for Inactive)
REMARK    1  A    between atoms: C_2  and  C_11
REMARK    2  A    between atoms: N_3  and  C_4
REMARK    3  A    between atoms: C_4  and  C_5
REMARK    4  A    between atoms: C_13  and  O_14
REMARK    5  A    between atoms: O_14  and  C_15
REMARK    6  A    between atoms: C_15  and  C_16
REMARK    7  A    between atoms: C_21  and  O_22
REMARK    8  A    between atoms: O_22  and  C_23
REMARK    9  A    between atoms: C_23  and  C_24
REMARK                            x       y       z     vdW  Elec       q    Type
REMARK                         _______ _______ _______ _____ _____    ______ ____
ROOT
ATOM      1  C   UNL     1       2.656   7.053  17.975  0.00  0.00    +0.000 A 
ATOM      2  C   UNL     1       1.826   6.000  18.321  0.00  0.00    +0.000 A 
ATOM      3  C   UNL     1       2.294   4.699  18.335  0.00  0.00    +0.000 A 
ATOM      4  C   UNL     1       3.623   4.435  17.941  0.00  0.00    +0.000 A 
ATOM      5  C   UNL     1       4.459   5.506  17.574  0.00  0.00    +0.000 A 
ATOM      6  C   UNL     1       3.988   6.805  17.595  0.00  0.00    +0.000 A 
ENDROOT
BRANCH   1   8
ATOM      7  O   UNL     1       2.341   9.196  17.094  0.00  0.00    +0.000 OA
ATOM      8  C   UNL     1       2.152   8.446  18.023  0.00  0.00    +0.000 C 
ATOM      9  N   UNL     1       1.480   8.777  19.183  0.00  0.00    +0.000 N 
ATOM     10  H   UNL     1       1.567   8.188  20.003  0.00  0.00    +0.000 HD
BRANCH   9  11
ATOM     11  C   UNL     1       0.992  10.124  19.394  0.00  0.00    +0.000 C 
BRANCH  11  12
ATOM     12  C   UNL     1       0.671  10.409  20.879  0.00  0.00    +0.000 C 
ATOM     13  C   UNL     1       0.254   9.123  21.611  0.00  0.00    +0.000 C 
ATOM     14  C   UNL     1      -0.079   9.405  23.074  0.00  0.00    +0.000 C 
ATOM     15  C   UNL     1      -1.092  10.540  23.194  0.00  0.00    +0.000 C 
ATOM     16  C   UNL     1      -0.655  11.763  22.393  0.00  0.00    +0.000 C 
ATOM     17  N   UNL     1      -0.411  11.414  20.990  0.00  0.00    +0.000 NA
ATOM     18  H   UNL     1      -0.156  12.256  20.475  0.00  0.00    +0.000 HD
ENDBRANCH  11  12
ENDBRANCH   9  11
ENDBRANCH   1   8
BRANCH   3  19
ATOM     19  O   UNL     1       1.468   3.671  18.727  0.00  0.00    +0.000 OA
BRANCH  19  20
ATOM     20  C   UNL     1       0.914   3.848  20.058  0.00  0.00    +0.000 C 
BRANCH  20  21
ATOM     21  C   UNL     1       1.823   3.249  21.116  0.00  0.00    +0.000 C 
ATOM     22  F   UNL     1       1.122   2.591  22.064  0.00  0.00    +0.000 F 
ATOM     23  F   UNL     1       2.703   2.376  20.573  0.00  0.00    +0.000 F 
ATOM     24  F   UNL     1       2.542   4.216  21.732  0.00  0.00    +0.000 F 
ENDBRANCH  20  21
ENDBRANCH  19  20
ENDBRANCH   3  19
BRANCH   5  25
ATOM     25  O   UNL     1       5.742   5.154  17.259  0.00  0.00    +0.000 OA
BRANCH  25  26
ATOM     26  C   UNL     1       6.752   6.158  17.414  0.00  0.00    +0.000 C 
BRANCH  26  27
ATOM     27  C   UNL     1       7.601   5.876  18.649  0.00  0.00    +0.000 C 
ATOM     28  F   UNL     1       8.480   6.869  18.910  0.00  0.00    +0.000 F 
ATOM     29  F   UNL     1       6.831   5.714  19.749  0.00  0.00    +0.000 F 
ATOM     30  F   UNL     1       8.313   4.735  18.486  0.00  0.00    +0.000 F 
ENDBRANCH  26  27
ENDBRANCH  25  26
ENDBRANCH   5  25
TORSDOF 9
ENDMDL
MODEL 2
REMARK VINA RESULT:      -8.2      1.766      4.798
REMARK  Name = 
REMARK  9 active torsions:
REMARK  status: ('A' for Active; 'I' for Inactive)
REMARK    1  A    between atoms: C_2  and  C_11
REMARK    2  A    between atoms: N_3  and  C_4
REMARK    3  A    between atoms: C_4  and  C_5
REMARK    4  A    between atoms: C_13  and  O_14
REMARK    5  A    between atoms: O_14  and  C_15
REMARK    6  A    between atoms: C_15  and  C_16
REMARK    7  A    between atoms: C_21  and  O_22
REMARK    8  A    between atoms: O_22  and  C_23
REMARK    9  A    between atoms: C_23  and  C_24
REMARK                            x       y       z     vdW  Elec       q    Type
REMARK                         _______ _______ _______ _____ _____    ______ ____
ROOT
ATOM      1  C   UNL     1       2.930   6.908  18.086  0.00  0.00    +0.000 A 
ATOM      2  C   UNL     1       4.249   6.716  17.711  0.00  0.00    +0.000 A 
ATOM      3  C   UNL     1       4.797   5.448  17.655  0.00  0.00    +0.000 A 
ATOM      4  C   UNL     1       4.015   4.337  18.037  0.00  0.00    +0.000 A 
ATOM      5  C   UNL     1       2.680   4.537  18.435  0.00  0.00    +0.000 A 
ATOM      6  C   UNL     1       2.135   5.807  18.455  0.00  0.00    +0.000 A 
ENDROOT
BRANCH   1   8
ATOM      7  O   UNL     1       2.541   9.016  17.151  0.00  0.00    +0.000 OA
ATOM      8  C   UNL     1       2.345   8.270  18.082  0.00  0.00    +0.000 C 
ATOM      9  N   UNL     1       1.592   8.578  19.198  0.00  0.00    +0.000 N 
ATOM     10  H   UNL     1       1.669   8.007  20.032  0.00  0.00    +0.000 HD
BRANCH   9  11
ATOM     11  C   UNL     1       1.018   9.898  19.359  0.00  0.00    +0.000 C 
BRANCH  11  12
ATOM     12  C   UNL     1       0.720  10.236  20.838  0.00  0.00    +0.000 C 
ATOM     13  C   UNL     1       0.377   8.967  21.636  0.00  0.00    +0.000 C 
ATOM     14  C   UNL     1       0.068   9.301  23.094  0.00  0.00    +0.000 C 
ATOM     15  C   UNL     1      -0.989  10.397  23.191  0.00  0.00    +0.000 C 
ATOM     16  C   UNL     1      -0.624  11.601  22.325  0.00  0.00    +0.000 C 
ATOM     17  N   UNL     1      -0.400  11.199  20.933  0.00  0.00    +0.000 NA
ATOM     18  H   UNL     1      -0.194  12.026  20.375  0.00  0.00    +0.000 HD
ENDBRANCH  11  12
ENDBRANCH   9  11
ENDBRANCH   1   8
BRANCH   3  19
ATOM     19  O   UNL     1       6.095   5.272  17.235  0.00  0.00    +0.000 OA
BRANCH  19  20
ATOM     20  C   UNL     1       6.272   4.119  16.370  0.00  0.00    +0.000 C 
BRANCH  20  21
ATOM     21  C   UNL     1       6.379   4.535  14.914  0.00  0.00    +0.000 C 
ATOM     22  F   UNL     1       7.525   5.205  14.667  0.00  0.00    +0.000 F 
ATOM     23  F   UNL     1       6.342   3.462  14.091  0.00  0.00    +0.000 F 
ATOM     24  F   UNL     1       5.348   5.343  14.571  0.00  0.00    +0.000 F 
ENDBRANCH  20  21
ENDBRANCH  19  20
ENDBRANCH   3  19
BRANCH   5  25
ATOM     25  O   UNL     1       1.990   3.396  18.735  0.00  0.00    +0.000 OA
BRANCH  25  26
ATOM     26  C   UNL     1       2.308   2.746  19.972  0.00  0.00    +0.000 C 
BRANCH  26  27
ATOM     27  C   UNL     1       1.575   3.414  21.131  0.00  0.00    +0.000 C 
ATOM     28  F   UNL     1       2.330   4.349  21.750  0.00  0.00    +0.000 F 
ATOM     29  F   UNL     1       0.440   4.019  20.712  0.00  0.00    +0.000 F 
ATOM     30  F   UNL     1       1.221   2.496  22.062  0.00  0.00    +0.000 F 
ENDBRANCH  26  27
ENDBRANCH  25  26
ENDBRANCH   5  25
TORSDOF 9
ENDMDL
MODEL 3
REMARK VINA RESULT:      -8.2      1.753      4.837
REMARK  Name = 
REMARK  9 active torsions:
REMARK  status: ('A' for Active; 'I' for Inactive)
REMARK    1  A    between atoms: C_2  and  C_11
REMARK    2  A    between atoms: N_3  and  C_4
REMARK    3  A    between atoms: C_4  and  C_5
REMARK    4  A    between atoms: C_13  and  O_14
REMARK    5  A    between atoms: O_14  and  C_15
REMARK    6  A    between atoms: C_15  and  C_16
REMARK    7  A    between atoms: C_21  and  O_22
REMARK    8  A    between atoms: O_22  and  C_23
REMARK    9  A    between atoms: C_23  and  C_24
REMARK                            x       y       z     vdW  Elec       q    Type
REMARK                         _______ _______ _______ _____ _____    ______ ____
ROOT
ATOM      1  C   UNL     1       2.903   6.811  18.082  0.00  0.00    +0.000 A 
ATOM      2  C   UNL     1       4.201   6.538  17.685  0.00  0.00    +0.000 A 
ATOM      3  C   UNL     1       4.676   5.241  17.647  0.00  0.00    +0.000 A 
ATOM      4  C   UNL     1       3.842   4.183  18.068  0.00  0.00    +0.000 A 
ATOM      5  C   UNL     1       2.528   4.466  18.487  0.00  0.00    +0.000 A 
ATOM      6  C   UNL     1       2.055   5.764  18.489  0.00  0.00    +0.000 A 
ENDROOT
BRANCH   1   8
ATOM      7  O   UNL     1       2.649   8.932  17.128  0.00  0.00    +0.000 OA
ATOM      8  C   UNL     1       2.394   8.203  18.059  0.00  0.00    +0.000 C 
ATOM      9  N   UNL     1       1.638   8.560  19.158  0.00  0.00    +0.000 N 
ATOM     10  H   UNL     1       1.667   7.991  19.997  0.00  0.00    +0.000 HD
BRANCH   9  11
ATOM     11  C   UNL     1       1.134   9.910  19.301  0.00  0.00    +0.000 C 
BRANCH  11  12
ATOM     12  C   UNL     1       0.809  10.266  20.769  0.00  0.00    +0.000 C 
ATOM     13  C   UNL     1       0.542   9.000  21.599  0.00  0.00    +0.000 C 
ATOM     14  C   UNL     1       0.205   9.351  23.047  0.00  0.00    +0.000 C 
ATOM     15  C   UNL     1      -0.919  10.380  23.111  0.00  0.00    +0.000 C 
ATOM     16  C   UNL     1      -0.627  11.581  22.216  0.00  0.00    +0.000 C 
ATOM     17  N   UNL     1      -0.371  11.159  20.835  0.00  0.00    +0.000 NA
ATOM     18  H   UNL     1      -0.215  11.983  20.257  0.00  0.00    +0.000 HD
ENDBRANCH  11  12
ENDBRANCH   9  11
ENDBRANCH   1   8
BRANCH   3  19
ATOM     19  O   UNL     1       5.954   4.984  17.206  0.00  0.00    +0.000 OA
BRANCH  19  20
ATOM     20  C   UNL     1       6.017   3.957  16.181  0.00  0.00    +0.000 C 
BRANCH  20  21
ATOM     21  C   UNL     1       6.261   4.562  14.811  0.00  0.00    +0.000 C 
ATOM     22  F   UNL     1       5.352   5.516  14.515  0.00  0.00    +0.000 F 
ATOM     23  F   UNL     1       7.490   5.122  14.731  0.00  0.00    +0.000 F 
ATOM     24  F   UNL     1       6.187   3.612  13.849  0.00  0.00    +0.000 F 
ENDBRANCH  20  21
ENDBRANCH  19  20
ENDBRANCH   3  19
BRANCH   5  25
ATOM     25  O   UNL     1       1.783   3.371  18.825  0.00  0.00    +0.000 OA
BRANCH  25  26
ATOM     26  C   UNL     1       0.949   3.481  19.986  0.00  0.00    +0.000 C 
BRANCH  26  27
ATOM     27  C   UNL     1       1.744   3.161  21.247  0.00  0.00    +0.000 C 
ATOM     28  F   UNL     1       0.983   2.580  22.203  0.00  0.00    +0.000 F 
ATOM     29  F   UNL     1       2.773   2.325  20.982  0.00  0.00    +0.000 F 
ATOM     30  F   UNL     1       2.269   4.291  21.778  0.00  0.00    +0.000 F 
ENDBRANCH  26  27
ENDBRANCH  25  26
ENDBRANCH   5  25
TORSDOF 9
ENDMDL
MODEL 4
REMARK VINA RESULT:      -8.1      2.004      2.284
REMARK  Name = 
REMARK  9 active torsions:
REMARK  status: ('A' for Active; 'I' for Inactive)
REMARK    1  A    between atoms: C_2  and  C_11
REMARK    2  A    between atoms: N_3  and  C_4
REMARK    3  A    between atoms: C_4  and  C_5
REMARK    4  A    between atoms: C_13  and  O_14
REMARK    5  A    between atoms: O_14  and  C_15
REMARK    6  A    between atoms: C_15  and  C_16
REMARK    7  A    between atoms: C_21  and  O_22
REMARK    8  A    between atoms: O_22  and  C_23
REMARK    9  A    between atoms: C_23  and  C_24
REMARK                            x       y       z     vdW  Elec       q    Type
REMARK                         _______ _______ _______ _____ _____    ______ ____
ROOT
ATOM      1  C   UNL     1       3.158   7.215  18.280  0.00  0.00    +0.000 A 
ATOM      2  C   UNL     1       2.811   6.208  19.166  0.00  0.00    +0.000 A 
ATOM      3  C   UNL     1       3.605   5.086  19.313  0.00  0.00    +0.000 A 
ATOM      4  C   UNL     1       4.757   4.939  18.511  0.00  0.00    +0.000 A 
ATOM      5  C   UNL     1       5.096   5.956  17.600  0.00  0.00    +0.000 A 
ATOM      6  C   UNL     1       4.312   7.088  17.485  0.00  0.00    +0.000 A 
ENDROOT
BRANCH   1   8
ATOM      7  O   UNL     1       2.327   9.096  17.164  0.00  0.00    +0.000 OA
ATOM      8  C   UNL     1       2.326   8.438  18.179  0.00  0.00    +0.000 C 
ATOM      9  N   UNL     1       1.590   8.730  19.310  0.00  0.00    +0.000 N 
ATOM     10  H   UNL     1       1.818   8.282  20.191  0.00  0.00    +0.000 HD
BRANCH   9  11
ATOM     11  C   UNL     1       0.785   9.932  19.377  0.00  0.00    +0.000 C 
BRANCH  11  12
ATOM     12  C   UNL     1       0.500  10.371  20.831  0.00  0.00    +0.000 C 
ATOM     13  C   UNL     1       0.122   9.167  21.709  0.00  0.00    +0.000 C 
ATOM     14  C   UNL     1      -0.175   9.601  23.142  0.00  0.00    +0.000 C 
ATOM     15  C   UNL     1      -1.200  10.730  23.169  0.00  0.00    +0.000 C 
ATOM     16  C   UNL     1      -0.802  11.866  22.229  0.00  0.00    +0.000 C 
ATOM     17  N   UNL     1      -0.592  11.370  20.865  0.00  0.00    +0.000 NA
ATOM     18  H   UNL     1      -0.363  12.155  20.256  0.00  0.00    +0.000 HD
ENDBRANCH  11  12
ENDBRANCH   9  11
ENDBRANCH   1   8
BRANCH   3  19
ATOM     19  O   UNL     1       3.270   4.118  20.232  0.00  0.00    +0.000 OA
BRANCH  19  20
ATOM     20  C   UNL     1       2.445   3.057  19.679  0.00  0.00    +0.000 C 
BRANCH  20  21
ATOM     21  C   UNL     1       1.049   3.079  20.274  0.00  0.00    +0.000 C 
ATOM     22  F   UNL     1       0.162   2.424  19.495  0.00  0.00    +0.000 F 
ATOM     23  F   UNL     1       1.027   2.504  21.499  0.00  0.00    +0.000 F 
ATOM     24  F   UNL     1       0.610   4.352  20.418  0.00  0.00    +0.000 F 
ENDBRANCH  20  21
ENDBRANCH  19  20
ENDBRANCH   3  19
BRANCH   5  25
ATOM     25  O   UNL     1       6.256   5.746  16.907  0.00  0.00    +0.000 OA
BRANCH  25  26
ATOM     26  C   UNL     1       6.453   4.444  16.342  0.00  0.00    +0.000 C 
BRANCH  26  27
ATOM     27  C   UNL     1       6.350   4.500  14.821  0.00  0.00    +0.000 C 
ATOM     28  F   UNL     1       5.255   5.172  14.402  0.00  0.00    +0.000 F 
ATOM     29  F   UNL     1       7.432   5.102  14.276  0.00  0.00    +0.000 F 
ATOM     30  F   UNL     1       6.283   3.250  14.304  0.00  0.00    +0.000 F 
ENDBRANCH  26  27
ENDBRANCH  25  26
ENDBRANCH   5  25
TORSDOF 9
ENDMDL
MODEL 5
REMARK VINA RESULT:      -8.1      2.378      2.899
REMARK  Name = 
REMARK  9 active torsions:
REMARK  status: ('A' for Active; 'I' for Inactive)
REMARK    1  A    between atoms: C_2  and  C_11
REMARK    2  A    between atoms: N_3  and  C_4
REMARK    3  A    between atoms: C_4  and  C_5
REMARK    4  A    between atoms: C_13  and  O_14
REMARK    5  A    between atoms: O_14  and  C_15
REMARK    6  A    between atoms: C_15  and  C_16
REMARK    7  A    between atoms: C_21  and  O_22
REMARK    8  A    between atoms: O_22  and  C_23
REMARK    9  A    between atoms: C_23  and  C_24
REMARK                            x       y       z     vdW  Elec       q    Type
REMARK                         _______ _______ _______ _____ _____    ______ ____
ROOT
ATOM      1  C   UNL     1       2.418   8.000  18.438  0.00  0.00    +0.000 A 
ATOM      2  C   UNL     1       2.107   7.219  19.539  0.00  0.00    +0.000 A 
ATOM      3  C   UNL     1       2.746   6.014  19.760  0.00  0.00    +0.000 A 
ATOM      4  C   UNL     1       3.693   5.547  18.823  0.00  0.00    +0.000 A 
ATOM      5  C   UNL     1       3.994   6.336  17.697  0.00  0.00    +0.000 A 
ATOM      6  C   UNL     1       3.372   7.554  17.504  0.00  0.00    +0.000 A 
ENDROOT
BRANCH   1   8
ATOM      7  O   UNL     1       2.201  10.106  17.444  0.00  0.00    +0.000 OA
ATOM      8  C   UNL     1       1.764   9.317  18.250  0.00  0.00    +0.000 C 
ATOM      9  N   UNL     1       0.663   9.535  19.054  0.00  0.00    +0.000 N 
ATOM     10  H   UNL     1       0.502   8.944  19.861  0.00  0.00    +0.000 HD
BRANCH   9  11
ATOM     11  C   UNL     1      -0.032  10.805  19.024  0.00  0.00    +0.000 C 
BRANCH  11  12
ATOM     12  C   UNL     1      -1.529  10.650  18.671  0.00  0.00    +0.000 C 
ATOM     13  C   UNL     1      -1.707   9.981  17.299  0.00  0.00    +0.000 C 
ATOM     14  C   UNL     1      -3.185   9.841  16.942  0.00  0.00    +0.000 C 
ATOM     15  C   UNL     1      -3.907  11.178  17.075  0.00  0.00    +0.000 C 
ATOM     16  C   UNL     1      -3.639  11.824  18.432  0.00  0.00    +0.000 C 
ATOM     17  N   UNL     1      -2.199  11.971  18.668  0.00  0.00    +0.000 NA
ATOM     18  H   UNL     1      -2.053  12.436  19.563  0.00  0.00    +0.000 HD
ENDBRANCH  11  12
ENDBRANCH   9  11
ENDBRANCH   1   8
BRANCH   3  19
ATOM     19  O   UNL     1       2.457   5.273  20.883  0.00  0.00    +0.000 OA
BRANCH  19  20
ATOM     20  C   UNL     1       2.628   3.844  20.693  0.00  0.00    +0.000 C 
BRANCH  20  21
ATOM     21  C   UNL     1       1.289   3.133  20.624  0.00  0.00    +0.000 C 
ATOM     22  F   UNL     1       0.941   2.602  21.816  0.00  0.00    +0.000 F 
ATOM     23  F   UNL     1       0.302   3.978  20.245  0.00  0.00    +0.000 F 
ATOM     24  F   UNL     1       1.328   2.125  19.721  0.00  0.00    +0.000 F 
ENDBRANCH  20  21
ENDBRANCH  19  20
ENDBRANCH   3  19
BRANCH   5  25
ATOM     25  O   UNL     1       4.960   5.823  16.877  0.00  0.00    +0.000 OA
BRANCH  25  26
ATOM     26  C   UNL     1       5.740   4.734  17.385  0.00  0.00    +0.000 C 
BRANCH  26  27
ATOM     27  C   UNL     1       7.208   4.906  17.010  0.00  0.00    +0.000 C 
ATOM     28  F   UNL     1       7.595   6.202  17.019  0.00  0.00    +0.000 F 
ATOM     29  F   UNL     1       8.016   4.234  17.861  0.00  0.00    +0.000 F 
ATOM     30  F   UNL     1       7.440   4.421  15.767  0.00  0.00    +0.000 F 
ENDBRANCH  26  27
ENDBRANCH  25  26
ENDBRANCH   5  25
TORSDOF 9
ENDMDL
MODEL 6
REMARK VINA RESULT:      -8.0      2.267      5.119
REMARK  Name = 
REMARK  9 active torsions:
REMARK  status: ('A' for Active; 'I' for Inactive)
REMARK    1  A    between atoms: C_2  and  C_11
REMARK    2  A    between atoms: N_3  and  C_4
REMARK    3  A    between atoms: C_4  and  C_5
REMARK    4  A    between atoms: C_13  and  O_14
REMARK    5  A    between atoms: O_14  and  C_15
REMARK    6  A    between atoms: C_15  and  C_16
REMARK    7  A    between atoms: C_21  and  O_22
REMARK    8  A    between atoms: O_22  and  C_23
REMARK    9  A    between atoms: C_23  and  C_24
REMARK                            x       y       z     vdW  Elec       q    Type
REMARK                         _______ _______ _______ _____ _____    ______ ____
ROOT
ATOM      1  C   UNL     1       2.445   7.976  18.515  0.00  0.00    +0.000 A 
ATOM      2  C   UNL     1       3.456   7.497  17.698  0.00  0.00    +0.000 A 
ATOM      3  C   UNL     1       4.036   6.264  17.933  0.00  0.00    +0.000 A 
ATOM      4  C   UNL     1       3.629   5.506  19.051  0.00  0.00    +0.000 A 
ATOM      5  C   UNL     1       2.613   6.004  19.888  0.00  0.00    +0.000 A 
ATOM      6  C   UNL     1       2.018   7.223  19.624  0.00  0.00    +0.000 A 
ENDROOT
BRANCH   1   8
ATOM      7  O   UNL     1       2.215   9.975  17.321  0.00  0.00    +0.000 OA
ATOM      8  C   UNL     1       1.794   9.273  18.212  0.00  0.00    +0.000 C 
ATOM      9  N   UNL     1       0.713   9.578  19.015  0.00  0.00    +0.000 N 
ATOM     10  H   UNL     1       0.568   9.071  19.881  0.00  0.00    +0.000 HD
BRANCH   9  11
ATOM     11  C   UNL     1       0.025  10.845  18.875  0.00  0.00    +0.000 C 
BRANCH  11  12
ATOM     12  C   UNL     1      -1.487  10.668  18.607  0.00  0.00    +0.000 C 
ATOM     13  C   UNL     1      -1.731   9.978  17.254  0.00  0.00    +0.000 C 
ATOM     14  C   UNL     1      -3.224   9.816  16.980  0.00  0.00    +0.000 C 
ATOM     15  C   UNL     1      -3.955  11.146  17.136  0.00  0.00    +0.000 C 
ATOM     16  C   UNL     1      -3.621  11.813  18.468  0.00  0.00    +0.000 C 
ATOM     17  N   UNL     1      -2.172  11.980  18.624  0.00  0.00    +0.000 NA
ATOM     18  H   UNL     1      -1.984  12.458  19.504  0.00  0.00    +0.000 HD
ENDBRANCH  11  12
ENDBRANCH   9  11
ENDBRANCH   1   8
BRANCH   3  19
ATOM     19  O   UNL     1       5.007   5.784  17.084  0.00  0.00    +0.000 OA
BRANCH  19  20
ATOM     20  C   UNL     1       5.822   4.736  17.673  0.00  0.00    +0.000 C 
BRANCH  20  21
ATOM     21  C   UNL     1       7.247   5.208  17.897  0.00  0.00    +0.000 C 
ATOM     22  F   UNL     1       7.467   5.544  19.187  0.00  0.00    +0.000 F 
ATOM     23  F   UNL     1       8.142   4.250  17.562  0.00  0.00    +0.000 F 
ATOM     24  F   UNL     1       7.516   6.296  17.137  0.00  0.00    +0.000 F 
ENDBRANCH  20  21
ENDBRANCH  19  20
ENDBRANCH   3  19
BRANCH   5  25
ATOM     25  O   UNL     1       2.253   5.174  20.913  0.00  0.00    +0.000 OA
BRANCH  25  26
ATOM     26  C   UNL     1       1.234   4.204  20.642  0.00  0.00    +0.000 C 
BRANCH  26  27
ATOM     27  C   UNL     1       1.643   2.835  21.176  0.00  0.00    +0.000 C 
ATOM     28  F   UNL     1       0.848   2.417  22.187  0.00  0.00    +0.000 F 
ATOM     29  F   UNL     1       1.598   1.894  20.207  0.00  0.00    +0.000 F 
ATOM     30  F   UNL     1       2.913   2.869  21.645  0.00  0.00    +0.000 F 
ENDBRANCH  26  27
ENDBRANCH  25  26
ENDBRANCH   5  25
TORSDOF 9
ENDMDL
MODEL 7
REMARK VINA RESULT:      -8.0      1.794      2.115
REMARK  Name = 
REMARK  9 active torsions:
REMARK  status: ('A' for Active; 'I' for Inactive)
REMARK    1  A    between atoms: C_2  and  C_11
REMARK    2  A    between atoms: N_3  and  C_4
REMARK    3  A    between atoms: C_4  and  C_5
REMARK    4  A    between atoms: C_13  and  O_14
REMARK    5  A    between atoms: O_14  and  C_15
REMARK    6  A    between atoms: C_15  and  C_16
REMARK    7  A    between atoms: C_21  and  O_22
REMARK    8  A    between atoms: O_22  and  C_23
REMARK    9  A    between atoms: C_23  and  C_24
REMARK                            x       y       z     vdW  Elec       q    Type
REMARK                         _______ _______ _______ _____ _____    ______ ____
ROOT
ATOM      1  C   UNL     1       2.964   6.574  18.076  0.00  0.00    +0.000 A 
ATOM      2  C   UNL     1       2.112   5.523  18.369  0.00  0.00    +0.000 A 
ATOM      3  C   UNL     1       2.581   4.225  18.440  0.00  0.00    +0.000 A 
ATOM      4  C   UNL     1       3.939   3.961  18.158  0.00  0.00    +0.000 A 
ATOM      5  C   UNL     1       4.798   5.030  17.845  0.00  0.00    +0.000 A 
ATOM      6  C   UNL     1       4.323   6.327  17.809  0.00  0.00    +0.000 A 
ENDROOT
BRANCH   1   8
ATOM      7  O   UNL     1       2.676   8.690  17.120  0.00  0.00    +0.000 OA
ATOM      8  C   UNL     1       2.453   7.966  18.063  0.00  0.00    +0.000 C 
ATOM      9  N   UNL     1       1.734   8.327  19.185  0.00  0.00    +0.000 N 
ATOM     10  H   UNL     1       1.791   7.763  20.025  0.00  0.00    +0.000 HD
BRANCH   9  11
ATOM     11  C   UNL     1       1.233   9.678  19.337  0.00  0.00    +0.000 C 
BRANCH  11  12
ATOM     12  C   UNL     1       0.168   9.790  20.451  0.00  0.00    +0.000 C 
ATOM     13  C   UNL     1      -0.095  11.260  20.819  0.00  0.00    +0.000 C 
ATOM     14  C   UNL     1      -1.136  11.372  21.930  0.00  0.00    +0.000 C 
ATOM     15  C   UNL     1      -0.761  10.495  23.120  0.00  0.00    +0.000 C 
ATOM     16  C   UNL     1      -0.448   9.066  22.683  0.00  0.00    +0.000 C 
ATOM     17  N   UNL     1       0.600   9.047  21.657  0.00  0.00    +0.000 NA
ATOM     18  H   UNL     1       0.811   8.081  21.412  0.00  0.00    +0.000 HD
ENDBRANCH  11  12
ENDBRANCH   9  11
ENDBRANCH   1   8
BRANCH   3  19
ATOM     19  O   UNL     1       1.730   3.198  18.777  0.00  0.00    +0.000 OA
BRANCH  19  20
ATOM     20  C   UNL     1       0.971   3.451  19.989  0.00  0.00    +0.000 C 
BRANCH  20  21
ATOM     21  C   UNL     1       1.798   3.159  21.228  0.00  0.00    +0.000 C 
ATOM     22  F   UNL     1       1.061   2.573  22.196  0.00  0.00    +0.000 F 
ATOM     23  F   UNL     1       2.835   2.338  20.945  0.00  0.00    +0.000 F 
ATOM     24  F   UNL     1       2.314   4.302  21.739  0.00  0.00    +0.000 F 
ENDBRANCH  20  21
ENDBRANCH  19  20
ENDBRANCH   3  19
BRANCH   5  25
ATOM     25  O   UNL     1       6.104   4.679  17.640  0.00  0.00    +0.000 OA
BRANCH  25  26
ATOM     26  C   UNL     1       6.790   5.318  16.556  0.00  0.00    +0.000 C 
BRANCH  26  27
ATOM     27  C   UNL     1       6.380   4.698  15.224  0.00  0.00    +0.000 C 
ATOM     28  F   UNL     1       5.264   5.264  14.713  0.00  0.00    +0.000 F 
ATOM     29  F   UNL     1       7.360   4.822  14.301  0.00  0.00    +0.000 F 
ATOM     30  F   UNL     1       6.133   3.374  15.373  0.00  0.00    +0.000 F 
ENDBRANCH  26  27
ENDBRANCH  25  26
ENDBRANCH   5  25
TORSDOF 9
ENDMDL
MODEL 8
REMARK VINA RESULT:      -8.0      1.070      4.667
REMARK  Name = 
REMARK  9 active torsions:
REMARK  status: ('A' for Active; 'I' for Inactive)
REMARK    1  A    between atoms: C_2  and  C_11
REMARK    2  A    between atoms: N_3  and  C_4
REMARK    3  A    between atoms: C_4  and  C_5
REMARK    4  A    between atoms: C_13  and  O_14
REMARK    5  A    between atoms: O_14  and  C_15
REMARK    6  A    between atoms: C_15  and  C_16
REMARK    7  A    between atoms: C_21  and  O_22
REMARK    8  A    between atoms: O_22  and  C_23
REMARK    9  A    between atoms: C_23  and  C_24
REMARK                            x       y       z     vdW  Elec       q    Type
REMARK                         _______ _______ _______ _____ _____    ______ ____
ROOT
ATOM      1  C   UNL     1       3.188   6.984  17.900  0.00  0.00    +0.000 A 
ATOM      2  C   UNL     1       4.494   6.882  17.453  0.00  0.00    +0.000 A 
ATOM      3  C   UNL     1       5.125   5.655  17.371  0.00  0.00    +0.000 A 
ATOM      4  C   UNL     1       4.445   4.494  17.799  0.00  0.00    +0.000 A 
ATOM      5  C   UNL     1       3.123   4.604  18.269  0.00  0.00    +0.000 A 
ATOM      6  C   UNL     1       2.493   5.833  18.315  0.00  0.00    +0.000 A 
ENDROOT
BRANCH   1   8
ATOM      7  O   UNL     1       2.675   9.091  17.023  0.00  0.00    +0.000 OA
ATOM      8  C   UNL     1       2.509   8.302  17.924  0.00  0.00    +0.000 C 
ATOM      9  N   UNL     1       1.710   8.519  19.029  0.00  0.00    +0.000 N 
ATOM     10  H   UNL     1       1.806   7.928  19.846  0.00  0.00    +0.000 HD
BRANCH   9  11
ATOM     11  C   UNL     1       1.041   9.790  19.216  0.00  0.00    +0.000 C 
BRANCH  11  12
ATOM     12  C   UNL     1       0.098   9.785  20.441  0.00  0.00    +0.000 C 
ATOM     13  C   UNL     1       0.150  11.130  21.184  0.00  0.00    +0.000 C 
ATOM     14  C   UNL     1      -0.769  11.122  22.403  0.00  0.00    +0.000 C 
ATOM     15  C   UNL     1      -0.487   9.915  23.292  0.00  0.00    +0.000 C 
ATOM     16  C   UNL     1      -0.487   8.618  22.485  0.00  0.00    +0.000 C 
ATOM     17  N   UNL     1       0.463   8.692  21.370  0.00  0.00    +0.000 NA
ATOM     18  H   UNL     1       0.466   7.802  20.874  0.00  0.00    +0.000 HD
ENDBRANCH  11  12
ENDBRANCH   9  11
ENDBRANCH   1   8
BRANCH   3  19
ATOM     19  O   UNL     1       6.408   5.567  16.881  0.00  0.00    +0.000 OA
BRANCH  19  20
ATOM     20  C   UNL     1       7.311   4.837  17.753  0.00  0.00    +0.000 C 
BRANCH  20  21
ATOM     21  C   UNL     1       7.702   5.669  18.961  0.00  0.00    +0.000 C 
ATOM     22  F   UNL     1       6.715   5.710  19.882  0.00  0.00    +0.000 F 
ATOM     23  F   UNL     1       8.808   5.173  19.563  0.00  0.00    +0.000 F 
ATOM     24  F   UNL     1       7.978   6.943  18.596  0.00  0.00    +0.000 F 
ENDBRANCH  20  21
ENDBRANCH  19  20
ENDBRANCH   3  19
BRANCH   5  25
ATOM     25  O   UNL     1       2.532   3.419  18.610  0.00  0.00    +0.000 OA
BRANCH  25  26
ATOM     26  C   UNL     1       2.505   3.079  20.002  0.00  0.00    +0.000 C 
BRANCH  26  27
ATOM     27  C   UNL     1       1.099   3.247  20.566  0.00  0.00    +0.000 C 
ATOM     28  F   UNL     1       0.780   4.544  20.781  0.00  0.00    +0.000 F 
ATOM     29  F   UNL     1       0.168   2.731  19.732  0.00  0.00    +0.000 F 
ATOM     30  F   UNL     1       0.981   2.599  21.750  0.00  0.00    +0.000 F 
ENDBRANCH  26  27
ENDBRANCH  25  26
ENDBRANCH   5  25
TORSDOF 9
ENDMDL
MODEL 9
REMARK VINA RESULT:      -8.0      2.136      4.807
REMARK  Name = 
REMARK  9 active torsions:
REMARK  status: ('A' for Active; 'I' for Inactive)
REMARK    1  A    between atoms: C_2  and  C_11
REMARK    2  A    between atoms: N_3  and  C_4
REMARK    3  A    between atoms: C_4  and  C_5
REMARK    4  A    between atoms: C_13  and  O_14
REMARK    5  A    between atoms: O_14  and  C_15
REMARK    6  A    between atoms: C_15  and  C_16
REMARK    7  A    between atoms: C_21  and  O_22
REMARK    8  A    between atoms: O_22  and  C_23
REMARK    9  A    between atoms: C_23  and  C_24
REMARK                            x       y       z     vdW  Elec       q    Type
REMARK                         _______ _______ _______ _____ _____    ______ ____
ROOT
ATOM      1  C   UNL     1       3.267   7.011  18.343  0.00  0.00    +0.000 A 
ATOM      2  C   UNL     1       4.500   6.942  17.715  0.00  0.00    +0.000 A 
ATOM      3  C   UNL     1       5.274   5.798  17.790  0.00  0.00    +0.000 A 
ATOM      4  C   UNL     1       4.824   4.705  18.561  0.00  0.00    +0.000 A 
ATOM      5  C   UNL     1       3.579   4.785  19.211  0.00  0.00    +0.000 A 
ATOM      6  C   UNL     1       2.800   5.921  19.101  0.00  0.00    +0.000 A 
ENDROOT
BRANCH   1   8
ATOM      7  O   UNL     1       2.429   8.852  17.168  0.00  0.00    +0.000 OA
ATOM      8  C   UNL     1       2.426   8.223  18.201  0.00  0.00    +0.000 C 
ATOM      9  N   UNL     1       1.680   8.541  19.318  0.00  0.00    +0.000 N 
ATOM     10  H   UNL     1       1.904   8.121  20.213  0.00  0.00    +0.000 HD
BRANCH   9  11
ATOM     11  C   UNL     1       0.865   9.738  19.344  0.00  0.00    +0.000 C 
BRANCH  11  12
ATOM     12  C   UNL     1       0.588  10.232  20.783  0.00  0.00    +0.000 C 
ATOM     13  C   UNL     1       0.266   9.056  21.719  0.00  0.00    +0.000 C 
ATOM     14  C   UNL     1      -0.023   9.543  23.137  0.00  0.00    +0.000 C 
ATOM     15  C   UNL     1      -1.086  10.638  23.132  0.00  0.00    +0.000 C 
ATOM     16  C   UNL     1      -0.743  11.743  22.136  0.00  0.00    +0.000 C 
ATOM     17  N   UNL     1      -0.537  11.194  20.791  0.00  0.00    +0.000 NA
ATOM     18  H   UNL     1      -0.346  11.958  20.145  0.00  0.00    +0.000 HD
ENDBRANCH  11  12
ENDBRANCH   9  11
ENDBRANCH   1   8
BRANCH   3  19
ATOM     19  O   UNL     1       6.475   5.731  17.123  0.00  0.00    +0.000 OA
BRANCH  19  20
ATOM     20  C   UNL     1       6.692   4.461  16.452  0.00  0.00    +0.000 C 
BRANCH  20  21
ATOM     21  C   UNL     1       5.977   4.416  15.114  0.00  0.00    +0.000 C 
ATOM     22  F   UNL     1       5.867   5.643  14.562  0.00  0.00    +0.000 F 
ATOM     23  F   UNL     1       6.630   3.623  14.233  0.00  0.00    +0.000 F 
ATOM     24  F   UNL     1       4.727   3.916  15.257  0.00  0.00    +0.000 F 
ENDBRANCH  20  21
ENDBRANCH  19  20
ENDBRANCH   3  19
BRANCH   5  25
ATOM     25  O   UNL     1       3.208   3.657  19.888  0.00  0.00    +0.000 OA
BRANCH  25  26
ATOM     26  C   UNL     1       2.612   2.601  19.124  0.00  0.00    +0.000 C 
BRANCH  26  27
ATOM     27  C   UNL     1       1.123   2.861  18.924  0.00  0.00    +0.000 C 
ATOM     28  F   UNL     1       0.427   1.726  18.689  0.00  0.00    +0.000 F 
ATOM     29  F   UNL     1       0.576   3.457  20.008  0.00  0.00    +0.000 F 
ATOM     30  F   UNL     1       0.922   3.686  17.868  0.00  0.00    +0.000 F 
ENDBRANCH  26  27
ENDBRANCH  25  26
ENDBRANCH   5  25
TORSDOF 9
ENDMDL
