MODEL 1
REMARK VINA RESULT:      -4.7      0.000      0.000
REMARK  Name = 
REMARK  3 active torsions:
REMARK  status: ('A' for Active; 'I' for Inactive)
REMARK    1  A    between atoms: C_1  and  C_2
REMARK    2  A    between atoms: C_2  and  N_3
REMARK    3  A    between atoms: C_7  and  C_8
REMARK                            x       y       z     vdW  Elec       q    Type
REMARK                         _______ _______ _______ _____ _____    ______ ____
ROOT
ATOM      1  N   UNL     1       4.904   5.050  17.486  0.00  0.00    +0.000 N 
ATOM      2  S   UNL     1       5.323   6.437  16.603  0.00  0.00    +0.000 S 
ATOM      3  C   UNL     1       6.698   6.681  17.621  0.00  0.00    +0.000 A 
ATOM      4 CL   UNL     1       7.712   8.040  17.386  0.00  0.00    +0.000 Cl
ATOM      5  C   UNL     1       6.872   5.754  18.572  0.00  0.00    +0.000 A 
ATOM      6  C   UNL     1       7.923   5.633  19.614  0.00  0.00    +0.000 C 
ATOM      7  C   UNL     1       5.777   4.747  18.515  0.00  0.00    +0.000 A 
ATOM      8  O   UNL     1       5.692   3.814  19.294  0.00  0.00    +0.000 OA
ENDROOT
BRANCH   1  10
ATOM      9  C   UNL     1       2.469   4.982  17.907  0.00  0.00    +0.000 C 
ATOM     10  C   UNL     1       3.669   4.337  17.228  0.00  0.00    +0.000 C 
ENDBRANCH   1  10
TORSDOF 1
ENDMDL
MODEL 2
REMARK VINA RESULT:      -4.7      2.707      3.005
REMARK  Name = 
REMARK  3 active torsions:
REMARK  status: ('A' for Active; 'I' for Inactive)
REMARK    1  A    between atoms: C_1  and  C_2
REMARK    2  A    between atoms: C_2  and  N_3
REMARK    3  A    between atoms: C_7  and  C_8
REMARK                            x       y       z     vdW  Elec       q    Type
REMARK                         _______ _______ _______ _____ _____    ______ ____
ROOT
ATOM      1  N   UNL     1       2.925   3.483  19.138  0.00  0.00    +0.000 N 
ATOM      2  S   UNL     1       2.289   4.780  18.247  0.00  0.00    +0.000 S 
ATOM      3  C   UNL     1       3.855   5.509  18.173  0.00  0.00    +0.000 A 
ATOM      4 CL   UNL     1       4.061   7.025  17.404  0.00  0.00    +0.000 Cl
ATOM      5  C   UNL     1       4.835   4.810  18.759  0.00  0.00    +0.000 A 
ATOM      6  C   UNL     1       6.282   5.113  18.894  0.00  0.00    +0.000 C 
ATOM      7  C   UNL     1       4.286   3.567  19.368  0.00  0.00    +0.000 A 
ATOM      8  O   UNL     1       4.973   2.772  19.986  0.00  0.00    +0.000 OA
ENDROOT
BRANCH   1  10
ATOM      9  C   UNL     1       1.459   2.860  21.028  0.00  0.00    +0.000 C 
ATOM     10  C   UNL     1       2.066   2.456  19.692  0.00  0.00    +0.000 C 
ENDBRANCH   1  10
TORSDOF 1
ENDMDL
MODEL 3
REMARK VINA RESULT:      -4.6      3.014      4.278
REMARK  Name = 
REMARK  3 active torsions:
REMARK  status: ('A' for Active; 'I' for Inactive)
REMARK    1  A    between atoms: C_1  and  C_2
REMARK    2  A    between atoms: C_2  and  N_3
REMARK    3  A    between atoms: C_7  and  C_8
REMARK                            x       y       z     vdW  Elec       q    Type
REMARK                         _______ _______ _______ _____ _____    ______ ____
ROOT
ATOM      1  N   UNL     1       6.734   4.916  18.166  0.00  0.00    +0.000 N 
ATOM      2  S   UNL     1       5.195   4.639  18.825  0.00  0.00    +0.000 S 
ATOM      3  C   UNL     1       4.625   4.095  17.287  0.00  0.00    +0.000 A 
ATOM      4 CL   UNL     1       2.987   3.635  17.091  0.00  0.00    +0.000 Cl
ATOM      5  C   UNL     1       5.542   4.085  16.312  0.00  0.00    +0.000 A 
ATOM      6  C   UNL     1       5.425   3.688  14.886  0.00  0.00    +0.000 C 
ATOM      7  C   UNL     1       6.844   4.594  16.826  0.00  0.00    +0.000 A 
ATOM      8  O   UNL     1       7.834   4.709  16.125  0.00  0.00    +0.000 OA
ENDROOT
BRANCH   1  10
ATOM      9  C   UNL     1       8.021   6.994  18.539  0.00  0.00    +0.000 C 
ATOM     10  C   UNL     1       7.784   5.545  18.942  0.00  0.00    +0.000 C 
ENDBRANCH   1  10
TORSDOF 1
ENDMDL
MODEL 4
REMARK VINA RESULT:      -4.6      2.113      2.293
REMARK  Name = 
REMARK  3 active torsions:
REMARK  status: ('A' for Active; 'I' for Inactive)
REMARK    1  A    between atoms: C_1  and  C_2
REMARK    2  A    between atoms: C_2  and  N_3
REMARK    3  A    between atoms: C_7  and  C_8
REMARK                            x       y       z     vdW  Elec       q    Type
REMARK                         _______ _______ _______ _____ _____    ______ ____
ROOT
ATOM      1  N   UNL     1       5.024   4.203  18.638  0.00  0.00    +0.000 N 
ATOM      2  S   UNL     1       4.229   4.457  17.161  0.00  0.00    +0.000 S 
ATOM      3  C   UNL     1       5.324   5.739  16.781  0.00  0.00    +0.000 A 
ATOM      4 CL   UNL     1       5.138   6.626  15.328  0.00  0.00    +0.000 Cl
ATOM      5  C   UNL     1       6.274   5.965  17.697  0.00  0.00    +0.000 A 
ATOM      6  C   UNL     1       7.371   6.965  17.717  0.00  0.00    +0.000 C 
ATOM      7  C   UNL     1       6.104   5.040  18.852  0.00  0.00    +0.000 A 
ATOM      8  O   UNL     1       6.827   5.063  19.832  0.00  0.00    +0.000 OA
ENDROOT
BRANCH   1  10
ATOM      9  C   UNL     1       3.731   2.124  18.979  0.00  0.00    +0.000 C 
ATOM     10  C   UNL     1       4.516   3.262  19.616  0.00  0.00    +0.000 C 
ENDBRANCH   1  10
TORSDOF 1
ENDMDL
MODEL 5
REMARK VINA RESULT:      -4.6      3.927      5.125
REMARK  Name = 
REMARK  3 active torsions:
REMARK  status: ('A' for Active; 'I' for Inactive)
REMARK    1  A    between atoms: C_1  and  C_2
REMARK    2  A    between atoms: C_2  and  N_3
REMARK    3  A    between atoms: C_7  and  C_8
REMARK                            x       y       z     vdW  Elec       q    Type
REMARK                         _______ _______ _______ _____ _____    ______ ____
ROOT
ATOM      1  N   UNL     1       4.043   3.614  17.872  0.00  0.00    +0.000 N 
ATOM      2  S   UNL     1       4.544   3.495  19.489  0.00  0.00    +0.000 S 
ATOM      3  C   UNL     1       2.961   2.977  19.952  0.00  0.00    +0.000 A 
ATOM      4 CL   UNL     1       2.604   2.668  21.597  0.00  0.00    +0.000 Cl
ATOM      5  C   UNL     1       2.084   2.862  18.946  0.00  0.00    +0.000 A 
ATOM      6  C   UNL     1       0.659   2.450  18.957  0.00  0.00    +0.000 C 
ATOM      7  C   UNL     1       2.724   3.257  17.660  0.00  0.00    +0.000 A 
ATOM      8  O   UNL     1       2.126   3.265  16.598  0.00  0.00    +0.000 OA
ENDROOT
BRANCH   1  10
ATOM      9  C   UNL     1       4.768   5.664  16.697  0.00  0.00    +0.000 C 
ATOM     10  C   UNL     1       4.915   4.156  16.851  0.00  0.00    +0.000 C 
ENDBRANCH   1  10
TORSDOF 1
ENDMDL
MODEL 6
REMARK VINA RESULT:      -4.6      3.422      4.176
REMARK  Name = 
REMARK  3 active torsions:
REMARK  status: ('A' for Active; 'I' for Inactive)
REMARK    1  A    between atoms: C_1  and  C_2
REMARK    2  A    between atoms: C_2  and  N_3
REMARK    3  A    between atoms: C_7  and  C_8
REMARK                            x       y       z     vdW  Elec       q    Type
REMARK                         _______ _______ _______ _____ _____    ______ ____
ROOT
ATOM      1  N   UNL     1       5.224   4.626  16.392  0.00  0.00    +0.000 N 
ATOM      2  S   UNL     1       4.142   3.609  17.214  0.00  0.00    +0.000 S 
ATOM      3  C   UNL     1       3.307   4.987  17.840  0.00  0.00    +0.000 A 
ATOM      4 CL   UNL     1       1.985   4.779  18.907  0.00  0.00    +0.000 Cl
ATOM      5  C   UNL     1       3.785   6.172  17.438  0.00  0.00    +0.000 A 
ATOM      6  C   UNL     1       3.336   7.549  17.761  0.00  0.00    +0.000 C 
ATOM      7  C   UNL     1       4.969   5.975  16.556  0.00  0.00    +0.000 A 
ATOM      8  O   UNL     1       5.602   6.901  16.080  0.00  0.00    +0.000 OA
ENDROOT
BRANCH   1  10
ATOM      9  C   UNL     1       6.128   3.962  14.189  0.00  0.00    +0.000 C 
ATOM     10  C   UNL     1       6.371   4.093  15.687  0.00  0.00    +0.000 C 
ENDBRANCH   1  10
TORSDOF 1
ENDMDL
MODEL 7
REMARK VINA RESULT:      -4.5      3.360      3.898
REMARK  Name = 
REMARK  3 active torsions:
REMARK  status: ('A' for Active; 'I' for Inactive)
REMARK    1  A    between atoms: C_1  and  C_2
REMARK    2  A    between atoms: C_2  and  N_3
REMARK    3  A    between atoms: C_7  and  C_8
REMARK                            x       y       z     vdW  Elec       q    Type
REMARK                         _______ _______ _______ _____ _____    ______ ____
ROOT
ATOM      1  N   UNL     1       2.339   3.407  19.192  0.00  0.00    +0.000 N 
ATOM      2  S   UNL     1       2.191   5.088  19.365  0.00  0.00    +0.000 S 
ATOM      3  C   UNL     1       3.320   5.330  18.079  0.00  0.00    +0.000 A 
ATOM      4 CL   UNL     1       3.787   6.915  17.631  0.00  0.00    +0.000 Cl
ATOM      5  C   UNL     1       3.779   4.209  17.508  0.00  0.00    +0.000 A 
ATOM      6  C   UNL     1       4.743   4.023  16.394  0.00  0.00    +0.000 C 
ATOM      7  C   UNL     1       3.198   3.014  18.181  0.00  0.00    +0.000 A 
ATOM      8  O   UNL     1       3.480   1.872  17.864  0.00  0.00    +0.000 OA
ENDROOT
BRANCH   1  10
ATOM      9  C   UNL     1       1.867   2.916  21.568  0.00  0.00    +0.000 C 
ATOM     10  C   UNL     1       1.696   2.494  20.115  0.00  0.00    +0.000 C 
ENDBRANCH   1  10
TORSDOF 1
ENDMDL
MODEL 8
REMARK VINA RESULT:      -4.5      2.394      3.673
REMARK  Name = 
REMARK  3 active torsions:
REMARK  status: ('A' for Active; 'I' for Inactive)
REMARK    1  A    between atoms: C_1  and  C_2
REMARK    2  A    between atoms: C_2  and  N_3
REMARK    3  A    between atoms: C_7  and  C_8
REMARK                            x       y       z     vdW  Elec       q    Type
REMARK                         _______ _______ _______ _____ _____    ______ ____
ROOT
ATOM      1  N   UNL     1       6.117   6.095  17.511  0.00  0.00    +0.000 N 
ATOM      2  S   UNL     1       4.561   6.661  17.141  0.00  0.00    +0.000 S 
ATOM      3  C   UNL     1       3.863   5.332  17.999  0.00  0.00    +0.000 A 
ATOM      4 CL   UNL     1       2.163   5.143  18.055  0.00  0.00    +0.000 Cl
ATOM      5  C   UNL     1       4.743   4.502  18.572  0.00  0.00    +0.000 A 
ATOM      6  C   UNL     1       4.522   3.274  19.376  0.00  0.00    +0.000 C 
ATOM      7  C   UNL     1       6.134   4.944  18.278  0.00  0.00    +0.000 A 
ATOM      8  O   UNL     1       7.119   4.339  18.665  0.00  0.00    +0.000 OA
ENDROOT
BRANCH   1  10
ATOM      9  C   UNL     1       7.760   7.924  17.769  0.00  0.00    +0.000 C 
ATOM     10  C   UNL     1       7.299   6.722  16.956  0.00  0.00    +0.000 C 
ENDBRANCH   1  10
TORSDOF 1
ENDMDL
MODEL 9
REMARK VINA RESULT:      -4.5      3.005      3.744
REMARK  Name = 
REMARK  3 active torsions:
REMARK  status: ('A' for Active; 'I' for Inactive)
REMARK    1  A    between atoms: C_1  and  C_2
REMARK    2  A    between atoms: C_2  and  N_3
REMARK    3  A    between atoms: C_7  and  C_8
REMARK                            x       y       z     vdW  Elec       q    Type
REMARK                         _______ _______ _______ _____ _____    ______ ____
ROOT
ATOM      1  N   UNL     1       2.328   3.956  19.046  0.00  0.00    +0.000 N 
ATOM      2  S   UNL     1       3.440   4.768  20.038  0.00  0.00    +0.000 S 
ATOM      3  C   UNL     1       4.588   4.795  18.745  0.00  0.00    +0.000 A 
ATOM      4 CL   UNL     1       6.142   5.470  18.990  0.00  0.00    +0.000 Cl
ATOM      5  C   UNL     1       4.164   4.250  17.598  0.00  0.00    +0.000 A 
ATOM      6  C   UNL     1       4.858   4.094  16.295  0.00  0.00    +0.000 C 
ATOM      7  C   UNL     1       2.782   3.719  17.761  0.00  0.00    +0.000 A 
ATOM      8  O   UNL     1       2.181   3.149  16.867  0.00  0.00    +0.000 OA
ENDROOT
BRANCH   1  10
ATOM      9  C   UNL     1       1.193   2.931  20.987  0.00  0.00    +0.000 C 
ATOM     10  C   UNL     1       1.068   3.468  19.568  0.00  0.00    +0.000 C 
ENDBRANCH   1  10
TORSDOF 1
ENDMDL
