MODEL 1
REMARK VINA RESULT:      -7.3      0.000      0.000
REMARK  Name = 
REMARK  17 active torsions:
REMARK  status: ('A' for Active; 'I' for Inactive)
REMARK    1  A    between atoms: C_1  and  C_2
REMARK    2  A    between atoms: C_2  and  O_3
REMARK    3  A    between atoms: O_3  and  C_4
REMARK    4  A    between atoms: C_4  and  C_6
REMARK    5  A    between atoms: C_7  and  C_8
REMARK    6  A    between atoms: C_10  and  C_11
REMARK    7  A    between atoms: C_13  and  O_14
REMARK    8  A    between atoms: C_13  and  O_15
REMARK    9  A    between atoms: O_15  and  C_16
REMARK   10  A    between atoms: C_16  and  C_17
REMARK   11  A    between atoms: C_18  and  C_19
REMARK   12  A    between atoms: C_20  and  C_21
REMARK   13  A    between atoms: C_24  and  C_25
REMARK   14  A    between atoms: C_25  and  C_26
REMARK   15  A    between atoms: C_26  and  C_27
REMARK   16  A    between atoms: C_31  and  O_32
REMARK   17  A    between atoms: O_32  and  C_33
REMARK                            x       y       z     vdW  Elec       q    Type
REMARK                         _______ _______ _______ _____ _____    ______ ____
ROOT
ATOM      1  C   UNL     1      -0.260  10.310  21.005  0.00  0.00    +0.000 C 
ATOM      2  C   UNL     1      -0.984  11.127  21.798  0.00  0.00    +0.000 C 
ATOM      3  C   UNL     1      -0.866  11.258  23.300  0.00  0.00    +0.000 C 
ATOM      4  N   UNL     1      -1.969  11.947  21.308  0.00  0.00    +0.000 NA
ATOM      5  C   UNL     1      -2.318  11.928  20.062  0.00  0.00    +0.000 C 
ATOM      6  C   UNL     1      -3.491  12.829  19.724  0.00  0.00    +0.000 C 
ATOM      7  C   UNL     1      -1.655  11.094  18.999  0.00  0.00    +0.000 C 
ATOM      8  C   UNL     1      -2.088  11.028  17.717  0.00  0.00    +0.000 C 
ATOM      9  C   UNL     1      -0.470  10.286  19.509  0.00  0.00    +0.000 C 
ENDROOT
BRANCH   9  10
ATOM     10  C   UNL     1       0.806  10.680  18.791  0.00  0.00    +0.000 A 
ATOM     11  C   UNL     1       1.410  11.978  18.760  0.00  0.00    +0.000 A 
ATOM     12  C   UNL     1       0.979  13.249  19.394  0.00  0.00    +0.000 C 
ATOM     13  N   UNL     1       2.555  11.961  18.075  0.00  0.00    +0.000 NA
ATOM     14  O   UNL     1       2.712  10.674  17.629  0.00  0.00    +0.000 OA
ATOM     15  C   UNL     1       1.680   9.895  18.055  0.00  0.00    +0.000 A 
BRANCH  15  16
ATOM     16  C   UNL     1       1.738   8.445  17.672  0.00  0.00    +0.000 C 
BRANCH  16  17
ATOM     17  C   UNL     1       3.172   7.893  17.717  0.00  0.00    +0.000 C 
BRANCH  17  18
ATOM     18  C   UNL     1       3.405   6.406  17.585  0.00  0.00    +0.000 A 
ATOM     19  C   UNL     1       4.641   5.818  17.308  0.00  0.00    +0.000 A 
ATOM     20  C   UNL     1       4.744   4.429  17.183  0.00  0.00    +0.000 A 
ATOM     21  C   UNL     1       3.616   3.620  17.336  0.00  0.00    +0.000 A 
ATOM     22  C   UNL     1       2.375   4.185  17.623  0.00  0.00    +0.000 A 
ATOM     23  C   UNL     1       2.279   5.571  17.752  0.00  0.00    +0.000 A 
BRANCH  22  24
ATOM     24  O   UNL     1       1.345   3.293  17.746  0.00  0.00    +0.000 OA
ATOM     25  C   UNL     1       1.454   2.327  18.787  0.00  0.00    +0.000 C 
ENDBRANCH  22  24
ENDBRANCH  17  18
ENDBRANCH  16  17
ENDBRANCH  15  16
ENDBRANCH   9  10
BRANCH   1  26
ATOM     26  C   UNL     1       0.771   9.377  21.563  0.00  0.00    +0.000 C 
ATOM     27  O   UNL     1       1.681   9.684  22.310  0.00  0.00    +0.000 OA
BRANCH  26  28
ATOM     28  O   UNL     1       0.541   8.120  21.098  0.00  0.00    +0.000 OA
BRANCH  28  30
ATOM     29  C   UNL     1       1.237   5.841  20.816  0.00  0.00    +0.000 C 
ATOM     30  C   UNL     1       1.696   7.280  20.936  0.00  0.00    +0.000 C 
ENDBRANCH  28  30
ENDBRANCH  26  28
ENDBRANCH   1  26
BRANCH   8  31
ATOM     31  O   UNL     1      -1.488  10.191  16.795  0.00  0.00    +0.000 OA
ATOM     32  H   UNL     1      -0.525  10.320  16.838  0.00  0.00    +0.000 HD
ENDBRANCH   8  31
BRANCH   8  33
ATOM     33  O   UNL     1      -3.183  11.739  17.281  0.00  0.00    +0.000 OA
BRANCH  33  34
ATOM     34  C   UNL     1      -4.186  10.928  16.661  0.00  0.00    +0.000 C 
ATOM     35  C   UNL     1      -5.512  11.212  17.344  0.00  0.00    +0.000 C 
ENDBRANCH  33  34
ENDBRANCH   8  33
TORSDOF 11
ENDMDL
MODEL 2
REMARK VINA RESULT:      -7.1      0.987      1.659
REMARK  Name = 
REMARK  17 active torsions:
REMARK  status: ('A' for Active; 'I' for Inactive)
REMARK    1  A    between atoms: C_1  and  C_2
REMARK    2  A    between atoms: C_2  and  O_3
REMARK    3  A    between atoms: O_3  and  C_4
REMARK    4  A    between atoms: C_4  and  C_6
REMARK    5  A    between atoms: C_7  and  C_8
REMARK    6  A    between atoms: C_10  and  C_11
REMARK    7  A    between atoms: C_13  and  O_14
REMARK    8  A    between atoms: C_13  and  O_15
REMARK    9  A    between atoms: O_15  and  C_16
REMARK   10  A    between atoms: C_16  and  C_17
REMARK   11  A    between atoms: C_18  and  C_19
REMARK   12  A    between atoms: C_20  and  C_21
REMARK   13  A    between atoms: C_24  and  C_25
REMARK   14  A    between atoms: C_25  and  C_26
REMARK   15  A    between atoms: C_26  and  C_27
REMARK   16  A    between atoms: C_31  and  O_32
REMARK   17  A    between atoms: O_32  and  C_33
REMARK                            x       y       z     vdW  Elec       q    Type
REMARK                         _______ _______ _______ _____ _____    ______ ____
ROOT
ATOM      1  C   UNL     1      -0.310  10.435  21.007  0.00  0.00    +0.000 C 
ATOM      2  C   UNL     1      -1.046  11.262  21.779  0.00  0.00    +0.000 C 
ATOM      3  C   UNL     1      -0.937  11.424  23.279  0.00  0.00    +0.000 C 
ATOM      4  N   UNL     1      -2.034  12.064  21.268  0.00  0.00    +0.000 NA
ATOM      5  C   UNL     1      -2.376  12.018  20.020  0.00  0.00    +0.000 C 
ATOM      6  C   UNL     1      -3.554  12.903  19.658  0.00  0.00    +0.000 C 
ATOM      7  C   UNL     1      -1.700  11.168  18.978  0.00  0.00    +0.000 C 
ATOM      8  C   UNL     1      -2.125  11.074  17.694  0.00  0.00    +0.000 C 
ATOM      9  C   UNL     1      -0.512  10.380  19.510  0.00  0.00    +0.000 C 
ENDROOT
BRANCH   9  10
ATOM     10  C   UNL     1       0.765  10.770  18.792  0.00  0.00    +0.000 A 
ATOM     11  C   UNL     1       1.370  12.067  18.754  0.00  0.00    +0.000 A 
ATOM     12  C   UNL     1       0.938  13.342  19.379  0.00  0.00    +0.000 C 
ATOM     13  N   UNL     1       2.516  12.046  18.070  0.00  0.00    +0.000 NA
ATOM     14  O   UNL     1       2.673  10.756  17.632  0.00  0.00    +0.000 OA
ATOM     15  C   UNL     1       1.640   9.980  18.061  0.00  0.00    +0.000 A 
BRANCH  15  16
ATOM     16  C   UNL     1       1.698   8.528  17.688  0.00  0.00    +0.000 C 
BRANCH  16  17
ATOM     17  C   UNL     1       3.106   7.940  17.877  0.00  0.00    +0.000 C 
BRANCH  17  18
ATOM     18  C   UNL     1       3.324   6.454  17.709  0.00  0.00    +0.000 A 
ATOM     19  C   UNL     1       2.319   5.488  17.804  0.00  0.00    +0.000 A 
ATOM     20  C   UNL     1       2.632   4.134  17.654  0.00  0.00    +0.000 A 
ATOM     21  C   UNL     1       3.947   3.735  17.408  0.00  0.00    +0.000 A 
ATOM     22  C   UNL     1       4.964   4.682  17.298  0.00  0.00    +0.000 A 
ATOM     23  C   UNL     1       4.645   6.032  17.442  0.00  0.00    +0.000 A 
BRANCH  22  24
ATOM     24  O   UNL     1       6.211   4.171  17.059  0.00  0.00    +0.000 OA
ATOM     25  C   UNL     1       7.311   5.058  17.231  0.00  0.00    +0.000 C 
ENDBRANCH  22  24
ENDBRANCH  17  18
ENDBRANCH  16  17
ENDBRANCH  15  16
ENDBRANCH   9  10
BRANCH   1  26
ATOM     26  C   UNL     1       0.724   9.522  21.589  0.00  0.00    +0.000 C 
ATOM     27  O   UNL     1       1.637   9.852  22.321  0.00  0.00    +0.000 OA
BRANCH  26  28
ATOM     28  O   UNL     1       0.493   8.250  21.165  0.00  0.00    +0.000 OA
BRANCH  28  30
ATOM     29  C   UNL     1       1.163   5.977  20.789  0.00  0.00    +0.000 C 
ATOM     30  C   UNL     1       1.635   7.378  21.117  0.00  0.00    +0.000 C 
ENDBRANCH  28  30
ENDBRANCH  26  28
ENDBRANCH   1  26
BRANCH   8  31
ATOM     31  O   UNL     1      -1.513  10.223  16.793  0.00  0.00    +0.000 OA
ATOM     32  H   UNL     1      -2.201   9.740  16.306  0.00  0.00    +0.000 HD
ENDBRANCH   8  31
BRANCH   8  33
ATOM     33  O   UNL     1      -3.223  11.767  17.239  0.00  0.00    +0.000 OA
BRANCH  33  34
ATOM     34  C   UNL     1      -4.233  10.933  16.664  0.00  0.00    +0.000 C 
ATOM     35  C   UNL     1      -5.316  10.715  17.706  0.00  0.00    +0.000 C 
ENDBRANCH  33  34
ENDBRANCH   8  33
TORSDOF 11
ENDMDL
MODEL 3
REMARK VINA RESULT:      -7.1      1.489      2.017
REMARK  Name = 
REMARK  17 active torsions:
REMARK  status: ('A' for Active; 'I' for Inactive)
REMARK    1  A    between atoms: C_1  and  C_2
REMARK    2  A    between atoms: C_2  and  O_3
REMARK    3  A    between atoms: O_3  and  C_4
REMARK    4  A    between atoms: C_4  and  C_6
REMARK    5  A    between atoms: C_7  and  C_8
REMARK    6  A    between atoms: C_10  and  C_11
REMARK    7  A    between atoms: C_13  and  O_14
REMARK    8  A    between atoms: C_13  and  O_15
REMARK    9  A    between atoms: O_15  and  C_16
REMARK   10  A    between atoms: C_16  and  C_17
REMARK   11  A    between atoms: C_18  and  C_19
REMARK   12  A    between atoms: C_20  and  C_21
REMARK   13  A    between atoms: C_24  and  C_25
REMARK   14  A    between atoms: C_25  and  C_26
REMARK   15  A    between atoms: C_26  and  C_27
REMARK   16  A    between atoms: C_31  and  O_32
REMARK   17  A    between atoms: O_32  and  C_33
REMARK                            x       y       z     vdW  Elec       q    Type
REMARK                         _______ _______ _______ _____ _____    ______ ____
ROOT
ATOM      1  C   UNL     1      -1.544  11.802  20.925  0.00  0.00    +0.000 C 
ATOM      2  C   UNL     1      -2.653  12.557  21.073  0.00  0.00    +0.000 C 
ATOM      3  C   UNL     1      -3.047  13.342  22.304  0.00  0.00    +0.000 C 
ATOM      4  N   UNL     1      -3.598  12.679  20.087  0.00  0.00    +0.000 NA
ATOM      5  C   UNL     1      -3.523  12.013  18.980  0.00  0.00    +0.000 C 
ATOM      6  C   UNL     1      -4.708  12.200  18.052  0.00  0.00    +0.000 C 
ATOM      7  C   UNL     1      -2.381  11.108  18.601  0.00  0.00    +0.000 C 
ATOM      8  C   UNL     1      -2.360  10.358  17.473  0.00  0.00    +0.000 C 
ATOM      9  C   UNL     1      -1.261  11.075  19.631  0.00  0.00    +0.000 C 
ENDROOT
BRANCH   9  10
ATOM     10  C   UNL     1       0.044  11.559  19.029  0.00  0.00    +0.000 A 
ATOM     11  C   UNL     1       0.356  12.891  18.605  0.00  0.00    +0.000 A 
ATOM     12  C   UNL     1      -0.473  14.121  18.633  0.00  0.00    +0.000 C 
ATOM     13  N   UNL     1       1.614  12.977  18.169  0.00  0.00    +0.000 NA
ATOM     14  O   UNL     1       2.140  11.715  18.275  0.00  0.00    +0.000 OA
ATOM     15  C   UNL     1       1.218  10.858  18.794  0.00  0.00    +0.000 A 
BRANCH  15  16
ATOM     16  C   UNL     1       1.668   9.443  19.004  0.00  0.00    +0.000 C 
BRANCH  16  17
ATOM     17  C   UNL     1       2.072   8.764  17.685  0.00  0.00    +0.000 C 
BRANCH  17  18
ATOM     18  C   UNL     1       2.847   7.468  17.718  0.00  0.00    +0.000 A 
ATOM     19  C   UNL     1       4.183   7.331  17.336  0.00  0.00    +0.000 A 
ATOM     20  C   UNL     1       4.801   6.078  17.384  0.00  0.00    +0.000 A 
ATOM     21  C   UNL     1       4.091   4.955  17.814  0.00  0.00    +0.000 A 
ATOM     22  C   UNL     1       2.760   5.070  18.210  0.00  0.00    +0.000 A 
ATOM     23  C   UNL     1       2.150   6.324  18.166  0.00  0.00    +0.000 A 
BRANCH  22  24
ATOM     24  O   UNL     1       2.169   3.902  18.608  0.00  0.00    +0.000 OA
ATOM     25  C   UNL     1       2.368   2.766  17.773  0.00  0.00    +0.000 C 
ENDBRANCH  22  24
ENDBRANCH  17  18
ENDBRANCH  16  17
ENDBRANCH  15  16
ENDBRANCH   9  10
BRANCH   1  26
ATOM     26  C   UNL     1      -0.551  11.630  22.033  0.00  0.00    +0.000 C 
ATOM     27  O   UNL     1       0.404  12.350  22.254  0.00  0.00    +0.000 OA
BRANCH  26  28
ATOM     28  O   UNL     1      -0.876  10.529  22.764  0.00  0.00    +0.000 OA
BRANCH  28  30
ATOM     29  C   UNL     1       1.070   9.146  22.523  0.00  0.00    +0.000 C 
ATOM     30  C   UNL     1      -0.415   9.268  22.252  0.00  0.00    +0.000 C 
ENDBRANCH  28  30
ENDBRANCH  26  28
ENDBRANCH   1  26
BRANCH   8  31
ATOM     31  O   UNL     1      -1.320   9.487  17.205  0.00  0.00    +0.000 OA
ATOM     32  H   UNL     1      -1.563   8.604  17.529  0.00  0.00    +0.000 HD
ENDBRANCH   8  31
BRANCH   8  33
ATOM     33  O   UNL     1      -3.398  10.373  16.569  0.00  0.00    +0.000 OA
BRANCH  33  34
ATOM     34  C   UNL     1      -3.049  10.939  15.301  0.00  0.00    +0.000 C 
ATOM     35  C   UNL     1      -3.378   9.920  14.223  0.00  0.00    +0.000 C 
ENDBRANCH  33  34
ENDBRANCH   8  33
TORSDOF 11
ENDMDL
MODEL 4
REMARK VINA RESULT:      -7.1      2.076      4.590
REMARK  Name = 
REMARK  17 active torsions:
REMARK  status: ('A' for Active; 'I' for Inactive)
REMARK    1  A    between atoms: C_1  and  C_2
REMARK    2  A    between atoms: C_2  and  O_3
REMARK    3  A    between atoms: O_3  and  C_4
REMARK    4  A    between atoms: C_4  and  C_6
REMARK    5  A    between atoms: C_7  and  C_8
REMARK    6  A    between atoms: C_10  and  C_11
REMARK    7  A    between atoms: C_13  and  O_14
REMARK    8  A    between atoms: C_13  and  O_15
REMARK    9  A    between atoms: O_15  and  C_16
REMARK   10  A    between atoms: C_16  and  C_17
REMARK   11  A    between atoms: C_18  and  C_19
REMARK   12  A    between atoms: C_20  and  C_21
REMARK   13  A    between atoms: C_24  and  C_25
REMARK   14  A    between atoms: C_25  and  C_26
REMARK   15  A    between atoms: C_26  and  C_27
REMARK   16  A    between atoms: C_31  and  O_32
REMARK   17  A    between atoms: O_32  and  C_33
REMARK                            x       y       z     vdW  Elec       q    Type
REMARK                         _______ _______ _______ _____ _____    ______ ____
ROOT
ATOM      1  C   UNL     1      -1.998  11.394  18.794  0.00  0.00    +0.000 C 
ATOM      2  C   UNL     1      -2.912  12.242  19.311  0.00  0.00    +0.000 C 
ATOM      3  C   UNL     1      -4.414  12.128  19.188  0.00  0.00    +0.000 C 
ATOM      4  N   UNL     1      -2.560  13.365  20.017  0.00  0.00    +0.000 NA
ATOM      5  C   UNL     1      -1.324  13.723  20.162  0.00  0.00    +0.000 C 
ATOM      6  C   UNL     1      -1.133  15.043  20.884  0.00  0.00    +0.000 C 
ATOM      7  C   UNL     1      -0.141  12.936  19.666  0.00  0.00    +0.000 C 
ATOM      8  C   UNL     1       1.140  13.369  19.757  0.00  0.00    +0.000 C 
ATOM      9  C   UNL     1      -0.518  11.619  19.004  0.00  0.00    +0.000 C 
ENDROOT
BRANCH   9  10
ATOM     10  C   UNL     1       0.093  10.445  19.744  0.00  0.00    +0.000 A 
ATOM     11  C   UNL     1      -0.037  10.143  21.137  0.00  0.00    +0.000 A 
ATOM     12  C   UNL     1      -0.774  10.861  22.206  0.00  0.00    +0.000 C 
ATOM     13  N   UNL     1       0.590   9.006  21.446  0.00  0.00    +0.000 NA
ATOM     14  O   UNL     1       1.156   8.556  20.280  0.00  0.00    +0.000 OA
ATOM     15  C   UNL     1       0.862   9.399  19.253  0.00  0.00    +0.000 A 
BRANCH  15  16
ATOM     16  C   UNL     1       1.385   9.012  17.901  0.00  0.00    +0.000 C 
BRANCH  16  17
ATOM     17  C   UNL     1       2.865   8.596  17.954  0.00  0.00    +0.000 C 
BRANCH  17  18
ATOM     18  C   UNL     1       3.246   7.155  17.705  0.00  0.00    +0.000 A 
ATOM     19  C   UNL     1       2.479   6.053  18.090  0.00  0.00    +0.000 A 
ATOM     20  C   UNL     1       2.934   4.758  17.831  0.00  0.00    +0.000 A 
ATOM     21  C   UNL     1       4.156   4.553  17.185  0.00  0.00    +0.000 A 
ATOM     22  C   UNL     1       4.932   5.638  16.782  0.00  0.00    +0.000 A 
ATOM     23  C   UNL     1       4.470   6.929  17.038  0.00  0.00    +0.000 A 
BRANCH  22  24
ATOM     24  O   UNL     1       6.109   5.313  16.164  0.00  0.00    +0.000 OA
ATOM     25  C   UNL     1       7.033   4.531  16.913  0.00  0.00    +0.000 C 
ENDBRANCH  22  24
ENDBRANCH  17  18
ENDBRANCH  16  17
ENDBRANCH  15  16
ENDBRANCH   9  10
BRANCH   1  26
ATOM     26  C   UNL     1      -2.397  10.205  17.975  0.00  0.00    +0.000 C 
ATOM     27  O   UNL     1      -3.023   9.242  18.374  0.00  0.00    +0.000 OA
BRANCH  26  28
ATOM     28  O   UNL     1      -1.942  10.361  16.702  0.00  0.00    +0.000 OA
BRANCH  28  30
ATOM     29  C   UNL     1      -3.064  10.048  14.605  0.00  0.00    +0.000 C 
ATOM     30  C   UNL     1      -2.847  10.984  15.776  0.00  0.00    +0.000 C 
ENDBRANCH  28  30
ENDBRANCH  26  28
ENDBRANCH   1  26
BRANCH   8  31
ATOM     31  O   UNL     1       2.187  12.642  19.222  0.00  0.00    +0.000 OA
ATOM     32  H   UNL     1       2.986  13.195  19.230  0.00  0.00    +0.000 HD
ENDBRANCH   8  31
BRANCH   8  33
ATOM     33  O   UNL     1       1.461  14.580  20.328  0.00  0.00    +0.000 OA
BRANCH  33  34
ATOM     34  C   UNL     1       2.572  15.233  19.707  0.00  0.00    +0.000 C 
ATOM     35  C   UNL     1       2.032  16.329  18.805  0.00  0.00    +0.000 C 
ENDBRANCH  33  34
ENDBRANCH   8  33
TORSDOF 11
ENDMDL
MODEL 5
REMARK VINA RESULT:      -7.0      1.019      1.178
REMARK  Name = 
REMARK  17 active torsions:
REMARK  status: ('A' for Active; 'I' for Inactive)
REMARK    1  A    between atoms: C_1  and  C_2
REMARK    2  A    between atoms: C_2  and  O_3
REMARK    3  A    between atoms: O_3  and  C_4
REMARK    4  A    between atoms: C_4  and  C_6
REMARK    5  A    between atoms: C_7  and  C_8
REMARK    6  A    between atoms: C_10  and  C_11
REMARK    7  A    between atoms: C_13  and  O_14
REMARK    8  A    between atoms: C_13  and  O_15
REMARK    9  A    between atoms: O_15  and  C_16
REMARK   10  A    between atoms: C_16  and  C_17
REMARK   11  A    between atoms: C_18  and  C_19
REMARK   12  A    between atoms: C_20  and  C_21
REMARK   13  A    between atoms: C_24  and  C_25
REMARK   14  A    between atoms: C_25  and  C_26
REMARK   15  A    between atoms: C_26  and  C_27
REMARK   16  A    between atoms: C_31  and  O_32
REMARK   17  A    between atoms: O_32  and  C_33
REMARK                            x       y       z     vdW  Elec       q    Type
REMARK                         _______ _______ _______ _____ _____    ______ ____
ROOT
ATOM      1  C   UNL     1      -0.717  10.957  20.938  0.00  0.00    +0.000 C 
ATOM      2  C   UNL     1      -1.656  11.798  21.420  0.00  0.00    +0.000 C 
ATOM      3  C   UNL     1      -1.755  12.315  22.837  0.00  0.00    +0.000 C 
ATOM      4  N   UNL     1      -2.684  12.277  20.648  0.00  0.00    +0.000 NA
ATOM      5  C   UNL     1      -2.861  11.887  19.426  0.00  0.00    +0.000 C 
ATOM      6  C   UNL     1      -4.105  12.446  18.763  0.00  0.00    +0.000 C 
ATOM      7  C   UNL     1      -1.944  10.952  18.684  0.00  0.00    +0.000 C 
ATOM      8  C   UNL     1      -2.191  10.494  17.433  0.00  0.00    +0.000 C 
ATOM      9  C   UNL     1      -0.725  10.526  19.489  0.00  0.00    +0.000 C 
ENDROOT
BRANCH   9  10
ATOM     10  C   UNL     1       0.557  10.957  18.804  0.00  0.00    +0.000 A 
ATOM     11  C   UNL     1       1.064  12.291  18.688  0.00  0.00    +0.000 A 
ATOM     12  C   UNL     1       0.506  13.573  19.185  0.00  0.00    +0.000 C 
ATOM     13  N   UNL     1       2.244  12.307  18.065  0.00  0.00    +0.000 NA
ATOM     14  O   UNL     1       2.521  11.002  17.743  0.00  0.00    +0.000 OA
ATOM     15  C   UNL     1       1.527  10.184  18.184  0.00  0.00    +0.000 A 
BRANCH  15  16
ATOM     16  C   UNL     1       1.713   8.716  17.935  0.00  0.00    +0.000 C 
BRANCH  16  17
ATOM     17  C   UNL     1       3.196   8.341  17.782  0.00  0.00    +0.000 C 
BRANCH  17  18
ATOM     18  C   UNL     1       3.581   6.901  17.531  0.00  0.00    +0.000 A 
ATOM     19  C   UNL     1       4.684   6.493  16.778  0.00  0.00    +0.000 A 
ATOM     20  C   UNL     1       4.938   5.132  16.588  0.00  0.00    +0.000 A 
ATOM     21  C   UNL     1       4.095   4.170  17.148  0.00  0.00    +0.000 A 
ATOM     22  C   UNL     1       2.995   4.554  17.913  0.00  0.00    +0.000 A 
ATOM     23  C   UNL     1       2.750   5.914  18.104  0.00  0.00    +0.000 A 
BRANCH  22  24
ATOM     24  O   UNL     1       2.242   3.523  18.406  0.00  0.00    +0.000 OA
ATOM     25  C   UNL     1       2.419   2.250  17.794  0.00  0.00    +0.000 C 
ENDBRANCH  22  24
ENDBRANCH  17  18
ENDBRANCH  16  17
ENDBRANCH  15  16
ENDBRANCH   9  10
BRANCH   1  26
ATOM     26  C   UNL     1       0.365  10.396  21.809  0.00  0.00    +0.000 C 
ATOM     27  O   UNL     1       1.480  10.860  21.950  0.00  0.00    +0.000 OA
BRANCH  26  28
ATOM     28  O   UNL     1      -0.090   9.270  22.423  0.00  0.00    +0.000 OA
BRANCH  28  30
ATOM     29  C   UNL     1       1.097   7.569  21.216  0.00  0.00    +0.000 C 
ATOM     30  C   UNL     1      -0.267   8.116  21.585  0.00  0.00    +0.000 C 
ENDBRANCH  28  30
ENDBRANCH  26  28
ENDBRANCH   1  26
BRANCH   8  31
ATOM     31  O   UNL     1      -1.355   9.579  16.821  0.00  0.00    +0.000 OA
ATOM     32  H   UNL     1      -0.548  10.039  16.536  0.00  0.00    +0.000 HD
ENDBRANCH   8  31
BRANCH   8  33
ATOM     33  O   UNL     1      -3.317  10.862  16.732  0.00  0.00    +0.000 OA
BRANCH  33  34
ATOM     34  C   UNL     1      -3.077  11.105  15.342  0.00  0.00    +0.000 C 
ATOM     35  C   UNL     1      -3.791  10.029  14.544  0.00  0.00    +0.000 C 
ENDBRANCH  33  34
ENDBRANCH   8  33
TORSDOF 11
ENDMDL
MODEL 6
REMARK VINA RESULT:      -6.9      1.847      4.389
REMARK  Name = 
REMARK  17 active torsions:
REMARK  status: ('A' for Active; 'I' for Inactive)
REMARK    1  A    between atoms: C_1  and  C_2
REMARK    2  A    between atoms: C_2  and  O_3
REMARK    3  A    between atoms: O_3  and  C_4
REMARK    4  A    between atoms: C_4  and  C_6
REMARK    5  A    between atoms: C_7  and  C_8
REMARK    6  A    between atoms: C_10  and  C_11
REMARK    7  A    between atoms: C_13  and  O_14
REMARK    8  A    between atoms: C_13  and  O_15
REMARK    9  A    between atoms: O_15  and  C_16
REMARK   10  A    between atoms: C_16  and  C_17
REMARK   11  A    between atoms: C_18  and  C_19
REMARK   12  A    between atoms: C_20  and  C_21
REMARK   13  A    between atoms: C_24  and  C_25
REMARK   14  A    between atoms: C_25  and  C_26
REMARK   15  A    between atoms: C_26  and  C_27
REMARK   16  A    between atoms: C_31  and  O_32
REMARK   17  A    between atoms: O_32  and  C_33
REMARK                            x       y       z     vdW  Elec       q    Type
REMARK                         _______ _______ _______ _____ _____    ______ ____
ROOT
ATOM      1  C   UNL     1      -1.935  11.329  18.783  0.00  0.00    +0.000 C 
ATOM      2  C   UNL     1      -2.844  12.177  19.307  0.00  0.00    +0.000 C 
ATOM      3  C   UNL     1      -4.347  12.070  19.188  0.00  0.00    +0.000 C 
ATOM      4  N   UNL     1      -2.485  13.295  20.017  0.00  0.00    +0.000 NA
ATOM      5  C   UNL     1      -1.248  13.647  20.160  0.00  0.00    +0.000 C 
ATOM      6  C   UNL     1      -1.049  14.963  20.888  0.00  0.00    +0.000 C 
ATOM      7  C   UNL     1      -0.069  12.858  19.656  0.00  0.00    +0.000 C 
ATOM      8  C   UNL     1       1.214  13.285  19.745  0.00  0.00    +0.000 C 
ATOM      9  C   UNL     1      -0.454  11.546  18.988  0.00  0.00    +0.000 C 
ENDROOT
BRANCH   9  10
ATOM     10  C   UNL     1       0.155  10.366  19.720  0.00  0.00    +0.000 A 
ATOM     11  C   UNL     1       0.018  10.050  21.110  0.00  0.00    +0.000 A 
ATOM     12  C   UNL     1      -0.727  10.757  22.182  0.00  0.00    +0.000 C 
ATOM     13  N   UNL     1       0.644   8.911  21.411  0.00  0.00    +0.000 NA
ATOM     14  O   UNL     1       1.217   8.473  20.244  0.00  0.00    +0.000 OA
ATOM     15  C   UNL     1       0.928   9.326  19.224  0.00  0.00    +0.000 A 
BRANCH  15  16
ATOM     16  C   UNL     1       1.460   8.952  17.872  0.00  0.00    +0.000 C 
BRANCH  16  17
ATOM     17  C   UNL     1       2.930   8.506  17.934  0.00  0.00    +0.000 C 
BRANCH  17  18
ATOM     18  C   UNL     1       3.283   7.058  17.685  0.00  0.00    +0.000 A 
ATOM     19  C   UNL     1       4.474   6.619  17.103  0.00  0.00    +0.000 A 
ATOM     20  C   UNL     1       4.692   5.254  16.897  0.00  0.00    +0.000 A 
ATOM     21  C   UNL     1       3.725   4.319  17.270  0.00  0.00    +0.000 A 
ATOM     22  C   UNL     1       2.533   4.734  17.863  0.00  0.00    +0.000 A 
ATOM     23  C   UNL     1       2.323   6.097  18.072  0.00  0.00    +0.000 A 
BRANCH  22  24
ATOM     24  O   UNL     1       1.662   3.728  18.182  0.00  0.00    +0.000 OA
ATOM     25  C   UNL     1       2.144   2.395  18.047  0.00  0.00    +0.000 C 
ENDBRANCH  22  24
ENDBRANCH  17  18
ENDBRANCH  16  17
ENDBRANCH  15  16
ENDBRANCH   9  10
BRANCH   1  26
ATOM     26  C   UNL     1      -2.342  10.145  17.959  0.00  0.00    +0.000 C 
ATOM     27  O   UNL     1      -3.002   9.200  18.346  0.00  0.00    +0.000 OA
BRANCH  26  28
ATOM     28  O   UNL     1      -1.850  10.283  16.698  0.00  0.00    +0.000 OA
BRANCH  28  30
ATOM     29  C   UNL     1      -3.330  10.035  14.826  0.00  0.00    +0.000 C 
ATOM     30  C   UNL     1      -2.670  11.016  15.772  0.00  0.00    +0.000 C 
ENDBRANCH  28  30
ENDBRANCH  26  28
ENDBRANCH   1  26
BRANCH   8  31
ATOM     31  O   UNL     1       2.256  12.557  19.202  0.00  0.00    +0.000 OA
ATOM     32  H   UNL     1       2.422  11.784  19.768  0.00  0.00    +0.000 HD
ENDBRANCH   8  31
BRANCH   8  33
ATOM     33  O   UNL     1       1.541  14.492  20.321  0.00  0.00    +0.000 OA
BRANCH  33  34
ATOM     34  C   UNL     1       2.642  14.416  21.233  0.00  0.00    +0.000 C 
ATOM     35  C   UNL     1       3.179  15.820  21.444  0.00  0.00    +0.000 C 
ENDBRANCH  33  34
ENDBRANCH   8  33
TORSDOF 11
ENDMDL
MODEL 7
REMARK VINA RESULT:      -6.8      1.813      2.603
REMARK  Name = 
REMARK  17 active torsions:
REMARK  status: ('A' for Active; 'I' for Inactive)
REMARK    1  A    between atoms: C_1  and  C_2
REMARK    2  A    between atoms: C_2  and  O_3
REMARK    3  A    between atoms: O_3  and  C_4
REMARK    4  A    between atoms: C_4  and  C_6
REMARK    5  A    between atoms: C_7  and  C_8
REMARK    6  A    between atoms: C_10  and  C_11
REMARK    7  A    between atoms: C_13  and  O_14
REMARK    8  A    between atoms: C_13  and  O_15
REMARK    9  A    between atoms: O_15  and  C_16
REMARK   10  A    between atoms: C_16  and  C_17
REMARK   11  A    between atoms: C_18  and  C_19
REMARK   12  A    between atoms: C_20  and  C_21
REMARK   13  A    between atoms: C_24  and  C_25
REMARK   14  A    between atoms: C_25  and  C_26
REMARK   15  A    between atoms: C_26  and  C_27
REMARK   16  A    between atoms: C_31  and  O_32
REMARK   17  A    between atoms: O_32  and  C_33
REMARK                            x       y       z     vdW  Elec       q    Type
REMARK                         _______ _______ _______ _____ _____    ______ ____
ROOT
ATOM      1  C   UNL     1      -1.441  12.038  21.012  0.00  0.00    +0.000 C 
ATOM      2  C   UNL     1      -2.577  12.756  21.125  0.00  0.00    +0.000 C 
ATOM      3  C   UNL     1      -2.993  13.600  22.308  0.00  0.00    +0.000 C 
ATOM      4  N   UNL     1      -3.535  12.781  20.142  0.00  0.00    +0.000 NA
ATOM      5  C   UNL     1      -3.442  12.051  19.077  0.00  0.00    +0.000 C 
ATOM      6  C   UNL     1      -4.640  12.134  18.152  0.00  0.00    +0.000 C 
ATOM      7  C   UNL     1      -2.268  11.169  18.743  0.00  0.00    +0.000 C 
ATOM      8  C   UNL     1      -2.226  10.352  17.663  0.00  0.00    +0.000 C 
ATOM      9  C   UNL     1      -1.140  11.244  19.762  0.00  0.00    +0.000 C 
ENDROOT
BRANCH   9  10
ATOM     10  C   UNL     1       0.141  11.740  19.119  0.00  0.00    +0.000 A 
ATOM     11  C   UNL     1       0.417  13.069  18.664  0.00  0.00    +0.000 A 
ATOM     12  C   UNL     1      -0.433  14.285  18.692  0.00  0.00    +0.000 C 
ATOM     13  N   UNL     1       1.662  13.169  18.194  0.00  0.00    +0.000 NA
ATOM     14  O   UNL     1       2.213  11.918  18.308  0.00  0.00    +0.000 OA
ATOM     15  C   UNL     1       1.320  11.055  18.865  0.00  0.00    +0.000 A 
BRANCH  15  16
ATOM     16  C   UNL     1       1.801   9.652  19.088  0.00  0.00    +0.000 C 
BRANCH  16  17
ATOM     17  C   UNL     1       2.195   8.961  17.772  0.00  0.00    +0.000 C 
BRANCH  17  18
ATOM     18  C   UNL     1       2.798   7.576  17.806  0.00  0.00    +0.000 A 
ATOM     19  C   UNL     1       2.171   6.450  18.344  0.00  0.00    +0.000 A 
ATOM     20  C   UNL     1       2.827   5.216  18.346  0.00  0.00    +0.000 A 
ATOM     21  C   UNL     1       4.111   5.098  17.810  0.00  0.00    +0.000 A 
ATOM     22  C   UNL     1       4.752   6.206  17.258  0.00  0.00    +0.000 A 
ATOM     23  C   UNL     1       4.089   7.433  17.253  0.00  0.00    +0.000 A 
BRANCH  22  24
ATOM     24  O   UNL     1       6.007   5.968  16.768  0.00  0.00    +0.000 OA
ATOM     25  C   UNL     1       6.455   4.616  16.781  0.00  0.00    +0.000 C 
ENDBRANCH  22  24
ENDBRANCH  17  18
ENDBRANCH  16  17
ENDBRANCH  15  16
ENDBRANCH   9  10
BRANCH   1  26
ATOM     26  C   UNL     1      -0.433  11.974  22.119  0.00  0.00    +0.000 C 
ATOM     27  O   UNL     1      -0.181  12.865  22.906  0.00  0.00    +0.000 OA
BRANCH  26  28
ATOM     28  O   UNL     1       0.172  10.755  22.107  0.00  0.00    +0.000 OA
BRANCH  28  30
ATOM     29  C   UNL     1      -0.490   8.449  22.095  0.00  0.00    +0.000 C 
ATOM     30  C   UNL     1      -0.447   9.730  22.902  0.00  0.00    +0.000 C 
ENDBRANCH  28  30
ENDBRANCH  26  28
ENDBRANCH   1  26
BRANCH   8  31
ATOM     31  O   UNL     1      -1.155   9.507  17.439  0.00  0.00    +0.000 OA
ATOM     32  H   UNL     1      -0.540   9.580  18.188  0.00  0.00    +0.000 HD
ENDBRANCH   8  31
BRANCH   8  33
ATOM     33  O   UNL     1      -3.271  10.271  16.771  0.00  0.00    +0.000 OA
BRANCH  33  34
ATOM     34  C   UNL     1      -2.952   9.554  15.574  0.00  0.00    +0.000 C 
ATOM     35  C   UNL     1      -3.587  10.283  14.403  0.00  0.00    +0.000 C 
ENDBRANCH  33  34
ENDBRANCH   8  33
TORSDOF 11
ENDMDL
MODEL 8
REMARK VINA RESULT:      -6.7      1.673      2.657
REMARK  Name = 
REMARK  17 active torsions:
REMARK  status: ('A' for Active; 'I' for Inactive)
REMARK    1  A    between atoms: C_1  and  C_2
REMARK    2  A    between atoms: C_2  and  O_3
REMARK    3  A    between atoms: O_3  and  C_4
REMARK    4  A    between atoms: C_4  and  C_6
REMARK    5  A    between atoms: C_7  and  C_8
REMARK    6  A    between atoms: C_10  and  C_11
REMARK    7  A    between atoms: C_13  and  O_14
REMARK    8  A    between atoms: C_13  and  O_15
REMARK    9  A    between atoms: O_15  and  C_16
REMARK   10  A    between atoms: C_16  and  C_17
REMARK   11  A    between atoms: C_18  and  C_19
REMARK   12  A    between atoms: C_20  and  C_21
REMARK   13  A    between atoms: C_24  and  C_25
REMARK   14  A    between atoms: C_25  and  C_26
REMARK   15  A    between atoms: C_26  and  C_27
REMARK   16  A    between atoms: C_31  and  O_32
REMARK   17  A    between atoms: O_32  and  C_33
REMARK                            x       y       z     vdW  Elec       q    Type
REMARK                         _______ _______ _______ _____ _____    ______ ____
ROOT
ATOM      1  C   UNL     1      -1.383  11.974  20.902  0.00  0.00    +0.000 C 
ATOM      2  C   UNL     1      -2.576  12.563  21.127  0.00  0.00    +0.000 C 
ATOM      3  C   UNL     1      -3.008  13.261  22.397  0.00  0.00    +0.000 C 
ATOM      4  N   UNL     1      -3.583  12.570  20.195  0.00  0.00    +0.000 NA
ATOM      5  C   UNL     1      -3.476  11.941  19.068  0.00  0.00    +0.000 C 
ATOM      6  C   UNL     1      -4.725  11.977  18.208  0.00  0.00    +0.000 C 
ATOM      7  C   UNL     1      -2.242  11.213  18.607  0.00  0.00    +0.000 C 
ATOM      8  C   UNL     1      -2.179  10.494  17.460  0.00  0.00    +0.000 C 
ATOM      9  C   UNL     1      -1.073  11.319  19.576  0.00  0.00    +0.000 C 
ENDROOT
BRANCH   9  10
ATOM     10  C   UNL     1       0.116  11.993  18.920  0.00  0.00    +0.000 A 
ATOM     11  C   UNL     1       0.302  13.396  18.707  0.00  0.00    +0.000 A 
ATOM     12  C   UNL     1      -0.578  14.540  19.052  0.00  0.00    +0.000 C 
ATOM     13  N   UNL     1       1.487  13.648  18.147  0.00  0.00    +0.000 NA
ATOM     14  O   UNL     1       2.086  12.427  17.963  0.00  0.00    +0.000 OA
ATOM     15  C   UNL     1       1.284  11.430  18.426  0.00  0.00    +0.000 A 
BRANCH  15  16
ATOM     16  C   UNL     1       1.829  10.036  18.325  0.00  0.00    +0.000 C 
BRANCH  16  17
ATOM     17  C   UNL     1       1.474   9.187  19.557  0.00  0.00    +0.000 C 
BRANCH  17  18
ATOM     18  C   UNL     1       1.861   7.727  19.595  0.00  0.00    +0.000 A 
ATOM     19  C   UNL     1       1.573   6.855  20.648  0.00  0.00    +0.000 A 
ATOM     20  C   UNL     1       1.998   5.525  20.593  0.00  0.00    +0.000 A 
ATOM     21  C   UNL     1       2.711   5.056  19.489  0.00  0.00    +0.000 A 
ATOM     22  C   UNL     1       3.001   5.904  18.422  0.00  0.00    +0.000 A 
ATOM     23  C   UNL     1       2.569   7.229  18.479  0.00  0.00    +0.000 A 
BRANCH  22  24
ATOM     24  O   UNL     1       3.708   5.332  17.399  0.00  0.00    +0.000 OA
ATOM     25  C   UNL     1       4.823   4.525  17.763  0.00  0.00    +0.000 C 
ENDBRANCH  22  24
ENDBRANCH  17  18
ENDBRANCH  16  17
ENDBRANCH  15  16
ENDBRANCH   9  10
BRANCH   1  26
ATOM     26  C   UNL     1      -0.316  11.923  21.952  0.00  0.00    +0.000 C 
ATOM     27  O   UNL     1       0.764  12.479  21.899  0.00  0.00    +0.000 OA
BRANCH  26  28
ATOM     28  O   UNL     1      -0.738  11.145  22.986  0.00  0.00    +0.000 OA
BRANCH  28  30
ATOM     29  C   UNL     1       0.758   9.280  23.183  0.00  0.00    +0.000 C 
ATOM     30  C   UNL     1      -0.637   9.725  22.795  0.00  0.00    +0.000 C 
ENDBRANCH  28  30
ENDBRANCH  26  28
ENDBRANCH   1  26
BRANCH   8  31
ATOM     31  O   UNL     1      -1.044   9.784  17.115  0.00  0.00    +0.000 OA
ATOM     32  H   UNL     1      -0.896   9.879  16.160  0.00  0.00    +0.000 HD
ENDBRANCH   8  31
BRANCH   8  33
ATOM     33  O   UNL     1      -3.257  10.380  16.612  0.00  0.00    +0.000 OA
BRANCH  33  34
ATOM     34  C   UNL     1      -3.049  10.984  15.331  0.00  0.00    +0.000 C 
ATOM     35  C   UNL     1      -3.353   9.946  14.265  0.00  0.00    +0.000 C 
ENDBRANCH  33  34
ENDBRANCH   8  33
TORSDOF 11
ENDMDL
MODEL 9
REMARK VINA RESULT:      -6.7      3.056      7.581
REMARK  Name = 
REMARK  17 active torsions:
REMARK  status: ('A' for Active; 'I' for Inactive)
REMARK    1  A    between atoms: C_1  and  C_2
REMARK    2  A    between atoms: C_2  and  O_3
REMARK    3  A    between atoms: O_3  and  C_4
REMARK    4  A    between atoms: C_4  and  C_6
REMARK    5  A    between atoms: C_7  and  C_8
REMARK    6  A    between atoms: C_10  and  C_11
REMARK    7  A    between atoms: C_13  and  O_14
REMARK    8  A    between atoms: C_13  and  O_15
REMARK    9  A    between atoms: O_15  and  C_16
REMARK   10  A    between atoms: C_16  and  C_17
REMARK   11  A    between atoms: C_18  and  C_19
REMARK   12  A    between atoms: C_20  and  C_21
REMARK   13  A    between atoms: C_24  and  C_25
REMARK   14  A    between atoms: C_25  and  C_26
REMARK   15  A    between atoms: C_26  and  C_27
REMARK   16  A    between atoms: C_31  and  O_32
REMARK   17  A    between atoms: O_32  and  C_33
REMARK                            x       y       z     vdW  Elec       q    Type
REMARK                         _______ _______ _______ _____ _____    ______ ____
ROOT
ATOM      1  C   UNL     1      -1.999  11.255  18.600  0.00  0.00    +0.000 C 
ATOM      2  C   UNL     1      -2.852  12.150  19.140  0.00  0.00    +0.000 C 
ATOM      3  C   UNL     1      -4.362  12.072  19.130  0.00  0.00    +0.000 C 
ATOM      4  N   UNL     1      -2.422  13.294  19.764  0.00  0.00    +0.000 NA
ATOM      5  C   UNL     1      -1.171  13.624  19.803  0.00  0.00    +0.000 C 
ATOM      6  C   UNL     1      -0.896  14.970  20.447  0.00  0.00    +0.000 C 
ATOM      7  C   UNL     1      -0.047  12.783  19.262  0.00  0.00    +0.000 C 
ATOM      8  C   UNL     1       1.248  13.183  19.240  0.00  0.00    +0.000 C 
ATOM      9  C   UNL     1      -0.503  11.448  18.692  0.00  0.00    +0.000 C 
ENDROOT
BRANCH   9  10
ATOM     10  C   UNL     1       0.132  10.292  19.440  0.00  0.00    +0.000 A 
ATOM     11  C   UNL     1       1.150   9.408  18.957  0.00  0.00    +0.000 A 
ATOM     12  C   UNL     1       1.842   9.374  17.645  0.00  0.00    +0.000 C 
ATOM     13  N   UNL     1       1.515   8.534  19.896  0.00  0.00    +0.000 NA
ATOM     14  O   UNL     1       0.739   8.807  20.993  0.00  0.00    +0.000 OA
ATOM     15  C   UNL     1      -0.087   9.860  20.740  0.00  0.00    +0.000 A 
BRANCH  15  16
ATOM     16  C   UNL     1      -0.972  10.298  21.869  0.00  0.00    +0.000 C 
BRANCH  16  17
ATOM     17  C   UNL     1      -0.493  11.616  22.499  0.00  0.00    +0.000 C 
BRANCH  17  18
ATOM     18  C   UNL     1      -1.499  12.557  23.120  0.00  0.00    +0.000 A 
ATOM     19  C   UNL     1      -1.192  13.816  23.642  0.00  0.00    +0.000 A 
ATOM     20  C   UNL     1      -2.197  14.600  24.217  0.00  0.00    +0.000 A 
ATOM     21  C   UNL     1      -3.512  14.134  24.273  0.00  0.00    +0.000 A 
ATOM     22  C   UNL     1      -3.843  12.886  23.749  0.00  0.00    +0.000 A 
ATOM     23  C   UNL     1      -2.837  12.110  23.171  0.00  0.00    +0.000 A 
BRANCH  22  24
ATOM     24  O   UNL     1      -5.161  12.537  23.865  0.00  0.00    +0.000 OA
ATOM     25  C   UNL     1      -6.021  12.914  22.795  0.00  0.00    +0.000 C 
ENDBRANCH  22  24
ENDBRANCH  17  18
ENDBRANCH  16  17
ENDBRANCH  15  16
ENDBRANCH   9  10
BRANCH   1  26
ATOM     26  C   UNL     1      -2.486  10.041  17.869  0.00  0.00    +0.000 C 
ATOM     27  O   UNL     1      -3.188   9.163  18.332  0.00  0.00    +0.000 OA
BRANCH  26  28
ATOM     28  O   UNL     1      -2.012  10.063  16.593  0.00  0.00    +0.000 OA
BRANCH  28  30
ATOM     29  C   UNL     1      -3.295  10.064  14.566  0.00  0.00    +0.000 C 
ATOM     30  C   UNL     1      -2.708  10.917  15.671  0.00  0.00    +0.000 C 
ENDBRANCH  28  30
ENDBRANCH  26  28
ENDBRANCH   1  26
BRANCH   8  31
ATOM     31  O   UNL     1       2.235  12.405  18.666  0.00  0.00    +0.000 OA
ATOM     32  H   UNL     1       2.060  11.473  18.881  0.00  0.00    +0.000 HD
ENDBRANCH   8  31
BRANCH   8  33
ATOM     33  O   UNL     1       1.638  14.410  19.728  0.00  0.00    +0.000 OA
BRANCH  33  34
ATOM     34  C   UNL     1       2.742  14.344  20.636  0.00  0.00    +0.000 C 
ATOM     35  C   UNL     1       2.400  15.178  21.858  0.00  0.00    +0.000 C 
ENDBRANCH  33  34
ENDBRANCH   8  33
TORSDOF 11
ENDMDL
