MODEL 1
REMARK VINA RESULT:      -7.9      0.000      0.000
REMARK  Name = 
REMARK  6 active torsions:
REMARK  status: ('A' for Active; 'I' for Inactive)
REMARK    1  A    between atoms: C_1  and  C_2
REMARK    2  A    between atoms: N_4  and  C_5
REMARK    3  A    between atoms: C_8  and  S_9
REMARK    4  A    between atoms: S_9  and  N_12
REMARK    5  A    between atoms: N_12  and  N_13
REMARK    6  A    between atoms: N_13  and  C_14
REMARK                            x       y       z     vdW  Elec       q    Type
REMARK                         _______ _______ _______ _____ _____    ______ ____
ROOT
ATOM      1  S   UNL     1       2.777   3.035  18.023  0.00  0.00    +0.000 S 
ATOM      2  O   UNL     1       2.297   1.914  18.807  0.00  0.00    +0.000 OA
ATOM      3  O   UNL     1       2.304   3.271  16.678  0.00  0.00    +0.000 OA
ENDROOT
BRANCH   1   7
ATOM      4  C   UNL     1       1.921   6.867  20.415  0.00  0.00    +0.000 A 
ATOM      5  C   UNL     1       1.703   5.612  20.983  0.00  0.00    +0.000 A 
ATOM      6  C   UNL     1       1.976   4.441  20.281  0.00  0.00    +0.000 A 
ATOM      7  C   UNL     1       2.444   4.505  18.972  0.00  0.00    +0.000 A 
ATOM      8  C   UNL     1       2.650   5.754  18.378  0.00  0.00    +0.000 A 
ATOM      9  C   UNL     1       2.384   6.932  19.095  0.00  0.00    +0.000 A 
BRANCH   4  13
ATOM     10  C   UNL     1       0.463   9.856  22.196  0.00  0.00    +0.000 C 
ATOM     11  C   UNL     1       0.432   8.492  21.571  0.00  0.00    +0.000 C 
ATOM     12  O   UNL     1      -0.628   7.878  21.487  0.00  0.00    +0.000 OA
ATOM     13  N   UNL     1       1.677   8.059  21.130  0.00  0.00    +0.000 N 
ATOM     14  H   UNL     1       2.486   8.596  21.420  0.00  0.00    +0.000 HD
ENDBRANCH   4  13
ENDBRANCH   1   7
BRANCH   1  15
ATOM     15  N   UNL     1       4.471   2.912  17.964  0.00  0.00    +0.000 NA
ATOM     16  H   UNL     1       4.926   2.145  18.444  0.00  0.00    +0.000 HD
BRANCH  15  17
ATOM     17  N   UNL     1       5.262   3.722  17.052  0.00  0.00    +0.000 N 
ATOM     18  H   UNL     1       5.153   3.520  16.056  0.00  0.00    +0.000 HD
BRANCH  17  19
ATOM     19  C   UNL     1       6.091   4.790  17.423  0.00  0.00    +0.000 A 
ATOM     20  C   UNL     1       6.006   6.055  16.819  0.00  0.00    +0.000 A 
ATOM     21  C   UNL     1       6.833   7.108  17.226  0.00  0.00    +0.000 A 
ATOM     22  C   UNL     1       7.748   6.900  18.249  0.00  0.00    +0.000 A 
ATOM     23  F   UNL     1       8.540   7.905  18.642  0.00  0.00    +0.000 F 
ATOM     24  C   UNL     1       7.849   5.662  18.868  0.00  0.00    +0.000 A 
ATOM     25  C   UNL     1       7.021   4.614  18.457  0.00  0.00    +0.000 A 
ENDBRANCH  17  19
ENDBRANCH  15  17
ENDBRANCH   1  15
TORSDOF 5
ENDMDL
MODEL 2
REMARK VINA RESULT:      -7.9      0.589      1.147
REMARK  Name = 
REMARK  6 active torsions:
REMARK  status: ('A' for Active; 'I' for Inactive)
REMARK    1  A    between atoms: C_1  and  C_2
REMARK    2  A    between atoms: N_4  and  C_5
REMARK    3  A    between atoms: C_8  and  S_9
REMARK    4  A    between atoms: S_9  and  N_12
REMARK    5  A    between atoms: N_12  and  N_13
REMARK    6  A    between atoms: N_13  and  C_14
REMARK                            x       y       z     vdW  Elec       q    Type
REMARK                         _______ _______ _______ _____ _____    ______ ____
ROOT
ATOM      1  S   UNL     1       2.941   2.951  18.085  0.00  0.00    +0.000 S 
ATOM      2  O   UNL     1       2.803   1.856  19.024  0.00  0.00    +0.000 OA
ATOM      3  O   UNL     1       2.186   2.987  16.853  0.00  0.00    +0.000 OA
ENDROOT
BRANCH   1   7
ATOM      4  C   UNL     1       1.983   6.843  20.338  0.00  0.00    +0.000 A 
ATOM      5  C   UNL     1       1.918   5.612  20.988  0.00  0.00    +0.000 A 
ATOM      6  C   UNL     1       2.223   4.425  20.328  0.00  0.00    +0.000 A 
ATOM      7  C   UNL     1       2.571   4.446  18.981  0.00  0.00    +0.000 A 
ATOM      8  C   UNL     1       2.624   5.669  18.305  0.00  0.00    +0.000 A 
ATOM      9  C   UNL     1       2.325   6.864  18.980  0.00  0.00    +0.000 A 
BRANCH   4  13
ATOM     10  C   UNL     1       0.440   9.843  22.026  0.00  0.00    +0.000 C 
ATOM     11  C   UNL     1       0.452   8.454  21.459  0.00  0.00    +0.000 C 
ATOM     12  O   UNL     1      -0.582   7.793  21.426  0.00  0.00    +0.000 OA
ATOM     13  N   UNL     1       1.705   8.054  21.007  0.00  0.00    +0.000 N 
ATOM     14  H   UNL     1       2.496   8.635  21.255  0.00  0.00    +0.000 HD
ENDBRANCH   4  13
ENDBRANCH   1   7
BRANCH   1  15
ATOM     15  N   UNL     1       4.590   3.061  17.688  0.00  0.00    +0.000 NA
ATOM     16  H   UNL     1       4.884   2.836  16.745  0.00  0.00    +0.000 HD
BRANCH  15  17
ATOM     17  N   UNL     1       5.546   3.700  18.576  0.00  0.00    +0.000 N 
ATOM     18  H   UNL     1       5.771   3.197  19.437  0.00  0.00    +0.000 HD
BRANCH  17  19
ATOM     19  C   UNL     1       6.228   4.896  18.312  0.00  0.00    +0.000 A 
ATOM     20  C   UNL     1       7.274   5.363  19.124  0.00  0.00    +0.000 A 
ATOM     21  C   UNL     1       7.950   6.551  18.822  0.00  0.00    +0.000 A 
ATOM     22  C   UNL     1       7.584   7.275  17.697  0.00  0.00    +0.000 A 
ATOM     23  F   UNL     1       8.230   8.411  17.405  0.00  0.00    +0.000 F 
ATOM     24  C   UNL     1       6.559   6.835  16.873  0.00  0.00    +0.000 A 
ATOM     25  C   UNL     1       5.887   5.648  17.179  0.00  0.00    +0.000 A 
ENDBRANCH  17  19
ENDBRANCH  15  17
ENDBRANCH   1  15
TORSDOF 5
ENDMDL
MODEL 3
REMARK VINA RESULT:      -7.7      0.752      1.267
REMARK  Name = 
REMARK  6 active torsions:
REMARK  status: ('A' for Active; 'I' for Inactive)
REMARK    1  A    between atoms: C_1  and  C_2
REMARK    2  A    between atoms: N_4  and  C_5
REMARK    3  A    between atoms: C_8  and  S_9
REMARK    4  A    between atoms: S_9  and  N_12
REMARK    5  A    between atoms: N_12  and  N_13
REMARK    6  A    between atoms: N_13  and  C_14
REMARK                            x       y       z     vdW  Elec       q    Type
REMARK                         _______ _______ _______ _____ _____    ______ ____
ROOT
ATOM      1  S   UNL     1       2.573   3.059  18.021  0.00  0.00    +0.000 S 
ATOM      2  O   UNL     1       2.002   2.030  18.866  0.00  0.00    +0.000 OA
ATOM      3  O   UNL     1       2.142   3.236  16.653  0.00  0.00    +0.000 OA
ENDROOT
BRANCH   1   7
ATOM      4  C   UNL     1       1.923   7.027  20.250  0.00  0.00    +0.000 A 
ATOM      5  C   UNL     1       2.541   7.008  19.000  0.00  0.00    +0.000 A 
ATOM      6  C   UNL     1       2.729   5.819  18.302  0.00  0.00    +0.000 A 
ATOM      7  C   UNL     1       2.327   4.609  18.862  0.00  0.00    +0.000 A 
ATOM      8  C   UNL     1       1.723   4.606  20.123  0.00  0.00    +0.000 A 
ATOM      9  C   UNL     1       1.527   5.810  20.819  0.00  0.00    +0.000 A 
BRANCH   4  13
ATOM     10  C   UNL     1       0.950  10.481  21.415  0.00  0.00    +0.000 C 
ATOM     11  C   UNL     1       0.898   9.280  20.517  0.00  0.00    +0.000 C 
ATOM     12  O   UNL     1       0.196   9.294  19.510  0.00  0.00    +0.000 OA
ATOM     13  N   UNL     1       1.701   8.232  20.951  0.00  0.00    +0.000 N 
ATOM     14  H   UNL     1       2.088   8.298  21.886  0.00  0.00    +0.000 HD
ENDBRANCH   4  13
ENDBRANCH   1   7
BRANCH   1  15
ATOM     15  N   UNL     1       4.255   2.816  18.007  0.00  0.00    +0.000 NA
ATOM     16  H   UNL     1       4.642   2.025  18.508  0.00  0.00    +0.000 HD
BRANCH  15  17
ATOM     17  N   UNL     1       5.124   3.555  17.106  0.00  0.00    +0.000 N 
ATOM     18  H   UNL     1       5.046   3.327  16.113  0.00  0.00    +0.000 HD
BRANCH  17  19
ATOM     19  C   UNL     1       5.992   4.590  17.480  0.00  0.00    +0.000 A 
ATOM     20  C   UNL     1       6.402   5.591  16.585  0.00  0.00    +0.000 A 
ATOM     21  C   UNL     1       7.253   6.624  16.994  0.00  0.00    +0.000 A 
ATOM     22  C   UNL     1       7.694   6.663  18.309  0.00  0.00    +0.000 A 
ATOM     23  F   UNL     1       8.507   7.650  18.704  0.00  0.00    +0.000 F 
ATOM     24  C   UNL     1       7.300   5.690  19.217  0.00  0.00    +0.000 A 
ATOM     25  C   UNL     1       6.451   4.661  18.804  0.00  0.00    +0.000 A 
ENDBRANCH  17  19
ENDBRANCH  15  17
ENDBRANCH   1  15
TORSDOF 5
ENDMDL
MODEL 4
REMARK VINA RESULT:      -7.6      3.120      6.405
REMARK  Name = 
REMARK  6 active torsions:
REMARK  status: ('A' for Active; 'I' for Inactive)
REMARK    1  A    between atoms: C_1  and  C_2
REMARK    2  A    between atoms: N_4  and  C_5
REMARK    3  A    between atoms: C_8  and  S_9
REMARK    4  A    between atoms: S_9  and  N_12
REMARK    5  A    between atoms: N_12  and  N_13
REMARK    6  A    between atoms: N_13  and  C_14
REMARK                            x       y       z     vdW  Elec       q    Type
REMARK                         _______ _______ _______ _____ _____    ______ ____
ROOT
ATOM      1  S   UNL     1       1.920   4.061  20.737  0.00  0.00    +0.000 S 
ATOM      2  O   UNL     1       0.588   3.721  20.277  0.00  0.00    +0.000 OA
ATOM      3  O   UNL     1       2.558   3.328  21.806  0.00  0.00    +0.000 OA
ENDROOT
BRANCH   1   7
ATOM      4  C   UNL     1       4.740   3.825  17.113  0.00  0.00    +0.000 A 
ATOM      5  C   UNL     1       3.359   3.741  16.944  0.00  0.00    +0.000 A 
ATOM      6  C   UNL     1       2.489   3.830  18.027  0.00  0.00    +0.000 A 
ATOM      7  C   UNL     1       2.992   3.973  19.317  0.00  0.00    +0.000 A 
ATOM      8  C   UNL     1       4.375   4.040  19.509  0.00  0.00    +0.000 A 
ATOM      9  C   UNL     1       5.248   3.961  18.411  0.00  0.00    +0.000 A 
BRANCH   4  13
ATOM     10  C   UNL     1       6.838   4.447  14.040  0.00  0.00    +0.000 C 
ATOM     11  C   UNL     1       5.964   4.836  15.196  0.00  0.00    +0.000 C 
ATOM     12  O   UNL     1       5.616   6.005  15.338  0.00  0.00    +0.000 OA
ATOM     13  N   UNL     1       5.629   3.767  16.018  0.00  0.00    +0.000 N 
ATOM     14  H   UNL     1       6.127   2.896  15.877  0.00  0.00    +0.000 HD
ENDBRANCH   4  13
ENDBRANCH   1   7
BRANCH   1  15
ATOM     15  N   UNL     1       1.891   5.702  21.178  0.00  0.00    +0.000 NA
ATOM     16  H   UNL     1       1.558   5.958  22.099  0.00  0.00    +0.000 HD
BRANCH  15  17
ATOM     17  N   UNL     1       2.554   6.718  20.376  0.00  0.00    +0.000 N 
ATOM     18  H   UNL     1       3.539   6.552  20.159  0.00  0.00    +0.000 HD
BRANCH  17  19
ATOM     19  C   UNL     1       1.937   7.850  19.827  0.00  0.00    +0.000 A 
ATOM     20  C   UNL     1       2.086   8.209  18.477  0.00  0.00    +0.000 A 
ATOM     21  C   UNL     1       1.439   9.334  17.953  0.00  0.00    +0.000 A 
ATOM     22  C   UNL     1       0.633  10.104  18.779  0.00  0.00    +0.000 A 
ATOM     23  F   UNL     1       0.012  11.180  18.280  0.00  0.00    +0.000 F 
ATOM     24  C   UNL     1       0.463   9.770  20.115  0.00  0.00    +0.000 A 
ATOM     25  C   UNL     1       1.111   8.645  20.634  0.00  0.00    +0.000 A 
ENDBRANCH  17  19
ENDBRANCH  15  17
ENDBRANCH   1  15
TORSDOF 5
ENDMDL
MODEL 5
REMARK VINA RESULT:      -7.6      3.108      6.413
REMARK  Name = 
REMARK  6 active torsions:
REMARK  status: ('A' for Active; 'I' for Inactive)
REMARK    1  A    between atoms: C_1  and  C_2
REMARK    2  A    between atoms: N_4  and  C_5
REMARK    3  A    between atoms: C_8  and  S_9
REMARK    4  A    between atoms: S_9  and  N_12
REMARK    5  A    between atoms: N_12  and  N_13
REMARK    6  A    between atoms: N_13  and  C_14
REMARK                            x       y       z     vdW  Elec       q    Type
REMARK                         _______ _______ _______ _____ _____    ______ ____
ROOT
ATOM      1  S   UNL     1       1.943   3.987  20.729  0.00  0.00    +0.000 S 
ATOM      2  O   UNL     1       0.602   3.691  20.266  0.00  0.00    +0.000 OA
ATOM      3  O   UNL     1       2.569   3.209  21.773  0.00  0.00    +0.000 OA
ENDROOT
BRANCH   1   7
ATOM      4  C   UNL     1       4.740   3.793  17.085  0.00  0.00    +0.000 A 
ATOM      5  C   UNL     1       3.358   3.718  16.923  0.00  0.00    +0.000 A 
ATOM      6  C   UNL     1       2.494   3.795  18.013  0.00  0.00    +0.000 A 
ATOM      7  C   UNL     1       3.006   3.916  19.301  0.00  0.00    +0.000 A 
ATOM      8  C   UNL     1       4.390   3.973  19.486  0.00  0.00    +0.000 A 
ATOM      9  C   UNL     1       5.257   3.906  18.382  0.00  0.00    +0.000 A 
BRANCH   4  13
ATOM     10  C   UNL     1       6.812   4.446  14.000  0.00  0.00    +0.000 C 
ATOM     11  C   UNL     1       5.942   4.823  15.164  0.00  0.00    +0.000 C 
ATOM     12  O   UNL     1       5.585   5.988  15.313  0.00  0.00    +0.000 OA
ATOM     13  N   UNL     1       5.622   3.747  15.984  0.00  0.00    +0.000 N 
ATOM     14  H   UNL     1       6.127   2.882  15.835  0.00  0.00    +0.000 HD
ENDBRANCH   4  13
ENDBRANCH   1   7
BRANCH   1  15
ATOM     15  N   UNL     1       1.954   5.615  21.216  0.00  0.00    +0.000 NA
ATOM     16  H   UNL     1       1.675   5.847  22.162  0.00  0.00    +0.000 HD
BRANCH  15  17
ATOM     17  N   UNL     1       2.579   6.648  20.408  0.00  0.00    +0.000 N 
ATOM     18  H   UNL     1       3.558   6.496  20.157  0.00  0.00    +0.000 HD
BRANCH  17  19
ATOM     19  C   UNL     1       1.934   7.781  19.893  0.00  0.00    +0.000 A 
ATOM     20  C   UNL     1       1.131   8.617  20.686  0.00  0.00    +0.000 A 
ATOM     21  C   UNL     1       0.516   9.753  20.147  0.00  0.00    +0.000 A 
ATOM     22  C   UNL     1       0.709  10.062  18.809  0.00  0.00    +0.000 A 
ATOM     23  F   UNL     1       0.124  11.149  18.291  0.00  0.00    +0.000 F 
ATOM     24  C   UNL     1       1.502   9.257  18.003  0.00  0.00    +0.000 A 
ATOM     25  C   UNL     1       2.113   8.123  18.545  0.00  0.00    +0.000 A 
ENDBRANCH  17  19
ENDBRANCH  15  17
ENDBRANCH   1  15
TORSDOF 5
ENDMDL
MODEL 6
REMARK VINA RESULT:      -7.6      3.278      4.462
REMARK  Name = 
REMARK  6 active torsions:
REMARK  status: ('A' for Active; 'I' for Inactive)
REMARK    1  A    between atoms: C_1  and  C_2
REMARK    2  A    between atoms: N_4  and  C_5
REMARK    3  A    between atoms: C_8  and  S_9
REMARK    4  A    between atoms: S_9  and  N_12
REMARK    5  A    between atoms: N_12  and  N_13
REMARK    6  A    between atoms: N_13  and  C_14
REMARK                            x       y       z     vdW  Elec       q    Type
REMARK                         _______ _______ _______ _____ _____    ______ ____
ROOT
ATOM      1  S   UNL     1       5.549   4.875  17.666  0.00  0.00    +0.000 S 
ATOM      2  O   UNL     1       6.234   5.512  16.559  0.00  0.00    +0.000 OA
ATOM      3  O   UNL     1       6.260   4.456  18.852  0.00  0.00    +0.000 OA
ENDROOT
BRANCH   1   7
ATOM      4  C   UNL     1       2.229   7.789  18.942  0.00  0.00    +0.000 A 
ATOM      5  C   UNL     1       2.502   6.649  19.697  0.00  0.00    +0.000 A 
ATOM      6  C   UNL     1       3.517   5.767  19.337  0.00  0.00    +0.000 A 
ATOM      7  C   UNL     1       4.261   5.992  18.183  0.00  0.00    +0.000 A 
ATOM      8  C   UNL     1       3.989   7.119  17.402  0.00  0.00    +0.000 A 
ATOM      9  C   UNL     1       2.972   8.012  17.776  0.00  0.00    +0.000 A 
BRANCH   4  13
ATOM     10  C   UNL     1      -0.265   9.993  20.719  0.00  0.00    +0.000 C 
ATOM     11  C   UNL     1       0.937   9.100  20.617  0.00  0.00    +0.000 C 
ATOM     12  O   UNL     1       1.558   8.786  21.629  0.00  0.00    +0.000 OA
ATOM     13  N   UNL     1       1.223   8.705  19.315  0.00  0.00    +0.000 N 
ATOM     14  H   UNL     1       0.731   9.179  18.567  0.00  0.00    +0.000 HD
ENDBRANCH   4  13
ENDBRANCH   1   7
BRANCH   1  15
ATOM     15  N   UNL     1       4.741   3.518  17.038  0.00  0.00    +0.000 NA
ATOM     16  H   UNL     1       4.696   3.394  16.034  0.00  0.00    +0.000 HD
BRANCH  15  17
ATOM     17  N   UNL     1       4.333   2.413  17.889  0.00  0.00    +0.000 N 
ATOM     18  H   UNL     1       4.808   1.522  17.734  0.00  0.00    +0.000 HD
BRANCH  17  19
ATOM     19  C   UNL     1       3.407   2.495  18.939  0.00  0.00    +0.000 A 
ATOM     20  C   UNL     1       2.029   2.658  18.718  0.00  0.00    +0.000 A 
ATOM     21  C   UNL     1       1.127   2.714  19.786  0.00  0.00    +0.000 A 
ATOM     22  C   UNL     1       1.601   2.600  21.085  0.00  0.00    +0.000 A 
ATOM     23  F   UNL     1       0.740   2.652  22.109  0.00  0.00    +0.000 F 
ATOM     24  C   UNL     1       2.956   2.432  21.333  0.00  0.00    +0.000 A 
ATOM     25  C   UNL     1       3.853   2.377  20.263  0.00  0.00    +0.000 A 
ENDBRANCH  17  19
ENDBRANCH  15  17
ENDBRANCH   1  15
TORSDOF 5
ENDMDL
MODEL 7
REMARK VINA RESULT:      -7.6      4.148      5.690
REMARK  Name = 
REMARK  6 active torsions:
REMARK  status: ('A' for Active; 'I' for Inactive)
REMARK    1  A    between atoms: C_1  and  C_2
REMARK    2  A    between atoms: N_4  and  C_5
REMARK    3  A    between atoms: C_8  and  S_9
REMARK    4  A    between atoms: S_9  and  N_12
REMARK    5  A    between atoms: N_12  and  N_13
REMARK    6  A    between atoms: N_13  and  C_14
REMARK                            x       y       z     vdW  Elec       q    Type
REMARK                         _______ _______ _______ _____ _____    ______ ____
ROOT
ATOM      1  S   UNL     1       7.225   7.135  17.615  0.00  0.00    +0.000 S 
ATOM      2  O   UNL     1       6.790   8.488  17.332  0.00  0.00    +0.000 OA
ATOM      3  O   UNL     1       8.213   6.859  18.633  0.00  0.00    +0.000 OA
ENDROOT
BRANCH   1   7
ATOM      4  C   UNL     1       3.489   4.694  18.719  0.00  0.00    +0.000 A 
ATOM      5  C   UNL     1       3.402   5.758  17.823  0.00  0.00    +0.000 A 
ATOM      6  C   UNL     1       4.526   6.496  17.462  0.00  0.00    +0.000 A 
ATOM      7  C   UNL     1       5.765   6.201  18.023  0.00  0.00    +0.000 A 
ATOM      8  C   UNL     1       5.869   5.149  18.938  0.00  0.00    +0.000 A 
ATOM      9  C   UNL     1       4.734   4.401  19.291  0.00  0.00    +0.000 A 
BRANCH   4  13
ATOM     10  C   UNL     1       0.547   2.337  18.867  0.00  0.00    +0.000 C 
ATOM     11  C   UNL     1       1.817   2.898  18.299  0.00  0.00    +0.000 C 
ATOM     12  O   UNL     1       2.272   2.451  17.250  0.00  0.00    +0.000 OA
ATOM     13  N   UNL     1       2.361   3.921  19.068  0.00  0.00    +0.000 N 
ATOM     14  H   UNL     1       1.972   4.065  19.992  0.00  0.00    +0.000 HD
ENDBRANCH   4  13
ENDBRANCH   1   7
BRANCH   1  15
ATOM     15  N   UNL     1       7.788   6.476  16.153  0.00  0.00    +0.000 NA
ATOM     16  H   UNL     1       8.414   7.024  15.576  0.00  0.00    +0.000 HD
BRANCH  15  17
ATOM     17  N   UNL     1       7.599   5.072  15.828  0.00  0.00    +0.000 N 
ATOM     18  H   UNL     1       7.958   4.398  16.507  0.00  0.00    +0.000 HD
BRANCH  17  19
ATOM     19  C   UNL     1       6.908   4.582  14.712  0.00  0.00    +0.000 A 
ATOM     20  C   UNL     1       5.603   4.070  14.797  0.00  0.00    +0.000 A 
ATOM     21  C   UNL     1       4.932   3.607  13.660  0.00  0.00    +0.000 A 
ATOM     22  C   UNL     1       5.563   3.661  12.426  0.00  0.00    +0.000 A 
ATOM     23  F   UNL     1       4.923   3.221  11.336  0.00  0.00    +0.000 F 
ATOM     24  C   UNL     1       6.850   4.167  12.311  0.00  0.00    +0.000 A 
ATOM     25  C   UNL     1       7.517   4.628  13.449  0.00  0.00    +0.000 A 
ENDBRANCH  17  19
ENDBRANCH  15  17
ENDBRANCH   1  15
TORSDOF 5
ENDMDL
MODEL 8
REMARK VINA RESULT:      -7.5      0.859      1.666
REMARK  Name = 
REMARK  6 active torsions:
REMARK  status: ('A' for Active; 'I' for Inactive)
REMARK    1  A    between atoms: C_1  and  C_2
REMARK    2  A    between atoms: N_4  and  C_5
REMARK    3  A    between atoms: C_8  and  S_9
REMARK    4  A    between atoms: S_9  and  N_12
REMARK    5  A    between atoms: N_12  and  N_13
REMARK    6  A    between atoms: N_13  and  C_14
REMARK                            x       y       z     vdW  Elec       q    Type
REMARK                         _______ _______ _______ _____ _____    ______ ____
ROOT
ATOM      1  S   UNL     1       3.041   3.396  17.760  0.00  0.00    +0.000 S 
ATOM      2  O   UNL     1       3.778   2.505  18.634  0.00  0.00    +0.000 OA
ATOM      3  O   UNL     1       1.830   2.969  17.097  0.00  0.00    +0.000 OA
ENDROOT
BRANCH   1   7
ATOM      4  C   UNL     1       1.988   7.088  20.290  0.00  0.00    +0.000 A 
ATOM      5  C   UNL     1       2.739   7.218  19.123  0.00  0.00    +0.000 A 
ATOM      6  C   UNL     1       3.051   6.114  18.334  0.00  0.00    +0.000 A 
ATOM      7  C   UNL     1       2.641   4.842  18.720  0.00  0.00    +0.000 A 
ATOM      8  C   UNL     1       1.903   4.688  19.898  0.00  0.00    +0.000 A 
ATOM      9  C   UNL     1       1.583   5.807  20.685  0.00  0.00    +0.000 A 
BRANCH   4  13
ATOM     10  C   UNL     1       0.681  10.333  21.701  0.00  0.00    +0.000 C 
ATOM     11  C   UNL     1       0.761   9.212  20.706  0.00  0.00    +0.000 C 
ATOM     12  O   UNL     1       0.086   9.251  19.681  0.00  0.00    +0.000 OA
ATOM     13  N   UNL     1       1.642   8.205  21.080  0.00  0.00    +0.000 N 
ATOM     14  H   UNL     1       1.997   8.225  22.029  0.00  0.00    +0.000 HD
ENDBRANCH   4  13
ENDBRANCH   1   7
BRANCH   1  15
ATOM     15  N   UNL     1       4.125   3.934  16.567  0.00  0.00    +0.000 NA
ATOM     16  H   UNL     1       3.766   4.454  15.776  0.00  0.00    +0.000 HD
BRANCH  15  17
ATOM     17  N   UNL     1       5.563   3.887  16.768  0.00  0.00    +0.000 N 
ATOM     18  H   UNL     1       6.041   3.049  16.428  0.00  0.00    +0.000 HD
BRANCH  17  19
ATOM     19  C   UNL     1       6.342   4.916  17.315  0.00  0.00    +0.000 A 
ATOM     20  C   UNL     1       6.987   4.794  18.557  0.00  0.00    +0.000 A 
ATOM     21  C   UNL     1       7.775   5.832  19.067  0.00  0.00    +0.000 A 
ATOM     22  C   UNL     1       7.927   6.998  18.330  0.00  0.00    +0.000 A 
ATOM     23  F   UNL     1       8.682   7.991  18.815  0.00  0.00    +0.000 F 
ATOM     24  C   UNL     1       7.307   7.143  17.098  0.00  0.00    +0.000 A 
ATOM     25  C   UNL     1       6.520   6.104  16.593  0.00  0.00    +0.000 A 
ENDBRANCH  17  19
ENDBRANCH  15  17
ENDBRANCH   1  15
TORSDOF 5
ENDMDL
MODEL 9
REMARK VINA RESULT:      -7.5      3.152      6.451
REMARK  Name = 
REMARK  6 active torsions:
REMARK  status: ('A' for Active; 'I' for Inactive)
REMARK    1  A    between atoms: C_1  and  C_2
REMARK    2  A    between atoms: N_4  and  C_5
REMARK    3  A    between atoms: C_8  and  S_9
REMARK    4  A    between atoms: S_9  and  N_12
REMARK    5  A    between atoms: N_12  and  N_13
REMARK    6  A    between atoms: N_13  and  C_14
REMARK                            x       y       z     vdW  Elec       q    Type
REMARK                         _______ _______ _______ _____ _____    ______ ____
ROOT
ATOM      1  S   UNL     1       1.913   4.082  20.780  0.00  0.00    +0.000 S 
ATOM      2  O   UNL     1       0.575   3.839  20.279  0.00  0.00    +0.000 OA
ATOM      3  O   UNL     1       2.470   3.294  21.856  0.00  0.00    +0.000 OA
ENDROOT
BRANCH   1   7
ATOM      4  C   UNL     1       4.707   3.721  17.146  0.00  0.00    +0.000 A 
ATOM      5  C   UNL     1       5.228   3.855  18.432  0.00  0.00    +0.000 A 
ATOM      6  C   UNL     1       4.398   3.946  19.546  0.00  0.00    +0.000 A 
ATOM      7  C   UNL     1       3.016   3.938  19.389  0.00  0.00    +0.000 A 
ATOM      8  C   UNL     1       2.473   3.824  18.105  0.00  0.00    +0.000 A 
ATOM      9  C   UNL     1       3.315   3.721  16.986  0.00  0.00    +0.000 A 
BRANCH   4  13
ATOM     10  C   UNL     1       6.737   4.198  14.002  0.00  0.00    +0.000 C 
ATOM     11  C   UNL     1       5.955   4.647  15.202  0.00  0.00    +0.000 C 
ATOM     12  O   UNL     1       5.737   5.841  15.383  0.00  0.00    +0.000 OA
ATOM     13  N   UNL     1       5.541   3.597  16.014  0.00  0.00    +0.000 N 
ATOM     14  H   UNL     1       5.939   2.684  15.834  0.00  0.00    +0.000 HD
ENDBRANCH   4  13
ENDBRANCH   1   7
BRANCH   1  15
ATOM     15  N   UNL     1       1.983   5.716  21.243  0.00  0.00    +0.000 NA
ATOM     16  H   UNL     1       1.773   5.964  22.202  0.00  0.00    +0.000 HD
BRANCH  15  17
ATOM     17  N   UNL     1       2.569   6.727  20.379  0.00  0.00    +0.000 N 
ATOM     18  H   UNL     1       3.527   6.556  20.066  0.00  0.00    +0.000 HD
BRANCH  17  19
ATOM     19  C   UNL     1       1.907   7.862  19.891  0.00  0.00    +0.000 A 
ATOM     20  C   UNL     1       2.045   8.304  18.565  0.00  0.00    +0.000 A 
ATOM     21  C   UNL     1       1.354   9.429  18.102  0.00  0.00    +0.000 A 
ATOM     22  C   UNL     1       0.514  10.116  18.966  0.00  0.00    +0.000 A 
ATOM     23  F   UNL     1      -0.150  11.192  18.525  0.00  0.00    +0.000 F 
ATOM     24  C   UNL     1       0.354   9.699  20.279  0.00  0.00    +0.000 A 
ATOM     25  C   UNL     1       1.046   8.575  20.738  0.00  0.00    +0.000 A 
ENDBRANCH  17  19
ENDBRANCH  15  17
ENDBRANCH   1  15
TORSDOF 5
ENDMDL
