MODEL 1
REMARK VINA RESULT:      -8.3      0.000      0.000
REMARK  Name = 
REMARK  4 active torsions:
REMARK  status: ('A' for Active; 'I' for Inactive)
REMARK    1  A    between atoms: C_2  and  C_12
REMARK    2  A    between atoms: N_3  and  C_4
REMARK    3  A    between atoms: C_16  and  C_17
REMARK    4  A    between atoms: N_19  and  C_20
REMARK                            x       y       z     vdW  Elec       q    Type
REMARK                         _______ _______ _______ _____ _____    ______ ____
ROOT
ATOM      1  C   UNL     1       1.562   8.926  19.465  0.00  0.00    +0.000 A 
ATOM      2  C   UNL     1       1.645   9.819  18.397  0.00  0.00    +0.000 A 
ATOM      3  C   UNL     1       1.091  11.080  18.561  0.00  0.00    +0.000 A 
ATOM      4  N   UNL     1       0.483  11.496  19.693  0.00  0.00    +0.000 NA
ATOM      5  C   UNL     1       0.422  10.598  20.716  0.00  0.00    +0.000 A 
ATOM      6  C   UNL     1       0.931   9.310  20.645  0.00  0.00    +0.000 A 
ENDROOT
BRANCH   1   8
ATOM      7  O   UNL     1       2.031   6.836  20.371  0.00  0.00    +0.000 OA
ATOM      8  C   UNL     1       2.103   7.546  19.376  0.00  0.00    +0.000 C 
ATOM      9  N   UNL     1       2.701   7.226  18.172  0.00  0.00    +0.000 N 
ATOM     10  H   UNL     1       2.857   7.983  17.517  0.00  0.00    +0.000 HD
BRANCH   9  11
ATOM     11  C   UNL     1       3.298   5.988  17.840  0.00  0.00    +0.000 A 
ATOM     12  C   UNL     1       2.613   4.770  17.853  0.00  0.00    +0.000 A 
ATOM     13  C   UNL     1       3.284   3.585  17.543  0.00  0.00    +0.000 A 
ATOM     14 CL   UNL     1       2.429   2.091  17.564  0.00  0.00    +0.000 Cl
ATOM     15  C   UNL     1       4.636   3.595  17.218  0.00  0.00    +0.000 A 
ATOM     16  C   UNL     1       5.311   4.809  17.184  0.00  0.00    +0.000 A 
ATOM     17 CL   UNL     1       6.987   4.843  16.788  0.00  0.00    +0.000 Cl
ATOM     18  C   UNL     1       4.650   6.003  17.478  0.00  0.00    +0.000 A 
ENDBRANCH   9  11
ENDBRANCH   1   8
BRANCH   5  19
ATOM     19  C   UNL     1      -0.224  11.060  21.984  0.00  0.00    +0.000 C 
ATOM     20  O   UNL     1       0.023  10.468  23.028  0.00  0.00    +0.000 OA
ATOM     21  N   UNL     1      -1.093  12.129  21.829  0.00  0.00    +0.000 N 
ATOM     22  H   UNL     1      -1.244  12.419  20.865  0.00  0.00    +0.000 HD
BRANCH  21  23
ATOM     23  C   UNL     1      -1.847  12.745  22.849  0.00  0.00    +0.000 A 
ATOM     24  C   UNL     1      -3.090  12.266  23.275  0.00  0.00    +0.000 A 
ATOM     25  C   UNL     1      -3.814  12.949  24.252  0.00  0.00    +0.000 A 
ATOM     26 CL   UNL     1      -5.345  12.344  24.759  0.00  0.00    +0.000 Cl
ATOM     27  C   UNL     1      -3.315  14.116  24.819  0.00  0.00    +0.000 A 
ATOM     28  C   UNL     1      -2.066  14.579  24.415  0.00  0.00    +0.000 A 
ATOM     29 CL   UNL     1      -1.441  16.029  25.103  0.00  0.00    +0.000 Cl
ATOM     30  C   UNL     1      -1.323  13.895  23.448  0.00  0.00    +0.000 A 
ENDBRANCH  21  23
ENDBRANCH   5  19
TORSDOF 4
ENDMDL
MODEL 2
REMARK VINA RESULT:      -8.2      0.115      1.702
REMARK  Name = 
REMARK  4 active torsions:
REMARK  status: ('A' for Active; 'I' for Inactive)
REMARK    1  A    between atoms: C_2  and  C_12
REMARK    2  A    between atoms: N_3  and  C_4
REMARK    3  A    between atoms: C_16  and  C_17
REMARK    4  A    between atoms: N_19  and  C_20
REMARK                            x       y       z     vdW  Elec       q    Type
REMARK                         _______ _______ _______ _____ _____    ______ ____
ROOT
ATOM      1  C   UNL     1       1.572   8.893  19.407  0.00  0.00    +0.000 A 
ATOM      2  C   UNL     1       1.585   9.762  18.316  0.00  0.00    +0.000 A 
ATOM      3  C   UNL     1       0.991  11.006  18.468  0.00  0.00    +0.000 A 
ATOM      4  N   UNL     1       0.407  11.428  19.611  0.00  0.00    +0.000 NA
ATOM      5  C   UNL     1       0.414  10.554  20.657  0.00  0.00    +0.000 A 
ATOM      6  C   UNL     1       0.967   9.285  20.599  0.00  0.00    +0.000 A 
ENDROOT
BRANCH   1   8
ATOM      7  O   UNL     1       2.060   6.810  20.315  0.00  0.00    +0.000 OA
ATOM      8  C   UNL     1       2.161   7.533  19.333  0.00  0.00    +0.000 C 
ATOM      9  N   UNL     1       2.830   7.245  18.157  0.00  0.00    +0.000 N 
ATOM     10  H   UNL     1       2.994   8.014  17.519  0.00  0.00    +0.000 HD
BRANCH   9  11
ATOM     11  C   UNL     1       3.481   6.030  17.844  0.00  0.00    +0.000 A 
ATOM     12  C   UNL     1       4.831   5.942  17.496  0.00  0.00    +0.000 A 
ATOM     13  C   UNL     1       5.392   4.705  17.168  0.00  0.00    +0.000 A 
ATOM     14 CL   UNL     1       7.056   4.611  16.739  0.00  0.00    +0.000 Cl
ATOM     15  C   UNL     1       4.622   3.547  17.184  0.00  0.00    +0.000 A 
ATOM     16  C   UNL     1       3.285   3.632  17.553  0.00  0.00    +0.000 A 
ATOM     17 CL   UNL     1       2.314   2.210  17.574  0.00  0.00    +0.000 Cl
ATOM     18  C   UNL     1       2.715   4.860  17.895  0.00  0.00    +0.000 A 
ENDBRANCH   9  11
ENDBRANCH   1   8
BRANCH   5  19
ATOM     19  C   UNL     1      -0.206  11.024  21.934  0.00  0.00    +0.000 C 
ATOM     20  O   UNL     1       0.062  10.439  22.977  0.00  0.00    +0.000 OA
ATOM     21  N   UNL     1      -1.077  12.093  21.791  0.00  0.00    +0.000 N 
ATOM     22  H   UNL     1      -1.248  12.377  20.829  0.00  0.00    +0.000 HD
BRANCH  21  23
ATOM     23  C   UNL     1      -1.810  12.716  22.822  0.00  0.00    +0.000 A 
ATOM     24  C   UNL     1      -3.035  12.229  23.290  0.00  0.00    +0.000 A 
ATOM     25  C   UNL     1      -3.739  12.918  24.277  0.00  0.00    +0.000 A 
ATOM     26 CL   UNL     1      -5.248  12.303  24.836  0.00  0.00    +0.000 Cl
ATOM     27  C   UNL     1      -3.239  14.099  24.812  0.00  0.00    +0.000 A 
ATOM     28  C   UNL     1      -2.007  14.571  24.367  0.00  0.00    +0.000 A 
ATOM     29 CL   UNL     1      -1.380  16.038  25.015  0.00  0.00    +0.000 Cl
ATOM     30  C   UNL     1      -1.284  13.881  23.390  0.00  0.00    +0.000 A 
ENDBRANCH  21  23
ENDBRANCH   5  19
TORSDOF 4
ENDMDL
MODEL 3
REMARK VINA RESULT:      -8.2      0.162      1.705
REMARK  Name = 
REMARK  4 active torsions:
REMARK  status: ('A' for Active; 'I' for Inactive)
REMARK    1  A    between atoms: C_2  and  C_12
REMARK    2  A    between atoms: N_3  and  C_4
REMARK    3  A    between atoms: C_16  and  C_17
REMARK    4  A    between atoms: N_19  and  C_20
REMARK                            x       y       z     vdW  Elec       q    Type
REMARK                         _______ _______ _______ _____ _____    ______ ____
ROOT
ATOM      1  C   UNL     1       1.479   8.995  19.507  0.00  0.00    +0.000 A 
ATOM      2  C   UNL     1       1.528   9.858  18.412  0.00  0.00    +0.000 A 
ATOM      3  C   UNL     1       0.966  11.117  18.550  0.00  0.00    +0.000 A 
ATOM      4  N   UNL     1       0.380  11.562  19.684  0.00  0.00    +0.000 NA
ATOM      5  C   UNL     1       0.350  10.693  20.734  0.00  0.00    +0.000 A 
ATOM      6  C   UNL     1       0.870   9.409  20.689  0.00  0.00    +0.000 A 
ENDROOT
BRANCH   1   8
ATOM      7  O   UNL     1       1.971   6.932  20.458  0.00  0.00    +0.000 OA
ATOM      8  C   UNL     1       2.031   7.618  19.447  0.00  0.00    +0.000 C 
ATOM      9  N   UNL     1       2.623   7.275  18.246  0.00  0.00    +0.000 N 
ATOM     10  H   UNL     1       2.768   8.018  17.573  0.00  0.00    +0.000 HD
BRANCH   9  11
ATOM     11  C   UNL     1       3.228   6.035  17.939  0.00  0.00    +0.000 A 
ATOM     12  C   UNL     1       2.538   4.820  17.919  0.00  0.00    +0.000 A 
ATOM     13  C   UNL     1       3.216   3.632  17.638  0.00  0.00    +0.000 A 
ATOM     14 CL   UNL     1       2.354   2.142  17.617  0.00  0.00    +0.000 Cl
ATOM     15  C   UNL     1       4.582   3.636  17.374  0.00  0.00    +0.000 A 
ATOM     16  C   UNL     1       5.263   4.847  17.371  0.00  0.00    +0.000 A 
ATOM     17 CL   UNL     1       6.955   4.873  17.051  0.00  0.00    +0.000 Cl
ATOM     18  C   UNL     1       4.595   6.044  17.638  0.00  0.00    +0.000 A 
ENDBRANCH   9  11
ENDBRANCH   1   8
BRANCH   5  19
ATOM     19  C   UNL     1      -0.272  11.187  22.002  0.00  0.00    +0.000 C 
ATOM     20  O   UNL     1      -0.045  10.590  23.048  0.00  0.00    +0.000 OA
ATOM     21  N   UNL     1      -1.097  12.290  21.845  0.00  0.00    +0.000 N 
ATOM     22  H   UNL     1      -1.240  12.581  20.880  0.00  0.00    +0.000 HD
BRANCH  21  23
ATOM     23  C   UNL     1      -1.821  12.941  22.865  0.00  0.00    +0.000 A 
ATOM     24  C   UNL     1      -1.328  14.047  23.565  0.00  0.00    +0.000 A 
ATOM     25  C   UNL     1      -2.070  14.616  24.601  0.00  0.00    +0.000 A 
ATOM     26 CL   UNL     1      -1.442  15.974  25.453  0.00  0.00    +0.000 Cl
ATOM     27  C   UNL     1      -3.309  14.095  24.955  0.00  0.00    +0.000 A 
ATOM     28  C   UNL     1      -3.813  13.011  24.242  0.00  0.00    +0.000 A 
ATOM     29 CL   UNL     1      -5.342  12.351  24.677  0.00  0.00    +0.000 Cl
ATOM     30  C   UNL     1      -3.086  12.442  23.191  0.00  0.00    +0.000 A 
ENDBRANCH  21  23
ENDBRANCH   5  19
TORSDOF 4
ENDMDL
MODEL 4
REMARK VINA RESULT:      -8.2      0.180      2.409
REMARK  Name = 
REMARK  4 active torsions:
REMARK  status: ('A' for Active; 'I' for Inactive)
REMARK    1  A    between atoms: C_2  and  C_12
REMARK    2  A    between atoms: N_3  and  C_4
REMARK    3  A    between atoms: C_16  and  C_17
REMARK    4  A    between atoms: N_19  and  C_20
REMARK                            x       y       z     vdW  Elec       q    Type
REMARK                         _______ _______ _______ _____ _____    ______ ____
ROOT
ATOM      1  C   UNL     1       1.460   8.971  19.434  0.00  0.00    +0.000 A 
ATOM      2  C   UNL     1       1.397   9.787  18.305  0.00  0.00    +0.000 A 
ATOM      3  C   UNL     1       0.764  11.015  18.425  0.00  0.00    +0.000 A 
ATOM      4  N   UNL     1       0.211  11.470  19.571  0.00  0.00    +0.000 NA
ATOM      5  C   UNL     1       0.292  10.647  20.654  0.00  0.00    +0.000 A 
ATOM      6  C   UNL     1       0.889   9.396  20.631  0.00  0.00    +0.000 A 
ENDROOT
BRANCH   1   8
ATOM      7  O   UNL     1       2.063   6.951  20.416  0.00  0.00    +0.000 OA
ATOM      8  C   UNL     1       2.095   7.629  19.397  0.00  0.00    +0.000 C 
ATOM      9  N   UNL     1       2.723   7.309  18.208  0.00  0.00    +0.000 N 
ATOM     10  H   UNL     1       2.832   8.051  17.528  0.00  0.00    +0.000 HD
BRANCH   9  11
ATOM     11  C   UNL     1       3.405   6.104  17.923  0.00  0.00    +0.000 A 
ATOM     12  C   UNL     1       4.771   6.035  17.640  0.00  0.00    +0.000 A 
ATOM     13  C   UNL     1       5.364   4.807  17.337  0.00  0.00    +0.000 A 
ATOM     14 CL   UNL     1       7.048   4.736  16.989  0.00  0.00    +0.000 Cl
ATOM     15  C   UNL     1       4.609   3.638  17.312  0.00  0.00    +0.000 A 
ATOM     16  C   UNL     1       3.255   3.704  17.616  0.00  0.00    +0.000 A 
ATOM     17 CL   UNL     1       2.304   2.270  17.586  0.00  0.00    +0.000 Cl
ATOM     18  C   UNL     1       2.653   4.923  17.933  0.00  0.00    +0.000 A 
ENDBRANCH   9  11
ENDBRANCH   1   8
BRANCH   5  19
ATOM     19  C   UNL     1      -0.293  11.154  21.934  0.00  0.00    +0.000 C 
ATOM     20  O   UNL     1      -0.033  10.571  22.980  0.00  0.00    +0.000 OA
ATOM     21  N   UNL     1      -1.126  12.253  21.789  0.00  0.00    +0.000 N 
ATOM     22  H   UNL     1      -1.300  12.531  20.825  0.00  0.00    +0.000 HD
BRANCH  21  23
ATOM     23  C   UNL     1      -1.822  12.914  22.822  0.00  0.00    +0.000 A 
ATOM     24  C   UNL     1      -1.306  14.022  23.502  0.00  0.00    +0.000 A 
ATOM     25  C   UNL     1      -2.018  14.601  24.552  0.00  0.00    +0.000 A 
ATOM     26 CL   UNL     1      -1.362  15.962  25.380  0.00  0.00    +0.000 Cl
ATOM     27  C   UNL     1      -3.251  14.090  24.940  0.00  0.00    +0.000 A 
ATOM     28  C   UNL     1      -3.778  13.005  24.247  0.00  0.00    +0.000 A 
ATOM     29 CL   UNL     1      -5.300  12.356  24.724  0.00  0.00    +0.000 Cl
ATOM     30  C   UNL     1      -3.081  12.425  23.182  0.00  0.00    +0.000 A 
ENDBRANCH  21  23
ENDBRANCH   5  19
TORSDOF 4
ENDMDL
MODEL 5
REMARK VINA RESULT:      -8.2      4.048      5.694
REMARK  Name = 
REMARK  4 active torsions:
REMARK  status: ('A' for Active; 'I' for Inactive)
REMARK    1  A    between atoms: C_2  and  C_12
REMARK    2  A    between atoms: N_3  and  C_4
REMARK    3  A    between atoms: C_16  and  C_17
REMARK    4  A    between atoms: N_19  and  C_20
REMARK                            x       y       z     vdW  Elec       q    Type
REMARK                         _______ _______ _______ _____ _____    ______ ____
ROOT
ATOM      1  C   UNL     1       4.046   5.976  17.620  0.00  0.00    +0.000 A 
ATOM      2  C   UNL     1       3.982   4.843  18.430  0.00  0.00    +0.000 A 
ATOM      3  C   UNL     1       3.185   4.899  19.563  0.00  0.00    +0.000 A 
ATOM      4  N   UNL     1       2.462   5.981  19.925  0.00  0.00    +0.000 NA
ATOM      5  C   UNL     1       2.547   7.070  19.109  0.00  0.00    +0.000 A 
ATOM      6  C   UNL     1       3.328   7.118  17.965  0.00  0.00    +0.000 A 
ENDROOT
BRANCH   1   8
ATOM      7  O   UNL     1       5.296   7.113  16.023  0.00  0.00    +0.000 OA
ATOM      8  C   UNL     1       4.892   6.021  16.400  0.00  0.00    +0.000 C 
ATOM      9  N   UNL     1       5.082   4.804  15.772  0.00  0.00    +0.000 N 
ATOM     10  H   UNL     1       4.522   4.025  16.095  0.00  0.00    +0.000 HD
BRANCH   9  11
ATOM     11  C   UNL     1       5.835   4.582  14.596  0.00  0.00    +0.000 A 
ATOM     12  C   UNL     1       7.002   5.281  14.279  0.00  0.00    +0.000 A 
ATOM     13  C   UNL     1       7.670   5.025  13.080  0.00  0.00    +0.000 A 
ATOM     14 CL   UNL     1       9.106   5.894  12.700  0.00  0.00    +0.000 Cl
ATOM     15  C   UNL     1       7.188   4.074  12.185  0.00  0.00    +0.000 A 
ATOM     16  C   UNL     1       6.040   3.362  12.512  0.00  0.00    +0.000 A 
ATOM     17 CL   UNL     1       5.426   2.185  11.416  0.00  0.00    +0.000 Cl
ATOM     18  C   UNL     1       5.370   3.600  13.714  0.00  0.00    +0.000 A 
ENDBRANCH   9  11
ENDBRANCH   1   8
BRANCH   5  19
ATOM     19  C   UNL     1       1.728   8.263  19.487  0.00  0.00    +0.000 C 
ATOM     20  O   UNL     1       1.371   8.396  20.652  0.00  0.00    +0.000 OA
ATOM     21  N   UNL     1       1.421   9.107  18.431  0.00  0.00    +0.000 N 
ATOM     22  H   UNL     1       1.723   8.773  17.518  0.00  0.00    +0.000 HD
BRANCH  21  23
ATOM     23  C   UNL     1       0.650  10.285  18.502  0.00  0.00    +0.000 A 
ATOM     24  C   UNL     1      -0.736  10.303  18.309  0.00  0.00    +0.000 A 
ATOM     25  C   UNL     1      -1.438  11.508  18.338  0.00  0.00    +0.000 A 
ATOM     26 CL   UNL     1      -3.143  11.508  18.094  0.00  0.00    +0.000 Cl
ATOM     27  C   UNL     1      -0.776  12.709  18.560  0.00  0.00    +0.000 A 
ATOM     28  C   UNL     1       0.598  12.690  18.778  0.00  0.00    +0.000 A 
ATOM     29 CL   UNL     1       1.432  14.174  19.045  0.00  0.00    +0.000 Cl
ATOM     30  C   UNL     1       1.311  11.488  18.767  0.00  0.00    +0.000 A 
ENDBRANCH  21  23
ENDBRANCH   5  19
TORSDOF 4
ENDMDL
MODEL 6
REMARK VINA RESULT:      -8.1      0.537     10.553
REMARK  Name = 
REMARK  4 active torsions:
REMARK  status: ('A' for Active; 'I' for Inactive)
REMARK    1  A    between atoms: C_2  and  C_12
REMARK    2  A    between atoms: N_3  and  C_4
REMARK    3  A    between atoms: C_16  and  C_17
REMARK    4  A    between atoms: N_19  and  C_20
REMARK                            x       y       z     vdW  Elec       q    Type
REMARK                         _______ _______ _______ _____ _____    ______ ____
ROOT
ATOM      1  C   UNL     1       0.485  10.654  20.733  0.00  0.00    +0.000 A 
ATOM      2  C   UNL     1       0.664  11.508  19.644  0.00  0.00    +0.000 A 
ATOM      3  C   UNL     1       1.327  11.012  18.532  0.00  0.00    +0.000 A 
ATOM      4  N   UNL     1       1.803   9.751  18.436  0.00  0.00    +0.000 NA
ATOM      5  C   UNL     1       1.610   8.945  19.518  0.00  0.00    +0.000 A 
ATOM      6  C   UNL     1       0.974   9.351  20.681  0.00  0.00    +0.000 A 
ENDROOT
BRANCH   1   8
ATOM      7  O   UNL     1       0.022  10.469  23.003  0.00  0.00    +0.000 OA
ATOM      8  C   UNL     1      -0.190  11.101  21.977  0.00  0.00    +0.000 C 
ATOM      9  N   UNL     1      -1.055  12.170  21.825  0.00  0.00    +0.000 N 
ATOM     10  H   UNL     1      -1.272  12.457  20.879  0.00  0.00    +0.000 HD
BRANCH   9  11
ATOM     11  C   UNL     1      -1.820  12.774  22.848  0.00  0.00    +0.000 A 
ATOM     12  C   UNL     1      -3.045  12.274  23.297  0.00  0.00    +0.000 A 
ATOM     13  C   UNL     1      -3.757  12.950  24.291  0.00  0.00    +0.000 A 
ATOM     14 CL   UNL     1      -5.266  12.324  24.834  0.00  0.00    +0.000 Cl
ATOM     15  C   UNL     1      -3.262  14.125  24.848  0.00  0.00    +0.000 A 
ATOM     16  C   UNL     1      -2.033  14.609  24.417  0.00  0.00    +0.000 A 
ATOM     17 CL   UNL     1      -1.406  16.063  25.092  0.00  0.00    +0.000 Cl
ATOM     18  C   UNL     1      -1.305  13.936  23.434  0.00  0.00    +0.000 A 
ENDBRANCH   9  11
ENDBRANCH   1   8
BRANCH   5  19
ATOM     19  C   UNL     1       2.109   7.539  19.411  0.00  0.00    +0.000 C 
ATOM     20  O   UNL     1       1.952   6.777  20.358  0.00  0.00    +0.000 OA
ATOM     21  N   UNL     1       2.751   7.246  18.217  0.00  0.00    +0.000 N 
ATOM     22  H   UNL     1       2.872   8.041  17.593  0.00  0.00    +0.000 HD
BRANCH  21  23
ATOM     23  C   UNL     1       3.333   6.012  17.864  0.00  0.00    +0.000 A 
ATOM     24  C   UNL     1       2.630   4.802  17.884  0.00  0.00    +0.000 A 
ATOM     25  C   UNL     1       3.275   3.605  17.575  0.00  0.00    +0.000 A 
ATOM     26 CL   UNL     1       2.392   2.127  17.611  0.00  0.00    +0.000 Cl
ATOM     27  C   UNL     1       4.624   3.591  17.242  0.00  0.00    +0.000 A 
ATOM     28  C   UNL     1       5.318   4.797  17.196  0.00  0.00    +0.000 A 
ATOM     29 CL   UNL     1       6.993   4.792  16.794  0.00  0.00    +0.000 Cl
ATOM     30  C   UNL     1       4.680   6.006  17.488  0.00  0.00    +0.000 A 
ENDBRANCH  21  23
ENDBRANCH   5  19
TORSDOF 4
ENDMDL
MODEL 7
REMARK VINA RESULT:      -8.1      0.551     10.668
REMARK  Name = 
REMARK  4 active torsions:
REMARK  status: ('A' for Active; 'I' for Inactive)
REMARK    1  A    between atoms: C_2  and  C_12
REMARK    2  A    between atoms: N_3  and  C_4
REMARK    3  A    between atoms: C_16  and  C_17
REMARK    4  A    between atoms: N_19  and  C_20
REMARK                            x       y       z     vdW  Elec       q    Type
REMARK                         _______ _______ _______ _____ _____    ______ ____
ROOT
ATOM      1  C   UNL     1       0.349  10.718  20.726  0.00  0.00    +0.000 A 
ATOM      2  C   UNL     1       0.430  11.515  19.584  0.00  0.00    +0.000 A 
ATOM      3  C   UNL     1       1.052  10.984  18.464  0.00  0.00    +0.000 A 
ATOM      4  N   UNL     1       1.577   9.740  18.410  0.00  0.00    +0.000 NA
ATOM      5  C   UNL     1       1.478   8.989  19.543  0.00  0.00    +0.000 A 
ATOM      6  C   UNL     1       0.892   9.435  20.717  0.00  0.00    +0.000 A 
ENDROOT
BRANCH   1   8
ATOM      7  O   UNL     1      -0.070  10.573  23.008  0.00  0.00    +0.000 OA
ATOM      8  C   UNL     1      -0.274  11.208  21.981  0.00  0.00    +0.000 C 
ATOM      9  N   UNL     1      -1.088  12.316  21.840  0.00  0.00    +0.000 N 
ATOM     10  H   UNL     1      -1.312  12.607  20.896  0.00  0.00    +0.000 HD
BRANCH   9  11
ATOM     11  C   UNL     1      -1.800  12.966  22.874  0.00  0.00    +0.000 A 
ATOM     12  C   UNL     1      -1.321  14.083  23.561  0.00  0.00    +0.000 A 
ATOM     13  C   UNL     1      -2.072  14.647  24.595  0.00  0.00    +0.000 A 
ATOM     14 CL   UNL     1      -1.470  16.024  25.434  0.00  0.00    +0.000 Cl
ATOM     15  C   UNL     1      -3.303  14.110  24.956  0.00  0.00    +0.000 A 
ATOM     16  C   UNL     1      -3.790  13.012  24.257  0.00  0.00    +0.000 A 
ATOM     17 CL   UNL     1      -5.310  12.330  24.691  0.00  0.00    +0.000 Cl
ATOM     18  C   UNL     1      -3.055  12.446  23.213  0.00  0.00    +0.000 A 
ENDBRANCH   9  11
ENDBRANCH   1   8
BRANCH   5  19
ATOM     19  C   UNL     1       2.032   7.601  19.484  0.00  0.00    +0.000 C 
ATOM     20  O   UNL     1       1.954   6.886  20.476  0.00  0.00    +0.000 OA
ATOM     21  N   UNL     1       2.626   7.271  18.276  0.00  0.00    +0.000 N 
ATOM     22  H   UNL     1       2.682   8.035  17.606  0.00  0.00    +0.000 HD
BRANCH  21  23
ATOM     23  C   UNL     1       3.243   6.043  17.958  0.00  0.00    +0.000 A 
ATOM     24  C   UNL     1       2.550   4.828  17.919  0.00  0.00    +0.000 A 
ATOM     25  C   UNL     1       3.226   3.638  17.650  0.00  0.00    +0.000 A 
ATOM     26 CL   UNL     1       2.354   2.153  17.611  0.00  0.00    +0.000 Cl
ATOM     27  C   UNL     1       4.595   3.637  17.416  0.00  0.00    +0.000 A 
ATOM     28  C   UNL     1       5.281   4.848  17.428  0.00  0.00    +0.000 A 
ATOM     29 CL   UNL     1       6.981   4.859  17.149  0.00  0.00    +0.000 Cl
ATOM     30  C   UNL     1       4.613   6.050  17.681  0.00  0.00    +0.000 A 
ENDBRANCH  21  23
ENDBRANCH   5  19
TORSDOF 4
ENDMDL
MODEL 8
REMARK VINA RESULT:      -8.1      0.558     10.806
REMARK  Name = 
REMARK  4 active torsions:
REMARK  status: ('A' for Active; 'I' for Inactive)
REMARK    1  A    between atoms: C_2  and  C_12
REMARK    2  A    between atoms: N_3  and  C_4
REMARK    3  A    between atoms: C_16  and  C_17
REMARK    4  A    between atoms: N_19  and  C_20
REMARK                            x       y       z     vdW  Elec       q    Type
REMARK                         _______ _______ _______ _____ _____    ______ ____
ROOT
ATOM      1  C   UNL     1       0.314  10.642  20.713  0.00  0.00    +0.000 A 
ATOM      2  C   UNL     1       0.323  11.404  19.544  0.00  0.00    +0.000 A 
ATOM      3  C   UNL     1       0.932  10.864  18.421  0.00  0.00    +0.000 A 
ATOM      4  N   UNL     1       1.511   9.643  18.390  0.00  0.00    +0.000 NA
ATOM      5  C   UNL     1       1.482   8.926  19.549  0.00  0.00    +0.000 A 
ATOM      6  C   UNL     1       0.913   9.385  20.727  0.00  0.00    +0.000 A 
ENDROOT
BRANCH   1   8
ATOM      7  O   UNL     1      -0.082  10.517  23.000  0.00  0.00    +0.000 OA
ATOM      8  C   UNL     1      -0.292  11.146  21.971  0.00  0.00    +0.000 C 
ATOM      9  N   UNL     1      -1.097  12.260  21.831  0.00  0.00    +0.000 N 
ATOM     10  H   UNL     1      -1.329  12.547  20.888  0.00  0.00    +0.000 HD
BRANCH   9  11
ATOM     11  C   UNL     1      -1.792  12.923  22.869  0.00  0.00    +0.000 A 
ATOM     12  C   UNL     1      -1.294  14.038  23.546  0.00  0.00    +0.000 A 
ATOM     13  C   UNL     1      -2.029  14.616  24.584  0.00  0.00    +0.000 A 
ATOM     14 CL   UNL     1      -1.403  15.989  25.411  0.00  0.00    +0.000 Cl
ATOM     15  C   UNL     1      -3.263  14.094  24.958  0.00  0.00    +0.000 A 
ATOM     16  C   UNL     1      -3.769  12.999  24.269  0.00  0.00    +0.000 A 
ATOM     17 CL   UNL     1      -5.293  12.336  24.720  0.00  0.00    +0.000 Cl
ATOM     18  C   UNL     1      -3.050  12.420  23.221  0.00  0.00    +0.000 A 
ENDBRANCH   9  11
ENDBRANCH   1   8
BRANCH   5  19
ATOM     19  C   UNL     1       2.095   7.562  19.516  0.00  0.00    +0.000 C 
ATOM     20  O   UNL     1       2.039   6.860  20.518  0.00  0.00    +0.000 OA
ATOM     21  N   UNL     1       2.714   7.240  18.319  0.00  0.00    +0.000 N 
ATOM     22  H   UNL     1       2.744   7.996  17.638  0.00  0.00    +0.000 HD
BRANCH  21  23
ATOM     23  C   UNL     1       3.386   6.035  18.025  0.00  0.00    +0.000 A 
ATOM     24  C   UNL     1       4.755   5.974  17.741  0.00  0.00    +0.000 A 
ATOM     25  C   UNL     1       5.353   4.759  17.405  0.00  0.00    +0.000 A 
ATOM     26 CL   UNL     1       7.038   4.707  17.054  0.00  0.00    +0.000 Cl
ATOM     27  C   UNL     1       4.603   3.591  17.347  0.00  0.00    +0.000 A 
ATOM     28  C   UNL     1       3.247   3.646  17.656  0.00  0.00    +0.000 A 
ATOM     29 CL   UNL     1       2.304   2.207  17.579  0.00  0.00    +0.000 Cl
ATOM     30  C   UNL     1       2.638   4.854  18.009  0.00  0.00    +0.000 A 
ENDBRANCH  21  23
ENDBRANCH   5  19
TORSDOF 4
ENDMDL
MODEL 9
REMARK VINA RESULT:      -8.1      3.775     11.467
REMARK  Name = 
REMARK  4 active torsions:
REMARK  status: ('A' for Active; 'I' for Inactive)
REMARK    1  A    between atoms: C_2  and  C_12
REMARK    2  A    between atoms: N_3  and  C_4
REMARK    3  A    between atoms: C_16  and  C_17
REMARK    4  A    between atoms: N_19  and  C_20
REMARK                            x       y       z     vdW  Elec       q    Type
REMARK                         _______ _______ _______ _____ _____    ______ ____
ROOT
ATOM      1  C   UNL     1       2.698   7.134  18.716  0.00  0.00    +0.000 A 
ATOM      2  C   UNL     1       2.412   6.350  19.834  0.00  0.00    +0.000 A 
ATOM      3  C   UNL     1       3.088   5.147  19.974  0.00  0.00    +0.000 A 
ATOM      4  N   UNL     1       4.010   4.693  19.097  0.00  0.00    +0.000 NA
ATOM      5  C   UNL     1       4.265   5.485  18.017  0.00  0.00    +0.000 A 
ATOM      6  C   UNL     1       3.631   6.695  17.780  0.00  0.00    +0.000 A 
ENDROOT
BRANCH   1   8
ATOM      7  O   UNL     1       2.218   8.992  17.403  0.00  0.00    +0.000 OA
ATOM      8  C   UNL     1       2.008   8.425  18.467  0.00  0.00    +0.000 C 
ATOM      9  N   UNL     1       1.234   8.890  19.515  0.00  0.00    +0.000 N 
ATOM     10  H   UNL     1       1.318   8.406  20.400  0.00  0.00    +0.000 HD
BRANCH   9  11
ATOM     11  C   UNL     1       0.489  10.090  19.532  0.00  0.00    +0.000 A 
ATOM     12  C   UNL     1      -0.758  10.237  18.920  0.00  0.00    +0.000 A 
ATOM     13  C   UNL     1      -1.417  11.468  18.954  0.00  0.00    +0.000 A 
ATOM     14 CL   UNL     1      -2.952  11.636  18.195  0.00  0.00    +0.000 Cl
ATOM     15  C   UNL     1      -0.846  12.564  19.595  0.00  0.00    +0.000 A 
ATOM     16  C   UNL     1       0.383  12.411  20.223  0.00  0.00    +0.000 A 
ATOM     17 CL   UNL     1       1.108  13.756  21.018  0.00  0.00    +0.000 Cl
ATOM     18  C   UNL     1       1.046  11.182  20.207  0.00  0.00    +0.000 A 
ENDBRANCH   9  11
ENDBRANCH   1   8
BRANCH   5  19
ATOM     19  C   UNL     1       5.304   5.004  17.056  0.00  0.00    +0.000 C 
ATOM     20  O   UNL     1       6.355   4.551  17.493  0.00  0.00    +0.000 OA
ATOM     21  N   UNL     1       4.966   5.156  15.720  0.00  0.00    +0.000 N 
ATOM     22  H   UNL     1       4.089   5.647  15.556  0.00  0.00    +0.000 HD
BRANCH  21  23
ATOM     23  C   UNL     1       5.766   4.808  14.612  0.00  0.00    +0.000 A 
ATOM     24  C   UNL     1       6.974   5.446  14.312  0.00  0.00    +0.000 A 
ATOM     25  C   UNL     1       7.695   5.094  13.171  0.00  0.00    +0.000 A 
ATOM     26 CL   UNL     1       9.178   5.895  12.818  0.00  0.00    +0.000 Cl
ATOM     27  C   UNL     1       7.228   4.105  12.314  0.00  0.00    +0.000 A 
ATOM     28  C   UNL     1       6.040   3.451  12.625  0.00  0.00    +0.000 A 
ATOM     29 CL   UNL     1       5.445   2.230  11.566  0.00  0.00    +0.000 Cl
ATOM     30  C   UNL     1       5.315   3.784  13.774  0.00  0.00    +0.000 A 
ENDBRANCH  21  23
ENDBRANCH   5  19
TORSDOF 4
ENDMDL
