MODEL 1
REMARK VINA RESULT:      -8.3      0.000      0.000
REMARK  Name = 
REMARK  9 active torsions:
REMARK  status: ('A' for Active; 'I' for Inactive)
REMARK    1  A    between atoms: C_1  and  O_2
REMARK    2  A    between atoms: O_2  and  C_3
REMARK    3  A    between atoms: C_3  and  C_4
REMARK    4  A    between atoms: C_3  and  C_10
REMARK    5  A    between atoms: C_6  and  C_7
REMARK    6  A    between atoms: C_15  and  C_16
REMARK    7  A    between atoms: N_17  and  N_18
REMARK    8  A    between atoms: C_19  and  C_20
REMARK    9  A    between atoms: C_19  and  C_21
REMARK                            x       y       z     vdW  Elec       q    Type
REMARK                         _______ _______ _______ _____ _____    ______ ____
ROOT
ATOM      1  C   UNL     1       4.194   4.512  19.240  0.00  0.00    +0.000 A 
ATOM      2  C   UNL     1       4.478   3.204  19.699  0.00  0.00    +0.000 A 
ATOM      3  C   UNL     1       3.487   2.380  20.220  0.00  0.00    +0.000 A 
ATOM      4  C   UNL     1       2.170   2.819  20.232  0.00  0.00    +0.000 A 
ATOM      5  C   UNL     1       1.849   4.088  19.740  0.00  0.00    +0.000 A 
ATOM      6  C   UNL     1       2.854   4.948  19.260  0.00  0.00    +0.000 A 
ENDROOT
BRANCH   6   7
ATOM      7  C   UNL     1       2.401   6.301  18.838  0.00  0.00    +0.000 C 
ATOM      8  N   UNL     1       2.287   7.273  19.677  0.00  0.00    +0.000 NA
BRANCH   8   9
ATOM      9  N   UNL     1       1.833   8.452  19.097  0.00  0.00    +0.000 NA
ATOM     10  C   UNL     1       1.083   9.170  19.893  0.00  0.00    +0.000 C 
ATOM     11  C   UNL     1       0.741   8.769  21.324  0.00  0.00    +0.000 C 
BRANCH  10  12
ATOM     12  C   UNL     1       0.459  10.430  19.388  0.00  0.00    +0.000 A 
ATOM     13  C   UNL     1       0.973  11.681  19.767  0.00  0.00    +0.000 A 
ATOM     14  C   UNL     1       0.346  12.862  19.367  0.00  0.00    +0.000 A 
ATOM     15  C   UNL     1      -0.797  12.803  18.574  0.00  0.00    +0.000 A 
ATOM     16  C   UNL     1      -1.299  11.563  18.172  0.00  0.00    +0.000 A 
ATOM     17 CL   UNL     1      -2.708  11.507  17.187  0.00  0.00    +0.000 Cl
ATOM     18  C   UNL     1      -0.679  10.377  18.573  0.00  0.00    +0.000 A 
ENDBRANCH  10  12
ENDBRANCH   8   9
ENDBRANCH   6   7
BRANCH   1  19
ATOM     19  C   UNL     1       5.349   5.356  18.716  0.00  0.00    +0.000 C 
BRANCH  19  20
ATOM     20  C   UNL     1       5.516   5.190  17.240  0.00  0.00    +0.000 A 
ATOM     21  C   UNL     1       5.729   4.122  16.400  0.00  0.00    +0.000 A 
ATOM     22  C   UNL     1       5.768   4.686  15.106  0.00  0.00    +0.000 A 
ATOM     23  C   UNL     1       5.986   4.008  13.809  0.00  0.00    +0.000 C 
ATOM     24  N   UNL     1       5.584   6.011  15.149  0.00  0.00    +0.000 NA
ATOM     25  O   UNL     1       5.431   6.325  16.489  0.00  0.00    +0.000 OA
ENDBRANCH  19  20
BRANCH  19  27
ATOM     26  C   UNL     1       7.665   5.877  19.029  0.00  0.00    +0.000 C 
ATOM     27  O   UNL     1       6.604   4.970  19.327  0.00  0.00    +0.000 OA
ENDBRANCH  19  27
ENDBRANCH   1  19
TORSDOF 6
ENDMDL
MODEL 2
REMARK VINA RESULT:      -8.2      1.246      1.430
REMARK  Name = 
REMARK  9 active torsions:
REMARK  status: ('A' for Active; 'I' for Inactive)
REMARK    1  A    between atoms: C_1  and  O_2
REMARK    2  A    between atoms: O_2  and  C_3
REMARK    3  A    between atoms: C_3  and  C_4
REMARK    4  A    between atoms: C_3  and  C_10
REMARK    5  A    between atoms: C_6  and  C_7
REMARK    6  A    between atoms: C_15  and  C_16
REMARK    7  A    between atoms: N_17  and  N_18
REMARK    8  A    between atoms: C_19  and  C_20
REMARK    9  A    between atoms: C_19  and  C_21
REMARK                            x       y       z     vdW  Elec       q    Type
REMARK                         _______ _______ _______ _____ _____    ______ ____
ROOT
ATOM      1  C   UNL     1       4.108   4.698  19.405  0.00  0.00    +0.000 A 
ATOM      2  C   UNL     1       4.237   3.326  19.725  0.00  0.00    +0.000 A 
ATOM      3  C   UNL     1       3.178   2.595  20.252  0.00  0.00    +0.000 A 
ATOM      4  C   UNL     1       1.940   3.203  20.410  0.00  0.00    +0.000 A 
ATOM      5  C   UNL     1       1.767   4.545  20.057  0.00  0.00    +0.000 A 
ATOM      6  C   UNL     1       2.847   5.305  19.573  0.00  0.00    +0.000 A 
ENDROOT
BRANCH   6   7
ATOM      7  C   UNL     1       2.561   6.741  19.307  0.00  0.00    +0.000 C 
ATOM      8  N   UNL     1       1.843   7.451  20.108  0.00  0.00    +0.000 NA
BRANCH   8   9
ATOM      9  N   UNL     1       1.672   8.763  19.680  0.00  0.00    +0.000 NA
ATOM     10  C   UNL     1       0.704   9.390  20.295  0.00  0.00    +0.000 C 
ATOM     11  C   UNL     1      -0.156   8.760  21.385  0.00  0.00    +0.000 C 
BRANCH  10  12
ATOM     12  C   UNL     1       0.350  10.786  19.893  0.00  0.00    +0.000 A 
ATOM     13  C   UNL     1      -0.961  11.262  20.052  0.00  0.00    +0.000 A 
ATOM     14  C   UNL     1      -1.318  12.535  19.603  0.00  0.00    +0.000 A 
ATOM     15  C   UNL     1      -0.363  13.348  18.999  0.00  0.00    +0.000 A 
ATOM     16  C   UNL     1       0.950  12.890  18.861  0.00  0.00    +0.000 A 
ATOM     17 CL   UNL     1       2.121  13.909  18.119  0.00  0.00    +0.000 Cl
ATOM     18  C   UNL     1       1.313  11.616  19.304  0.00  0.00    +0.000 A 
ENDBRANCH  10  12
ENDBRANCH   8   9
ENDBRANCH   6   7
BRANCH   1  19
ATOM     19  C   UNL     1       5.331   5.427  18.863  0.00  0.00    +0.000 C 
BRANCH  19  20
ATOM     20  C   UNL     1       5.439   5.277  17.381  0.00  0.00    +0.000 A 
ATOM     21  C   UNL     1       5.657   4.223  16.523  0.00  0.00    +0.000 A 
ATOM     22  C   UNL     1       5.616   4.797  15.233  0.00  0.00    +0.000 A 
ATOM     23  C   UNL     1       5.802   4.135  13.922  0.00  0.00    +0.000 C 
ATOM     24  N   UNL     1       5.381   6.112  15.294  0.00  0.00    +0.000 NA
ATOM     25  O   UNL     1       5.275   6.412  16.642  0.00  0.00    +0.000 OA
ENDBRANCH  19  20
BRANCH  19  27
ATOM     26  C   UNL     1       7.666   5.779  19.266  0.00  0.00    +0.000 C 
ATOM     27  O   UNL     1       6.555   4.897  19.429  0.00  0.00    +0.000 OA
ENDBRANCH  19  27
ENDBRANCH   1  19
TORSDOF 6
ENDMDL
MODEL 3
REMARK VINA RESULT:      -8.1      1.513      1.720
REMARK  Name = 
REMARK  9 active torsions:
REMARK  status: ('A' for Active; 'I' for Inactive)
REMARK    1  A    between atoms: C_1  and  O_2
REMARK    2  A    between atoms: O_2  and  C_3
REMARK    3  A    between atoms: C_3  and  C_4
REMARK    4  A    between atoms: C_3  and  C_10
REMARK    5  A    between atoms: C_6  and  C_7
REMARK    6  A    between atoms: C_15  and  C_16
REMARK    7  A    between atoms: N_17  and  N_18
REMARK    8  A    between atoms: C_19  and  C_20
REMARK    9  A    between atoms: C_19  and  C_21
REMARK                            x       y       z     vdW  Elec       q    Type
REMARK                         _______ _______ _______ _____ _____    ______ ____
ROOT
ATOM      1  C   UNL     1       4.485   4.710  18.251  0.00  0.00    +0.000 A 
ATOM      2  C   UNL     1       4.454   3.321  18.519  0.00  0.00    +0.000 A 
ATOM      3  C   UNL     1       3.287   2.678  18.916  0.00  0.00    +0.000 A 
ATOM      4  C   UNL     1       2.102   3.398  18.990  0.00  0.00    +0.000 A 
ATOM      5  C   UNL     1       2.090   4.762  18.684  0.00  0.00    +0.000 A 
ATOM      6  C   UNL     1       3.276   5.430  18.332  0.00  0.00    +0.000 A 
ENDROOT
BRANCH   6   7
ATOM      7  C   UNL     1       3.152   6.896  18.107  0.00  0.00    +0.000 C 
ATOM      8  N   UNL     1       2.007   7.488  18.097  0.00  0.00    +0.000 NA
BRANCH   8   9
ATOM      9  N   UNL     1       2.094   8.854  17.852  0.00  0.00    +0.000 NA
ATOM     10  C   UNL     1       1.565   9.588  18.796  0.00  0.00    +0.000 C 
ATOM     11  C   UNL     1       0.921   9.015  20.053  0.00  0.00    +0.000 C 
BRANCH  10  12
ATOM     12  C   UNL     1       1.517  11.074  18.641  0.00  0.00    +0.000 A 
ATOM     13  C   UNL     1       2.569  11.760  18.016  0.00  0.00    +0.000 A 
ATOM     14  C   UNL     1       2.569  13.154  17.942  0.00  0.00    +0.000 A 
ATOM     15  C   UNL     1       1.510  13.875  18.485  0.00  0.00    +0.000 A 
ATOM     16  C   UNL     1       0.446  13.197  19.086  0.00  0.00    +0.000 A 
ATOM     17 CL   UNL     1      -0.861  14.102  19.745  0.00  0.00    +0.000 Cl
ATOM     18  C   UNL     1       0.442  11.803  19.167  0.00  0.00    +0.000 A 
ENDBRANCH  10  12
ENDBRANCH   8   9
ENDBRANCH   6   7
BRANCH   1  19
ATOM     19  C   UNL     1       5.816   5.335  17.853  0.00  0.00    +0.000 C 
BRANCH  19  20
ATOM     20  C   UNL     1       6.156   5.028  16.431  0.00  0.00    +0.000 A 
ATOM     21  C   UNL     1       5.638   4.198  15.464  0.00  0.00    +0.000 A 
ATOM     22  C   UNL     1       6.444   4.425  14.327  0.00  0.00    +0.000 A 
ATOM     23  C   UNL     1       6.357   3.792  12.992  0.00  0.00    +0.000 C 
ATOM     24  N   UNL     1       7.389   5.339  14.577  0.00  0.00    +0.000 NA
ATOM     25  O   UNL     1       7.210   5.712  15.899  0.00  0.00    +0.000 OA
ENDBRANCH  19  20
BRANCH  19  27
ATOM     26  C   UNL     1       7.629   5.858  19.328  0.00  0.00    +0.000 C 
ATOM     27  O   UNL     1       6.902   4.824  18.664  0.00  0.00    +0.000 OA
ENDBRANCH  19  27
ENDBRANCH   1  19
TORSDOF 6
ENDMDL
MODEL 4
REMARK VINA RESULT:      -8.1      1.413      1.557
REMARK  Name = 
REMARK  9 active torsions:
REMARK  status: ('A' for Active; 'I' for Inactive)
REMARK    1  A    between atoms: C_1  and  O_2
REMARK    2  A    between atoms: O_2  and  C_3
REMARK    3  A    between atoms: C_3  and  C_4
REMARK    4  A    between atoms: C_3  and  C_10
REMARK    5  A    between atoms: C_6  and  C_7
REMARK    6  A    between atoms: C_15  and  C_16
REMARK    7  A    between atoms: N_17  and  N_18
REMARK    8  A    between atoms: C_19  and  C_20
REMARK    9  A    between atoms: C_19  and  C_21
REMARK                            x       y       z     vdW  Elec       q    Type
REMARK                         _______ _______ _______ _____ _____    ______ ____
ROOT
ATOM      1  C   UNL     1       4.170   4.299  17.499  0.00  0.00    +0.000 A 
ATOM      2  C   UNL     1       4.446   2.911  17.486  0.00  0.00    +0.000 A 
ATOM      3  C   UNL     1       3.475   1.970  17.810  0.00  0.00    +0.000 A 
ATOM      4  C   UNL     1       2.182   2.390  18.090  0.00  0.00    +0.000 A 
ATOM      5  C   UNL     1       1.866   3.752  18.064  0.00  0.00    +0.000 A 
ATOM      6  C   UNL     1       2.855   4.714  17.789  0.00  0.00    +0.000 A 
ENDROOT
BRANCH   6   7
ATOM      7  C   UNL     1       2.417   6.134  17.867  0.00  0.00    +0.000 C 
ATOM      8  N   UNL     1       2.702   6.878  18.881  0.00  0.00    +0.000 NA
BRANCH   8   9
ATOM      9  N   UNL     1       2.190   8.167  18.780  0.00  0.00    +0.000 NA
ATOM     10  C   UNL     1       1.470   8.525  19.811  0.00  0.00    +0.000 C 
ATOM     11  C   UNL     1       1.216   7.629  21.018  0.00  0.00    +0.000 C 
BRANCH  10  12
ATOM     12  C   UNL     1       0.791   9.856  19.817  0.00  0.00    +0.000 A 
ATOM     13  C   UNL     1       0.982  10.748  20.884  0.00  0.00    +0.000 A 
ATOM     14  C   UNL     1       0.287  11.958  20.936  0.00  0.00    +0.000 A 
ATOM     15  C   UNL     1      -0.598  12.292  19.915  0.00  0.00    +0.000 A 
ATOM     16  C   UNL     1      -0.773  11.420  18.837  0.00  0.00    +0.000 A 
ATOM     17 CL   UNL     1      -1.865  11.850  17.579  0.00  0.00    +0.000 Cl
ATOM     18  C   UNL     1      -0.084  10.206  18.781  0.00  0.00    +0.000 A 
ENDBRANCH  10  12
ENDBRANCH   8   9
ENDBRANCH   6   7
BRANCH   1  19
ATOM     19  C   UNL     1       5.304   5.259  17.162  0.00  0.00    +0.000 C 
BRANCH  19  20
ATOM     20  C   UNL     1       5.886   4.961  15.818  0.00  0.00    +0.000 A 
ATOM     21  C   UNL     1       5.467   4.261  14.710  0.00  0.00    +0.000 A 
ATOM     22  C   UNL     1       6.517   4.407  13.776  0.00  0.00    +0.000 A 
ATOM     23  C   UNL     1       6.620   3.850  12.410  0.00  0.00    +0.000 C 
ATOM     24  N   UNL     1       7.510   5.152  14.275  0.00  0.00    +0.000 NA
ATOM     25  O   UNL     1       7.114   5.495  15.557  0.00  0.00    +0.000 OA
ENDBRANCH  19  20
BRANCH  19  27
ATOM     26  C   UNL     1       5.966   5.425  19.457  0.00  0.00    +0.000 C 
ATOM     27  O   UNL     1       6.386   5.156  18.120  0.00  0.00    +0.000 OA
ENDBRANCH  19  27
ENDBRANCH   1  19
TORSDOF 6
ENDMDL
MODEL 5
REMARK VINA RESULT:      -8.1      1.740      1.972
REMARK  Name = 
REMARK  9 active torsions:
REMARK  status: ('A' for Active; 'I' for Inactive)
REMARK    1  A    between atoms: C_1  and  O_2
REMARK    2  A    between atoms: O_2  and  C_3
REMARK    3  A    between atoms: C_3  and  C_4
REMARK    4  A    between atoms: C_3  and  C_10
REMARK    5  A    between atoms: C_6  and  C_7
REMARK    6  A    between atoms: C_15  and  C_16
REMARK    7  A    between atoms: N_17  and  N_18
REMARK    8  A    between atoms: C_19  and  C_20
REMARK    9  A    between atoms: C_19  and  C_21
REMARK                            x       y       z     vdW  Elec       q    Type
REMARK                         _______ _______ _______ _____ _____    ______ ____
ROOT
ATOM      1  C   UNL     1       4.194   4.181  17.658  0.00  0.00    +0.000 A 
ATOM      2  C   UNL     1       4.352   2.782  17.796  0.00  0.00    +0.000 A 
ATOM      3  C   UNL     1       3.274   1.947  18.068  0.00  0.00    +0.000 A 
ATOM      4  C   UNL     1       1.996   2.483  18.143  0.00  0.00    +0.000 A 
ATOM      5  C   UNL     1       1.800   3.856  17.963  0.00  0.00    +0.000 A 
ATOM      6  C   UNL     1       2.892   4.715  17.740  0.00  0.00    +0.000 A 
ENDROOT
BRANCH   6   7
ATOM      7  C   UNL     1       2.567   6.164  17.644  0.00  0.00    +0.000 C 
ATOM      8  N   UNL     1       2.702   6.959  18.650  0.00  0.00    +0.000 NA
BRANCH   8   9
ATOM      9  N   UNL     1       2.331   8.269  18.371  0.00  0.00    +0.000 NA
ATOM     10  C   UNL     1       1.610   8.820  19.312  0.00  0.00    +0.000 C 
ATOM     11  C   UNL     1       1.216   8.108  20.602  0.00  0.00    +0.000 C 
BRANCH  10  12
ATOM     12  C   UNL     1       1.073  10.202  19.125  0.00  0.00    +0.000 A 
ATOM     13  C   UNL     1      -0.304  10.452  19.237  0.00  0.00    +0.000 A 
ATOM     14  C   UNL     1      -0.822  11.723  18.982  0.00  0.00    +0.000 A 
ATOM     15  C   UNL     1       0.035  12.759  18.622  0.00  0.00    +0.000 A 
ATOM     16  C   UNL     1       1.409  12.523  18.534  0.00  0.00    +0.000 A 
ATOM     17 CL   UNL     1       2.457  13.816  18.095  0.00  0.00    +0.000 Cl
ATOM     18  C   UNL     1       1.934  11.253  18.783  0.00  0.00    +0.000 A 
ENDBRANCH  10  12
ENDBRANCH   8   9
ENDBRANCH   6   7
BRANCH   1  19
ATOM     19  C   UNL     1       5.436   5.022  17.393  0.00  0.00    +0.000 C 
BRANCH  19  20
ATOM     20  C   UNL     1       5.953   4.804  16.008  0.00  0.00    +0.000 A 
ATOM     21  C   UNL     1       5.526   4.090  14.912  0.00  0.00    +0.000 A 
ATOM     22  C   UNL     1       6.495   4.349  13.917  0.00  0.00    +0.000 A 
ATOM     23  C   UNL     1       6.557   3.830  12.533  0.00  0.00    +0.000 C 
ATOM     24  N   UNL     1       7.448   5.171  14.370  0.00  0.00    +0.000 NA
ATOM     25  O   UNL     1       7.108   5.452  15.683  0.00  0.00    +0.000 OA
ENDBRANCH  19  20
BRANCH  19  27
ATOM     26  C   UNL     1       6.529   5.495  19.471  0.00  0.00    +0.000 C 
ATOM     27  O   UNL     1       6.511   4.677  18.301  0.00  0.00    +0.000 OA
ENDBRANCH  19  27
ENDBRANCH   1  19
TORSDOF 6
ENDMDL
MODEL 6
REMARK VINA RESULT:      -8.1      1.502      1.798
REMARK  Name = 
REMARK  9 active torsions:
REMARK  status: ('A' for Active; 'I' for Inactive)
REMARK    1  A    between atoms: C_1  and  O_2
REMARK    2  A    between atoms: O_2  and  C_3
REMARK    3  A    between atoms: C_3  and  C_4
REMARK    4  A    between atoms: C_3  and  C_10
REMARK    5  A    between atoms: C_6  and  C_7
REMARK    6  A    between atoms: C_15  and  C_16
REMARK    7  A    between atoms: N_17  and  N_18
REMARK    8  A    between atoms: C_19  and  C_20
REMARK    9  A    between atoms: C_19  and  C_21
REMARK                            x       y       z     vdW  Elec       q    Type
REMARK                         _______ _______ _______ _____ _____    ______ ____
ROOT
ATOM      1  C   UNL     1       4.849   5.124  18.373  0.00  0.00    +0.000 A 
ATOM      2  C   UNL     1       5.201   3.808  18.755  0.00  0.00    +0.000 A 
ATOM      3  C   UNL     1       4.324   2.993  19.463  0.00  0.00    +0.000 A 
ATOM      4  C   UNL     1       3.045   3.450  19.748  0.00  0.00    +0.000 A 
ATOM      5  C   UNL     1       2.651   4.729  19.341  0.00  0.00    +0.000 A 
ATOM      6  C   UNL     1       3.549   5.579  18.671  0.00  0.00    +0.000 A 
ENDROOT
BRANCH   6   7
ATOM      7  C   UNL     1       3.041   6.942  18.360  0.00  0.00    +0.000 C 
ATOM      8  N   UNL     1       2.229   7.562  19.147  0.00  0.00    +0.000 NA
BRANCH   8   9
ATOM      9  N   UNL     1       1.853   8.815  18.676  0.00  0.00    +0.000 NA
ATOM     10  C   UNL     1       1.113   9.488  19.518  0.00  0.00    +0.000 C 
ATOM     11  C   UNL     1       0.703   8.965  20.891  0.00  0.00    +0.000 C 
BRANCH  10  12
ATOM     12  C   UNL     1       0.569  10.823  19.125  0.00  0.00    +0.000 A 
ATOM     13  C   UNL     1      -0.789  10.973  18.805  0.00  0.00    +0.000 A 
ATOM     14  C   UNL     1      -1.287  12.198  18.357  0.00  0.00    +0.000 A 
ATOM     15  C   UNL     1      -0.432  13.289  18.237  0.00  0.00    +0.000 A 
ATOM     16  C   UNL     1       0.916  13.154  18.579  0.00  0.00    +0.000 A 
ATOM     17 CL   UNL     1       1.960  14.514  18.432  0.00  0.00    +0.000 Cl
ATOM     18  C   UNL     1       1.422  11.930  19.023  0.00  0.00    +0.000 A 
ENDBRANCH  10  12
ENDBRANCH   8   9
ENDBRANCH   6   7
BRANCH   1  19
ATOM     19  C   UNL     1       5.886   5.956  17.629  0.00  0.00    +0.000 C 
BRANCH  19  20
ATOM     20  C   UNL     1       6.155   5.398  16.269  0.00  0.00    +0.000 A 
ATOM     21  C   UNL     1       5.492   4.542  15.420  0.00  0.00    +0.000 A 
ATOM     22  C   UNL     1       6.315   4.465  14.275  0.00  0.00    +0.000 A 
ATOM     23  C   UNL     1       6.107   3.675  13.041  0.00  0.00    +0.000 C 
ATOM     24  N   UNL     1       7.406   5.228  14.409  0.00  0.00    +0.000 NA
ATOM     25  O   UNL     1       7.306   5.809  15.662  0.00  0.00    +0.000 OA
ENDBRANCH  19  20
BRANCH  19  27
ATOM     26  C   UNL     1       7.804   7.243  18.260  0.00  0.00    +0.000 C 
ATOM     27  O   UNL     1       7.152   5.976  18.333  0.00  0.00    +0.000 OA
ENDBRANCH  19  27
ENDBRANCH   1  19
TORSDOF 6
ENDMDL
MODEL 7
REMARK VINA RESULT:      -8.0      2.294      2.600
REMARK  Name = 
REMARK  9 active torsions:
REMARK  status: ('A' for Active; 'I' for Inactive)
REMARK    1  A    between atoms: C_1  and  O_2
REMARK    2  A    between atoms: O_2  and  C_3
REMARK    3  A    between atoms: C_3  and  C_4
REMARK    4  A    between atoms: C_3  and  C_10
REMARK    5  A    between atoms: C_6  and  C_7
REMARK    6  A    between atoms: C_15  and  C_16
REMARK    7  A    between atoms: N_17  and  N_18
REMARK    8  A    between atoms: C_19  and  C_20
REMARK    9  A    between atoms: C_19  and  C_21
REMARK                            x       y       z     vdW  Elec       q    Type
REMARK                         _______ _______ _______ _____ _____    ______ ____
ROOT
ATOM      1  C   UNL     1       4.144   4.891  17.485  0.00  0.00    +0.000 A 
ATOM      2  C   UNL     1       3.915   3.516  17.239  0.00  0.00    +0.000 A 
ATOM      3  C   UNL     1       2.668   2.935  17.439  0.00  0.00    +0.000 A 
ATOM      4  C   UNL     1       1.597   3.730  17.826  0.00  0.00    +0.000 A 
ATOM      5  C   UNL     1       1.781   5.102  18.030  0.00  0.00    +0.000 A 
ATOM      6  C   UNL     1       3.051   5.687  17.881  0.00  0.00    +0.000 A 
ENDROOT
BRANCH   6   7
ATOM      7  C   UNL     1       3.138   7.137  18.201  0.00  0.00    +0.000 C 
ATOM      8  N   UNL     1       2.395   8.011  17.611  0.00  0.00    +0.000 NA
BRANCH   8   9
ATOM      9  N   UNL     1       2.635   9.314  18.031  0.00  0.00    +0.000 NA
ATOM     10  C   UNL     1       1.546  10.017  18.199  0.00  0.00    +0.000 C 
ATOM     11  C   UNL     1       0.141   9.469  17.970  0.00  0.00    +0.000 C 
BRANCH  10  12
ATOM     12  C   UNL     1       1.644  11.459  18.578  0.00  0.00    +0.000 A 
ATOM     13  C   UNL     1       0.691  12.037  19.432  0.00  0.00    +0.000 A 
ATOM     14  C   UNL     1       0.729  13.402  19.724  0.00  0.00    +0.000 A 
ATOM     15  C   UNL     1       1.727  14.200  19.173  0.00  0.00    +0.000 A 
ATOM     16  C   UNL     1       2.693  13.626  18.343  0.00  0.00    +0.000 A 
ATOM     17 CL   UNL     1       3.926  14.623  17.675  0.00  0.00    +0.000 Cl
ATOM     18  C   UNL     1       2.659  12.262  18.043  0.00  0.00    +0.000 A 
ENDBRANCH  10  12
ENDBRANCH   8   9
ENDBRANCH   6   7
BRANCH   1  19
ATOM     19  C   UNL     1       5.551   5.433  17.270  0.00  0.00    +0.000 C 
BRANCH  19  20
ATOM     20  C   UNL     1       6.052   5.114  15.899  0.00  0.00    +0.000 A 
ATOM     21  C   UNL     1       5.579   4.379  14.837  0.00  0.00    +0.000 A 
ATOM     22  C   UNL     1       6.563   4.523  13.834  0.00  0.00    +0.000 A 
ATOM     23  C   UNL     1       6.591   3.934  12.477  0.00  0.00    +0.000 C 
ATOM     24  N   UNL     1       7.569   5.301  14.250  0.00  0.00    +0.000 NA
ATOM     25  O   UNL     1       7.249   5.667  15.547  0.00  0.00    +0.000 OA
ENDBRANCH  19  20
BRANCH  19  27
ATOM     26  C   UNL     1       6.525   5.541  19.455  0.00  0.00    +0.000 C 
ATOM     27  O   UNL     1       6.491   4.851  18.206  0.00  0.00    +0.000 OA
ENDBRANCH  19  27
ENDBRANCH   1  19
TORSDOF 6
ENDMDL
MODEL 8
REMARK VINA RESULT:      -8.0      1.359      1.548
REMARK  Name = 
REMARK  9 active torsions:
REMARK  status: ('A' for Active; 'I' for Inactive)
REMARK    1  A    between atoms: C_1  and  O_2
REMARK    2  A    between atoms: O_2  and  C_3
REMARK    3  A    between atoms: C_3  and  C_4
REMARK    4  A    between atoms: C_3  and  C_10
REMARK    5  A    between atoms: C_6  and  C_7
REMARK    6  A    between atoms: C_15  and  C_16
REMARK    7  A    between atoms: N_17  and  N_18
REMARK    8  A    between atoms: C_19  and  C_20
REMARK    9  A    between atoms: C_19  and  C_21
REMARK                            x       y       z     vdW  Elec       q    Type
REMARK                         _______ _______ _______ _____ _____    ______ ____
ROOT
ATOM      1  C   UNL     1       4.983   5.383  18.094  0.00  0.00    +0.000 A 
ATOM      2  C   UNL     1       5.466   4.098  18.437  0.00  0.00    +0.000 A 
ATOM      3  C   UNL     1       4.754   3.249  19.277  0.00  0.00    +0.000 A 
ATOM      4  C   UNL     1       3.505   3.638  19.743  0.00  0.00    +0.000 A 
ATOM      5  C   UNL     1       2.979   4.882  19.382  0.00  0.00    +0.000 A 
ATOM      6  C   UNL     1       3.715   5.768  18.576  0.00  0.00    +0.000 A 
ENDROOT
BRANCH   6   7
ATOM      7  C   UNL     1       3.086   7.093  18.325  0.00  0.00    +0.000 C 
ATOM      8  N   UNL     1       2.223   7.600  19.138  0.00  0.00    +0.000 NA
BRANCH   8   9
ATOM      9  N   UNL     1       1.734   8.834  18.723  0.00  0.00    +0.000 NA
ATOM     10  C   UNL     1       1.071   9.471  19.653  0.00  0.00    +0.000 C 
ATOM     11  C   UNL     1       0.856   8.930  21.062  0.00  0.00    +0.000 C 
BRANCH  10  12
ATOM     12  C   UNL     1       0.421  10.779  19.337  0.00  0.00    +0.000 A 
ATOM     13  C   UNL     1       1.173  11.838  18.803  0.00  0.00    +0.000 A 
ATOM     14  C   UNL     1       0.591  13.088  18.583  0.00  0.00    +0.000 A 
ATOM     15  C   UNL     1      -0.753  13.288  18.885  0.00  0.00    +0.000 A 
ATOM     16  C   UNL     1      -1.513  12.231  19.392  0.00  0.00    +0.000 A 
ATOM     17 CL   UNL     1      -3.175  12.491  19.754  0.00  0.00    +0.000 Cl
ATOM     18  C   UNL     1      -0.937  10.979  19.619  0.00  0.00    +0.000 A 
ENDBRANCH  10  12
ENDBRANCH   8   9
ENDBRANCH   6   7
BRANCH   1  19
ATOM     19  C   UNL     1       5.846   6.257  17.193  0.00  0.00    +0.000 C 
BRANCH  19  20
ATOM     20  C   UNL     1       6.170   5.562  15.912  0.00  0.00    +0.000 A 
ATOM     21  C   UNL     1       5.493   4.713  15.067  0.00  0.00    +0.000 A 
ATOM     22  C   UNL     1       6.401   4.453  14.016  0.00  0.00    +0.000 A 
ATOM     23  C   UNL     1       6.216   3.589  12.830  0.00  0.00    +0.000 C 
ATOM     24  N   UNL     1       7.555   5.105  14.201  0.00  0.00    +0.000 NA
ATOM     25  O   UNL     1       7.410   5.796  15.392  0.00  0.00    +0.000 OA
ENDBRANCH  19  20
BRANCH  19  27
ATOM     26  C   UNL     1       7.456   7.960  17.688  0.00  0.00    +0.000 C 
ATOM     27  O   UNL     1       7.108   6.582  17.826  0.00  0.00    +0.000 OA
ENDBRANCH  19  27
ENDBRANCH   1  19
TORSDOF 6
ENDMDL
MODEL 9
REMARK VINA RESULT:      -7.9      1.480      1.509
REMARK  Name = 
REMARK  9 active torsions:
REMARK  status: ('A' for Active; 'I' for Inactive)
REMARK    1  A    between atoms: C_1  and  O_2
REMARK    2  A    between atoms: O_2  and  C_3
REMARK    3  A    between atoms: C_3  and  C_4
REMARK    4  A    between atoms: C_3  and  C_10
REMARK    5  A    between atoms: C_6  and  C_7
REMARK    6  A    between atoms: C_15  and  C_16
REMARK    7  A    between atoms: N_17  and  N_18
REMARK    8  A    between atoms: C_19  and  C_20
REMARK    9  A    between atoms: C_19  and  C_21
REMARK                            x       y       z     vdW  Elec       q    Type
REMARK                         _______ _______ _______ _____ _____    ______ ____
ROOT
ATOM      1  C   UNL     1       3.823   4.026  18.347  0.00  0.00    +0.000 A 
ATOM      2  C   UNL     1       3.939   2.626  18.515  0.00  0.00    +0.000 A 
ATOM      3  C   UNL     1       2.825   1.818  18.715  0.00  0.00    +0.000 A 
ATOM      4  C   UNL     1       1.557   2.383  18.684  0.00  0.00    +0.000 A 
ATOM      5  C   UNL     1       1.406   3.757  18.472  0.00  0.00    +0.000 A 
ATOM      6  C   UNL     1       2.531   4.589  18.321  0.00  0.00    +0.000 A 
ENDROOT
BRANCH   6   7
ATOM      7  C   UNL     1       2.247   6.042  18.181  0.00  0.00    +0.000 C 
ATOM      8  N   UNL     1       2.425   6.867  19.156  0.00  0.00    +0.000 NA
BRANCH   8   9
ATOM      9  N   UNL     1       2.087   8.178  18.839  0.00  0.00    +0.000 NA
ATOM     10  C   UNL     1       1.468   8.806  19.804  0.00  0.00    +0.000 C 
ATOM     11  C   UNL     1       1.151   8.177  21.156  0.00  0.00    +0.000 C 
BRANCH  10  12
ATOM     12  C   UNL     1       0.976  10.200  19.587  0.00  0.00    +0.000 A 
ATOM     13  C   UNL     1       1.637  11.059  18.696  0.00  0.00    +0.000 A 
ATOM     14  C   UNL     1       1.233  12.387  18.550  0.00  0.00    +0.000 A 
ATOM     15  C   UNL     1       0.155  12.866  19.289  0.00  0.00    +0.000 A 
ATOM     16  C   UNL     1      -0.524  12.010  20.159  0.00  0.00    +0.000 A 
ATOM     17 CL   UNL     1      -1.860  12.615  21.060  0.00  0.00    +0.000 Cl
ATOM     18  C   UNL     1      -0.122  10.681  20.313  0.00  0.00    +0.000 A 
ENDBRANCH  10  12
ENDBRANCH   8   9
ENDBRANCH   6   7
BRANCH   1  19
ATOM     19  C   UNL     1       5.100   4.836  18.167  0.00  0.00    +0.000 C 
BRANCH  19  20
ATOM     20  C   UNL     1       5.713   4.590  16.826  0.00  0.00    +0.000 A 
ATOM     21  C   UNL     1       5.226   4.319  15.569  0.00  0.00    +0.000 A 
ATOM     22  C   UNL     1       6.375   4.222  14.753  0.00  0.00    +0.000 A 
ATOM     23  C   UNL     1       6.456   3.928  13.305  0.00  0.00    +0.000 C 
ATOM     24  N   UNL     1       7.492   4.426  15.461  0.00  0.00    +0.000 NA
ATOM     25  O   UNL     1       7.075   4.653  16.762  0.00  0.00    +0.000 OA
ENDBRANCH  19  20
BRANCH  19  27
ATOM     26  C   UNL     1       6.906   5.586  19.550  0.00  0.00    +0.000 C 
ATOM     27  O   UNL     1       6.097   4.478  19.156  0.00  0.00    +0.000 OA
ENDBRANCH  19  27
ENDBRANCH   1  19
TORSDOF 6
ENDMDL
