MODEL 1
REMARK VINA RESULT:      -6.8      0.000      0.000
REMARK  Name = 
REMARK  5 active torsions:
REMARK  status: ('A' for Active; 'I' for Inactive)
REMARK    1  A    between atoms: C_1  and  C_2
REMARK    2  A    between atoms: C_6  and  N_7
REMARK    3  A    between atoms: C_8  and  C_10
REMARK    4  A    between atoms: C_12  and  C_13
REMARK    5  A    between atoms: C_16  and  O_17
REMARK                            x       y       z     vdW  Elec       q    Type
REMARK                         _______ _______ _______ _____ _____    ______ ____
ROOT
ATOM      1  N   UNL     1       4.854   3.352  16.581  0.00  0.00    +0.000 N 
ATOM      2  C   UNL     1       5.164   4.542  15.937  0.00  0.00    +0.000 C 
ATOM      3  O   UNL     1       4.866   5.663  16.334  0.00  0.00    +0.000 OA
ATOM      4  H   UNL     1       5.162   2.501  16.128  0.00  0.00    +0.000 HD
ENDROOT
BRANCH   1  10
ATOM      5  C   UNL     1       0.675   2.336  18.712  0.00  0.00    +0.000 C 
ATOM      6  C   UNL     1       2.099   2.769  18.863  0.00  0.00    +0.000 A 
ATOM      7  C   UNL     1       2.652   3.046  20.103  0.00  0.00    +0.000 A 
ATOM      8  C   UNL     1       3.978   3.467  20.152  0.00  0.00    +0.000 A 
ATOM      9  C   UNL     1       4.710   3.592  18.971  0.00  0.00    +0.000 A 
ATOM     10  C   UNL     1       4.097   3.274  17.763  0.00  0.00    +0.000 A 
ATOM     11  N   UNL     1       2.813   2.881  17.717  0.00  0.00    +0.000 NA
ENDBRANCH   1  10
BRANCH   2  12
ATOM     12  C   UNL     1       5.902   4.373  14.628  0.00  0.00    +0.000 A 
ATOM     13  N   UNL     1       5.318   3.540  13.705  0.00  0.00    +0.000 NA
ATOM     14  C   UNL     1       5.940   3.426  12.501  0.00  0.00    +0.000 A 
ATOM     15  C   UNL     1       5.371   2.472  11.490  0.00  0.00    +0.000 C 
ATOM     16  C   UNL     1       7.100   4.127  12.173  0.00  0.00    +0.000 A 
ATOM     17  C   UNL     1       7.684   4.955  13.124  0.00  0.00    +0.000 A 
ATOM     18  C   UNL     1       7.089   5.074  14.375  0.00  0.00    +0.000 A 
BRANCH  18  19
ATOM     19  O   UNL     1       7.700   5.855  15.311  0.00  0.00    +0.000 OA
ATOM     20  H   UNL     1       8.457   6.321  14.927  0.00  0.00    +0.000 HD
ENDBRANCH  18  19
ENDBRANCH   2  12
TORSDOF 3
ENDMDL
MODEL 2
REMARK VINA RESULT:      -6.8      1.459      1.971
REMARK  Name = 
REMARK  5 active torsions:
REMARK  status: ('A' for Active; 'I' for Inactive)
REMARK    1  A    between atoms: C_1  and  C_2
REMARK    2  A    between atoms: C_6  and  N_7
REMARK    3  A    between atoms: C_8  and  C_10
REMARK    4  A    between atoms: C_12  and  C_13
REMARK    5  A    between atoms: C_16  and  O_17
REMARK                            x       y       z     vdW  Elec       q    Type
REMARK                         _______ _______ _______ _____ _____    ______ ____
ROOT
ATOM      1  N   UNL     1       3.737   3.825  16.809  0.00  0.00    +0.000 N 
ATOM      2  C   UNL     1       5.100   4.020  16.985  0.00  0.00    +0.000 C 
ATOM      3  O   UNL     1       5.680   4.043  18.066  0.00  0.00    +0.000 OA
ATOM      4  H   UNL     1       3.400   3.838  15.854  0.00  0.00    +0.000 HD
ENDROOT
BRANCH   1  10
ATOM      5  C   UNL     1       1.628   5.705  20.689  0.00  0.00    +0.000 C 
ATOM      6  C   UNL     1       1.739   4.550  19.744  0.00  0.00    +0.000 A 
ATOM      7  C   UNL     1       0.959   3.414  19.884  0.00  0.00    +0.000 A 
ATOM      8  C   UNL     1       1.143   2.374  18.977  0.00  0.00    +0.000 A 
ATOM      9  C   UNL     1       2.089   2.501  17.959  0.00  0.00    +0.000 A 
ATOM     10  C   UNL     1       2.821   3.681  17.866  0.00  0.00    +0.000 A 
ATOM     11  N   UNL     1       2.652   4.678  18.751  0.00  0.00    +0.000 NA
ENDBRANCH   1  10
BRANCH   2  12
ATOM     12  C   UNL     1       5.872   4.250  15.706  0.00  0.00    +0.000 A 
ATOM     13  N   UNL     1       5.387   3.623  14.584  0.00  0.00    +0.000 NA
ATOM     14  C   UNL     1       6.037   3.869  13.415  0.00  0.00    +0.000 A 
ATOM     15  C   UNL     1       5.580   3.148  12.178  0.00  0.00    +0.000 C 
ATOM     16  C   UNL     1       7.128   4.732  13.316  0.00  0.00    +0.000 A 
ATOM     17  C   UNL     1       7.613   5.346  14.464  0.00  0.00    +0.000 A 
ATOM     18  C   UNL     1       6.988   5.096  15.681  0.00  0.00    +0.000 A 
BRANCH  18  19
ATOM     19  O   UNL     1       7.505   5.671  16.804  0.00  0.00    +0.000 OA
ATOM     20  H   UNL     1       7.735   4.997  17.460  0.00  0.00    +0.000 HD
ENDBRANCH  18  19
ENDBRANCH   2  12
TORSDOF 3
ENDMDL
MODEL 3
REMARK VINA RESULT:      -6.7      2.209      6.480
REMARK  Name = 
REMARK  5 active torsions:
REMARK  status: ('A' for Active; 'I' for Inactive)
REMARK    1  A    between atoms: C_1  and  C_2
REMARK    2  A    between atoms: C_6  and  N_7
REMARK    3  A    between atoms: C_8  and  C_10
REMARK    4  A    between atoms: C_12  and  C_13
REMARK    5  A    between atoms: C_16  and  O_17
REMARK                            x       y       z     vdW  Elec       q    Type
REMARK                         _______ _______ _______ _____ _____    ______ ____
ROOT
ATOM      1  N   UNL     1       5.250   5.013  15.414  0.00  0.00    +0.000 N 
ATOM      2  C   UNL     1       5.710   4.789  16.705  0.00  0.00    +0.000 C 
ATOM      3  O   UNL     1       6.792   4.291  16.996  0.00  0.00    +0.000 OA
ATOM      4  H   UNL     1       4.331   5.428  15.330  0.00  0.00    +0.000 HD
ENDROOT
BRANCH   1  10
ATOM      5  C   UNL     1       5.524   2.248  11.500  0.00  0.00    +0.000 C 
ATOM      6  C   UNL     1       6.129   3.344  12.320  0.00  0.00    +0.000 A 
ATOM      7  C   UNL     1       7.301   3.979  11.940  0.00  0.00    +0.000 A 
ATOM      8  C   UNL     1       7.811   4.971  12.773  0.00  0.00    +0.000 A 
ATOM      9  C   UNL     1       7.136   5.304  13.949  0.00  0.00    +0.000 A 
ATOM     10  C   UNL     1       5.952   4.640  14.255  0.00  0.00    +0.000 A 
ATOM     11  N   UNL     1       5.470   3.673  13.457  0.00  0.00    +0.000 NA
ENDBRANCH   1  10
BRANCH   2  12
ATOM     12  C   UNL     1       4.739   5.184  17.795  0.00  0.00    +0.000 A 
ATOM     13  N   UNL     1       4.011   6.328  17.573  0.00  0.00    +0.000 NA
ATOM     14  C   UNL     1       3.091   6.661  18.518  0.00  0.00    +0.000 A 
ATOM     15  C   UNL     1       2.323   7.941  18.347  0.00  0.00    +0.000 C 
ATOM     16  C   UNL     1       2.851   5.889  19.654  0.00  0.00    +0.000 A 
ATOM     17  C   UNL     1       3.607   4.743  19.868  0.00  0.00    +0.000 A 
ATOM     18  C   UNL     1       4.575   4.387  18.935  0.00  0.00    +0.000 A 
BRANCH  18  19
ATOM     19  O   UNL     1       5.338   3.285  19.183  0.00  0.00    +0.000 OA
ATOM     20  H   UNL     1       5.094   2.882  20.030  0.00  0.00    +0.000 HD
ENDBRANCH  18  19
ENDBRANCH   2  12
TORSDOF 3
ENDMDL
MODEL 4
REMARK VINA RESULT:      -6.6      1.277      1.312
REMARK  Name = 
REMARK  5 active torsions:
REMARK  status: ('A' for Active; 'I' for Inactive)
REMARK    1  A    between atoms: C_1  and  C_2
REMARK    2  A    between atoms: C_6  and  N_7
REMARK    3  A    between atoms: C_8  and  C_10
REMARK    4  A    between atoms: C_12  and  C_13
REMARK    5  A    between atoms: C_16  and  O_17
REMARK                            x       y       z     vdW  Elec       q    Type
REMARK                         _______ _______ _______ _____ _____    ______ ____
ROOT
ATOM      1  N   UNL     1       4.105   4.319  16.202  0.00  0.00    +0.000 N 
ATOM      2  C   UNL     1       5.491   4.256  16.172  0.00  0.00    +0.000 C 
ATOM      3  O   UNL     1       6.222   4.241  17.157  0.00  0.00    +0.000 OA
ATOM      4  H   UNL     1       3.635   4.330  15.305  0.00  0.00    +0.000 HD
ENDROOT
BRANCH   1  10
ATOM      5  C   UNL     1       1.556   2.178  19.660  0.00  0.00    +0.000 C 
ATOM      6  C   UNL     1       2.122   3.448  19.108  0.00  0.00    +0.000 A 
ATOM      7  C   UNL     1       1.940   4.666  19.743  0.00  0.00    +0.000 A 
ATOM      8  C   UNL     1       2.478   5.804  19.148  0.00  0.00    +0.000 A 
ATOM      9  C   UNL     1       3.185   5.692  17.951  0.00  0.00    +0.000 A 
ATOM     10  C   UNL     1       3.349   4.433  17.382  0.00  0.00    +0.000 A 
ATOM     11  N   UNL     1       2.816   3.338  17.950  0.00  0.00    +0.000 NA
ENDBRANCH   1  10
BRANCH   2  12
ATOM     12  C   UNL     1       6.089   4.238  14.783  0.00  0.00    +0.000 A 
ATOM     13  N   UNL     1       5.502   3.385  13.881  0.00  0.00    +0.000 NA
ATOM     14  C   UNL     1       5.992   3.403  12.613  0.00  0.00    +0.000 A 
ATOM     15  C   UNL     1       5.424   2.435  11.613  0.00  0.00    +0.000 C 
ATOM     16  C   UNL     1       7.019   4.253  12.204  0.00  0.00    +0.000 A 
ATOM     17  C   UNL     1       7.609   5.100  13.134  0.00  0.00    +0.000 A 
ATOM     18  C   UNL     1       7.151   5.088  14.447  0.00  0.00    +0.000 A 
BRANCH  18  19
ATOM     19  O   UNL     1       7.772   5.892  15.356  0.00  0.00    +0.000 OA
ATOM     20  H   UNL     1       8.327   6.549  14.910  0.00  0.00    +0.000 HD
ENDBRANCH  18  19
ENDBRANCH   2  12
TORSDOF 3
ENDMDL
MODEL 5
REMARK VINA RESULT:      -6.6      4.303      4.962
REMARK  Name = 
REMARK  5 active torsions:
REMARK  status: ('A' for Active; 'I' for Inactive)
REMARK    1  A    between atoms: C_1  and  C_2
REMARK    2  A    between atoms: C_6  and  N_7
REMARK    3  A    between atoms: C_8  and  C_10
REMARK    4  A    between atoms: C_12  and  C_13
REMARK    5  A    between atoms: C_16  and  O_17
REMARK                            x       y       z     vdW  Elec       q    Type
REMARK                         _______ _______ _______ _____ _____    ______ ____
ROOT
ATOM      1  N   UNL     1       3.500   7.329  18.027  0.00  0.00    +0.000 N 
ATOM      2  C   UNL     1       3.452   5.956  17.830  0.00  0.00    +0.000 C 
ATOM      3  O   UNL     1       2.469   5.246  18.015  0.00  0.00    +0.000 OA
ATOM      4  H   UNL     1       4.386   7.781  17.839  0.00  0.00    +0.000 HD
ENDROOT
BRANCH   1  10
ATOM      5  C   UNL     1       0.770   8.604  21.763  0.00  0.00    +0.000 C 
ATOM      6  C   UNL     1       1.082   8.771  20.309  0.00  0.00    +0.000 A 
ATOM      7  C   UNL     1       0.373   9.649  19.505  0.00  0.00    +0.000 A 
ATOM      8  C   UNL     1       0.710   9.724  18.157  0.00  0.00    +0.000 A 
ATOM      9  C   UNL     1       1.744   8.931  17.656  0.00  0.00    +0.000 A 
ATOM     10  C   UNL     1       2.427   8.088  18.526  0.00  0.00    +0.000 A 
ATOM     11  N   UNL     1       2.091   8.007  19.825  0.00  0.00    +0.000 NA
ENDBRANCH   1  10
BRANCH   2  12
ATOM     12  C   UNL     1       4.758   5.340  17.381  0.00  0.00    +0.000 A 
ATOM     13  N   UNL     1       4.836   4.979  16.058  0.00  0.00    +0.000 NA
ATOM     14  C   UNL     1       6.025   4.479  15.628  0.00  0.00    +0.000 A 
ATOM     15  C   UNL     1       6.130   4.008  14.205  0.00  0.00    +0.000 C 
ATOM     16  C   UNL     1       7.142   4.353  16.454  0.00  0.00    +0.000 A 
ATOM     17  C   UNL     1       7.041   4.711  17.792  0.00  0.00    +0.000 A 
ATOM     18  C   UNL     1       5.831   5.201  18.272  0.00  0.00    +0.000 A 
BRANCH  18  19
ATOM     19  O   UNL     1       5.736   5.504  19.597  0.00  0.00    +0.000 OA
ATOM     20  H   UNL     1       5.864   6.453  19.742  0.00  0.00    +0.000 HD
ENDBRANCH  18  19
ENDBRANCH   2  12
TORSDOF 3
ENDMDL
MODEL 6
REMARK VINA RESULT:      -6.6      2.033      6.748
REMARK  Name = 
REMARK  5 active torsions:
REMARK  status: ('A' for Active; 'I' for Inactive)
REMARK    1  A    between atoms: C_1  and  C_2
REMARK    2  A    between atoms: C_6  and  N_7
REMARK    3  A    between atoms: C_8  and  C_10
REMARK    4  A    between atoms: C_12  and  C_13
REMARK    5  A    between atoms: C_16  and  O_17
REMARK                            x       y       z     vdW  Elec       q    Type
REMARK                         _______ _______ _______ _____ _____    ______ ____
ROOT
ATOM      1  N   UNL     1       4.821   4.422  17.019  0.00  0.00    +0.000 N 
ATOM      2  C   UNL     1       5.300   4.215  18.306  0.00  0.00    +0.000 C 
ATOM      3  O   UNL     1       6.483   4.139  18.619  0.00  0.00    +0.000 OA
ATOM      4  H   UNL     1       3.815   4.456  16.913  0.00  0.00    +0.000 HD
ENDROOT
BRANCH   1  10
ATOM      5  C   UNL     1       5.629   3.245  12.436  0.00  0.00    +0.000 C 
ATOM      6  C   UNL     1       6.077   4.004  13.645  0.00  0.00    +0.000 A 
ATOM      7  C   UNL     1       7.222   4.785  13.635  0.00  0.00    +0.000 A 
ATOM      8  C   UNL     1       7.583   5.437  14.811  0.00  0.00    +0.000 A 
ATOM      9  C   UNL     1       6.791   5.299  15.952  0.00  0.00    +0.000 A 
ATOM     10  C   UNL     1       5.642   4.518  15.882  0.00  0.00    +0.000 A 
ATOM     11  N   UNL     1       5.304   3.877  14.750  0.00  0.00    +0.000 NA
ENDBRANCH   1  10
BRANCH   2  12
ATOM     12  C   UNL     1       4.225   4.044  19.355  0.00  0.00    +0.000 A 
ATOM     13  N   UNL     1       3.395   5.121  19.554  0.00  0.00    +0.000 NA
ATOM     14  C   UNL     1       2.387   4.960  20.453  0.00  0.00    +0.000 A 
ATOM     15  C   UNL     1       1.501   6.136  20.750  0.00  0.00    +0.000 C 
ATOM     16  C   UNL     1       2.158   3.766  21.136  0.00  0.00    +0.000 A 
ATOM     17  C   UNL     1       3.015   2.692  20.931  0.00  0.00    +0.000 A 
ATOM     18  C   UNL     1       4.073   2.831  20.039  0.00  0.00    +0.000 A 
BRANCH  18  19
ATOM     19  O   UNL     1       4.931   1.783  19.885  0.00  0.00    +0.000 OA
ATOM     20  H   UNL     1       4.451   0.982  19.629  0.00  0.00    +0.000 HD
ENDBRANCH  18  19
ENDBRANCH   2  12
TORSDOF 3
ENDMDL
MODEL 7
REMARK VINA RESULT:      -6.6      2.226      6.763
REMARK  Name = 
REMARK  5 active torsions:
REMARK  status: ('A' for Active; 'I' for Inactive)
REMARK    1  A    between atoms: C_1  and  C_2
REMARK    2  A    between atoms: C_6  and  N_7
REMARK    3  A    between atoms: C_8  and  C_10
REMARK    4  A    between atoms: C_12  and  C_13
REMARK    5  A    between atoms: C_16  and  O_17
REMARK                            x       y       z     vdW  Elec       q    Type
REMARK                         _______ _______ _______ _____ _____    ______ ____
ROOT
ATOM      1  N   UNL     1       5.122   4.939  15.632  0.00  0.00    +0.000 N 
ATOM      2  C   UNL     1       5.635   4.712  16.902  0.00  0.00    +0.000 C 
ATOM      3  O   UNL     1       6.767   4.313  17.150  0.00  0.00    +0.000 OA
ATOM      4  H   UNL     1       4.164   5.263  15.584  0.00  0.00    +0.000 HD
ENDROOT
BRANCH   1  10
ATOM      5  C   UNL     1       8.849   5.943  12.779  0.00  0.00    +0.000 C 
ATOM      6  C   UNL     1       7.635   5.103  13.026  0.00  0.00    +0.000 A 
ATOM      7  C   UNL     1       7.246   4.104  12.148  0.00  0.00    +0.000 A 
ATOM      8  C   UNL     1       6.089   3.387  12.439  0.00  0.00    +0.000 A 
ATOM      9  C   UNL     1       5.364   3.680  13.595  0.00  0.00    +0.000 A 
ATOM     10  C   UNL     1       5.828   4.681  14.444  0.00  0.00    +0.000 A 
ATOM     11  N   UNL     1       6.937   5.382  14.153  0.00  0.00    +0.000 NA
ENDBRANCH   1  10
BRANCH   2  12
ATOM     12  C   UNL     1       4.657   4.967  18.028  0.00  0.00    +0.000 A 
ATOM     13  N   UNL     1       3.945   6.140  17.960  0.00  0.00    +0.000 NA
ATOM     14  C   UNL     1       3.021   6.353  18.933  0.00  0.00    +0.000 A 
ATOM     15  C   UNL     1       2.270   7.655  18.934  0.00  0.00    +0.000 C 
ATOM     16  C   UNL     1       2.760   5.436  19.951  0.00  0.00    +0.000 A 
ATOM     17  C   UNL     1       3.499   4.261  20.011  0.00  0.00    +0.000 A 
ATOM     18  C   UNL     1       4.472   4.023  19.047  0.00  0.00    +0.000 A 
BRANCH  18  19
ATOM     19  O   UNL     1       5.219   2.887  19.148  0.00  0.00    +0.000 OA
ATOM     20  H   UNL     1       5.033   2.428  19.980  0.00  0.00    +0.000 HD
ENDBRANCH  18  19
ENDBRANCH   2  12
TORSDOF 3
ENDMDL
MODEL 8
REMARK VINA RESULT:      -6.6      0.922      1.542
REMARK  Name = 
REMARK  5 active torsions:
REMARK  status: ('A' for Active; 'I' for Inactive)
REMARK    1  A    between atoms: C_1  and  C_2
REMARK    2  A    between atoms: C_6  and  N_7
REMARK    3  A    between atoms: C_8  and  C_10
REMARK    4  A    between atoms: C_12  and  C_13
REMARK    5  A    between atoms: C_16  and  O_17
REMARK                            x       y       z     vdW  Elec       q    Type
REMARK                         _______ _______ _______ _____ _____    ______ ____
ROOT
ATOM      1  N   UNL     1       4.248   3.522  16.652  0.00  0.00    +0.000 N 
ATOM      2  C   UNL     1       4.892   4.687  16.258  0.00  0.00    +0.000 C 
ATOM      3  O   UNL     1       4.788   5.777  16.811  0.00  0.00    +0.000 OA
ATOM      4  H   UNL     1       4.426   2.698  16.091  0.00  0.00    +0.000 HD
ENDROOT
BRANCH   1  10
ATOM      5  C   UNL     1       3.377   2.377  21.231  0.00  0.00    +0.000 C 
ATOM      6  C   UNL     1       2.856   2.941  19.947  0.00  0.00    +0.000 A 
ATOM      7  C   UNL     1       1.553   3.399  19.825  0.00  0.00    +0.000 A 
ATOM      8  C   UNL     1       1.140   3.884  18.587  0.00  0.00    +0.000 A 
ATOM      9  C   UNL     1       2.036   3.906  17.517  0.00  0.00    +0.000 A 
ATOM     10  C   UNL     1       3.336   3.452  17.719  0.00  0.00    +0.000 A 
ATOM     11  N   UNL     1       3.728   2.970  18.910  0.00  0.00    +0.000 NA
ENDBRANCH   1  10
BRANCH   2  12
ATOM     12  C   UNL     1       5.750   4.543  15.021  0.00  0.00    +0.000 A 
ATOM     13  N   UNL     1       5.237   3.763  14.014  0.00  0.00    +0.000 NA
ATOM     14  C   UNL     1       5.972   3.673  12.873  0.00  0.00    +0.000 A 
ATOM     15  C   UNL     1       5.479   2.774  11.775  0.00  0.00    +0.000 C 
ATOM     16  C   UNL     1       7.177   4.349  12.688  0.00  0.00    +0.000 A 
ATOM     17  C   UNL     1       7.687   5.123  13.722  0.00  0.00    +0.000 A 
ATOM     18  C   UNL     1       6.974   5.216  14.913  0.00  0.00    +0.000 A 
BRANCH  18  19
ATOM     19  O   UNL     1       7.512   5.942  15.934  0.00  0.00    +0.000 OA
ATOM     20  H   UNL     1       6.983   5.845  16.739  0.00  0.00    +0.000 HD
ENDBRANCH  18  19
ENDBRANCH   2  12
TORSDOF 3
ENDMDL
MODEL 9
REMARK VINA RESULT:      -6.4      1.730      6.481
REMARK  Name = 
REMARK  5 active torsions:
REMARK  status: ('A' for Active; 'I' for Inactive)
REMARK    1  A    between atoms: C_1  and  C_2
REMARK    2  A    between atoms: C_6  and  N_7
REMARK    3  A    between atoms: C_8  and  C_10
REMARK    4  A    between atoms: C_12  and  C_13
REMARK    5  A    between atoms: C_16  and  O_17
REMARK                            x       y       z     vdW  Elec       q    Type
REMARK                         _______ _______ _______ _____ _____    ______ ____
ROOT
ATOM      1  N   UNL     1       4.361   4.207  16.776  0.00  0.00    +0.000 N 
ATOM      2  C   UNL     1       3.760   5.270  17.436  0.00  0.00    +0.000 C 
ATOM      3  O   UNL     1       4.004   6.456  17.241  0.00  0.00    +0.000 OA
ATOM      4  H   UNL     1       4.061   3.279  17.049  0.00  0.00    +0.000 HD
ENDROOT
BRANCH   1  10
ATOM      5  C   UNL     1       5.941   3.443  12.308  0.00  0.00    +0.000 C 
ATOM      6  C   UNL     1       6.199   4.037  13.657  0.00  0.00    +0.000 A 
ATOM      7  C   UNL     1       7.370   4.721  13.943  0.00  0.00    +0.000 A 
ATOM      8  C   UNL     1       7.543   5.220  15.231  0.00  0.00    +0.000 A 
ATOM      9  C   UNL     1       6.545   5.030  16.187  0.00  0.00    +0.000 A 
ATOM     10  C   UNL     1       5.385   4.353  15.823  0.00  0.00    +0.000 A 
ATOM     11  N   UNL     1       5.227   3.860  14.583  0.00  0.00    +0.000 NA
ENDBRANCH   1  10
BRANCH   2  12
ATOM     12  C   UNL     1       2.755   4.866  18.491  0.00  0.00    +0.000 A 
ATOM     13  N   UNL     1       2.111   3.669  18.290  0.00  0.00    +0.000 NA
ATOM     14  C   UNL     1       1.249   3.266  19.261  0.00  0.00    +0.000 A 
ATOM     15  C   UNL     1       0.474   1.997  19.045  0.00  0.00    +0.000 C 
ATOM     16  C   UNL     1       1.026   3.990  20.431  0.00  0.00    +0.000 A 
ATOM     17  C   UNL     1       1.676   5.204  20.612  0.00  0.00    +0.000 A 
ATOM     18  C   UNL     1       2.544   5.660  19.626  0.00  0.00    +0.000 A 
BRANCH  18  19
ATOM     19  O   UNL     1       3.138   6.875  19.799  0.00  0.00    +0.000 OA
ATOM     20  H   UNL     1       3.430   6.987  20.716  0.00  0.00    +0.000 HD
ENDBRANCH  18  19
ENDBRANCH   2  12
TORSDOF 3
ENDMDL
