MODEL 1
REMARK VINA RESULT:      -9.5      0.000      0.000
REMARK  Name = 
REMARK  3 active torsions:
REMARK  status: ('A' for Active; 'I' for Inactive)
REMARK    1  A    between atoms: C_2  and  C_3
REMARK    2  A    between atoms: C_3  and  C_4
REMARK    3  A    between atoms: C_21  and  C_22
REMARK                            x       y       z     vdW  Elec       q    Type
REMARK                         _______ _______ _______ _____ _____    ______ ____
ROOT
ATOM      1  O   UNL     1       2.319   8.523  17.184  0.00  0.00    +0.000 OA
ATOM      2  C   UNL     1       2.063   8.256  18.358  0.00  0.00    +0.000 C 
ATOM      3  N   UNL     1       2.326   7.007  18.930  0.00  0.00    +0.000 N 
ATOM      4  C   UNL     1       1.776   6.660  20.241  0.00  0.00    +0.000 C 
ATOM      5  C   UNL     1       2.174   5.313  20.827  0.00  0.00    +0.000 C 
ATOM      6  C   UNL     1       2.109   4.238  19.786  0.00  0.00    +0.000 A 
ATOM      7  C   UNL     1       1.781   2.925  20.141  0.00  0.00    +0.000 A 
ATOM      8  C   UNL     1       1.687   1.940  19.164  0.00  0.00    +0.000 A 
ATOM      9  C   UNL     1       1.933   2.259  17.833  0.00  0.00    +0.000 A 
ATOM     10  C   UNL     1       2.327   3.556  17.476  0.00  0.00    +0.000 A 
ATOM     11  C   UNL     1       2.438   4.558  18.453  0.00  0.00    +0.000 A 
ATOM     12  C   UNL     1       2.975   5.956  18.115  0.00  0.00    +0.000 C 
ENDROOT
BRANCH  12  13
ATOM     13  C   UNL     1       4.513   6.066  18.211  0.00  0.00    +0.000 A 
ATOM     14  C   UNL     1       5.216   5.367  19.217  0.00  0.00    +0.000 A 
ATOM     15  C   UNL     1       6.605   5.489  19.345  0.00  0.00    +0.000 A 
ATOM     16  C   UNL     1       7.307   6.294  18.462  0.00  0.00    +0.000 A 
ATOM     17  F   UNL     1       8.637   6.430  18.595  0.00  0.00    +0.000 F 
ATOM     18  C   UNL     1       6.659   6.966  17.439  0.00  0.00    +0.000 A 
ATOM     19  C   UNL     1       5.270   6.852  17.315  0.00  0.00    +0.000 A 
ENDBRANCH  12  13
BRANCH   2  20
ATOM     20  C   UNL     1       1.434   9.289  19.298  0.00  0.00    +0.000 C 
BRANCH  20  21
ATOM     21  C   UNL     1       0.721  10.452  18.600  0.00  0.00    +0.000 C 
ATOM     22  C   UNL     1       1.444  11.800  18.830  0.00  0.00    +0.000 C 
ATOM     23  N   UNL     1       0.519  12.853  19.312  0.00  0.00    +0.000 NA
ATOM     24  C   UNL     1      -0.595  12.996  18.351  0.00  0.00    +0.000 C 
ATOM     25  C   UNL     1      -1.393  11.691  18.203  0.00  0.00    +0.000 C 
ATOM     26  C   UNL     1      -0.750  10.601  19.078  0.00  0.00    +0.000 C 
ATOM     27  C   UNL     1      -0.788  11.115  20.530  0.00  0.00    +0.000 C 
ATOM     28  C   UNL     1      -0.025  12.445  20.622  0.00  0.00    +0.000 C 
ENDBRANCH  20  21
ENDBRANCH   2  20
TORSDOF 3
ENDMDL
MODEL 2
REMARK VINA RESULT:      -9.4      0.474      1.027
REMARK  Name = 
REMARK  3 active torsions:
REMARK  status: ('A' for Active; 'I' for Inactive)
REMARK    1  A    between atoms: C_2  and  C_3
REMARK    2  A    between atoms: C_3  and  C_4
REMARK    3  A    between atoms: C_21  and  C_22
REMARK                            x       y       z     vdW  Elec       q    Type
REMARK                         _______ _______ _______ _____ _____    ______ ____
ROOT
ATOM      1  O   UNL     1       2.195   8.714  17.246  0.00  0.00    +0.000 OA
ATOM      2  C   UNL     1       1.965   8.523  18.440  0.00  0.00    +0.000 C 
ATOM      3  N   UNL     1       2.137   7.281  19.059  0.00  0.00    +0.000 N 
ATOM      4  C   UNL     1       1.612   7.043  20.405  0.00  0.00    +0.000 C 
ATOM      5  C   UNL     1       1.909   5.691  21.037  0.00  0.00    +0.000 C 
ATOM      6  C   UNL     1       1.704   4.583  20.051  0.00  0.00    +0.000 A 
ATOM      7  C   UNL     1       1.273   3.324  20.480  0.00  0.00    +0.000 A 
ATOM      8  C   UNL     1       1.049   2.309  19.553  0.00  0.00    +0.000 A 
ATOM      9  C   UNL     1       1.267   2.547  18.201  0.00  0.00    +0.000 A 
ATOM     10  C   UNL     1       1.762   3.785  17.769  0.00  0.00    +0.000 A 
ATOM     11  C   UNL     1       2.004   4.814  18.693  0.00  0.00    +0.000 A 
ATOM     12  C   UNL     1       2.653   6.139  18.270  0.00  0.00    +0.000 C 
ENDROOT
BRANCH  12  13
ATOM     13  C   UNL     1       4.197   6.110  18.303  0.00  0.00    +0.000 A 
ATOM     14  C   UNL     1       4.944   6.814  17.333  0.00  0.00    +0.000 A 
ATOM     15  C   UNL     1       6.343   6.764  17.323  0.00  0.00    +0.000 A 
ATOM     16  C   UNL     1       7.010   6.026  18.288  0.00  0.00    +0.000 A 
ATOM     17  F   UNL     1       8.352   5.959  18.268  0.00  0.00    +0.000 F 
ATOM     18  C   UNL     1       6.315   5.353  19.278  0.00  0.00    +0.000 A 
ATOM     19  C   UNL     1       4.916   5.395  19.285  0.00  0.00    +0.000 A 
ENDBRANCH  12  13
BRANCH   2  20
ATOM     20  C   UNL     1       1.473   9.650  19.354  0.00  0.00    +0.000 C 
BRANCH  20  21
ATOM     21  C   UNL     1       0.784  10.815  18.635  0.00  0.00    +0.000 C 
ATOM     22  C   UNL     1       1.498  12.162  18.895  0.00  0.00    +0.000 C 
ATOM     23  N   UNL     1       0.555  13.213  19.347  0.00  0.00    +0.000 NA
ATOM     24  C   UNL     1      -0.523  13.359  18.347  0.00  0.00    +0.000 C 
ATOM     25  C   UNL     1      -1.315  12.054  18.166  0.00  0.00    +0.000 C 
ATOM     26  C   UNL     1      -0.702  10.962  19.060  0.00  0.00    +0.000 C 
ATOM     27  C   UNL     1      -0.793  11.471  20.511  0.00  0.00    +0.000 C 
ATOM     28  C   UNL     1      -0.035  12.800  20.635  0.00  0.00    +0.000 C 
ENDBRANCH  20  21
ENDBRANCH   2  20
TORSDOF 3
ENDMDL
MODEL 3
REMARK VINA RESULT:      -9.1      1.052      1.096
REMARK  Name = 
REMARK  3 active torsions:
REMARK  status: ('A' for Active; 'I' for Inactive)
REMARK    1  A    between atoms: C_2  and  C_3
REMARK    2  A    between atoms: C_3  and  C_4
REMARK    3  A    between atoms: C_21  and  C_22
REMARK                            x       y       z     vdW  Elec       q    Type
REMARK                         _______ _______ _______ _____ _____    ______ ____
ROOT
ATOM      1  O   UNL     1       2.709   8.121  16.783  0.00  0.00    +0.000 OA
ATOM      2  C   UNL     1       2.537   8.113  18.002  0.00  0.00    +0.000 C 
ATOM      3  N   UNL     1       2.524   6.939  18.761  0.00  0.00    +0.000 N 
ATOM      4  C   UNL     1       2.066   6.958  20.152  0.00  0.00    +0.000 C 
ATOM      5  C   UNL     1       2.158   5.654  20.931  0.00  0.00    +0.000 C 
ATOM      6  C   UNL     1       1.681   4.502  20.102  0.00  0.00    +0.000 A 
ATOM      7  C   UNL     1       1.060   3.403  20.706  0.00  0.00    +0.000 A 
ATOM      8  C   UNL     1       0.586   2.353  19.926  0.00  0.00    +0.000 A 
ATOM      9  C   UNL     1       0.743   2.390  18.544  0.00  0.00    +0.000 A 
ATOM     10  C   UNL     1       1.423   3.455  17.937  0.00  0.00    +0.000 A 
ATOM     11  C   UNL     1       1.917   4.517  18.712  0.00  0.00    +0.000 A 
ATOM     12  C   UNL     1       2.763   5.638  18.094  0.00  0.00    +0.000 C 
ENDROOT
BRANCH  12  13
ATOM     13  C   UNL     1       4.274   5.320  18.051  0.00  0.00    +0.000 A 
ATOM     14  C   UNL     1       5.088   5.570  19.178  0.00  0.00    +0.000 A 
ATOM     15  C   UNL     1       6.466   5.327  19.142  0.00  0.00    +0.000 A 
ATOM     16  C   UNL     1       7.043   4.817  17.989  0.00  0.00    +0.000 A 
ATOM     17  F   UNL     1       8.368   4.603  17.944  0.00  0.00    +0.000 F 
ATOM     18  C   UNL     1       6.273   4.524  16.876  0.00  0.00    +0.000 A 
ATOM     19  C   UNL     1       4.896   4.774  16.907  0.00  0.00    +0.000 A 
ENDBRANCH  12  13
BRANCH   2  20
ATOM     20  C   UNL     1       2.328   9.408  18.792  0.00  0.00    +0.000 C 
BRANCH  20  21
ATOM     21  C   UNL     1       1.175  10.290  18.301  0.00  0.00    +0.000 C 
ATOM     22  C   UNL     1       1.337  11.762  18.746  0.00  0.00    +0.000 C 
ATOM     23  N   UNL     1       0.114  12.284  19.401  0.00  0.00    +0.000 NA
ATOM     24  C   UNL     1      -1.033  12.122  18.483  0.00  0.00    +0.000 C 
ATOM     25  C   UNL     1      -1.276  10.647  18.125  0.00  0.00    +0.000 C 
ATOM     26  C   UNL     1      -0.203   9.779  18.805  0.00  0.00    +0.000 C 
ATOM     27  C   UNL     1      -0.334  10.012  20.322  0.00  0.00    +0.000 C 
ATOM     28  C   UNL     1      -0.138  11.504  20.628  0.00  0.00    +0.000 C 
ENDBRANCH  20  21
ENDBRANCH   2  20
TORSDOF 3
ENDMDL
MODEL 4
REMARK VINA RESULT:      -9.0      0.978      1.332
REMARK  Name = 
REMARK  3 active torsions:
REMARK  status: ('A' for Active; 'I' for Inactive)
REMARK    1  A    between atoms: C_2  and  C_3
REMARK    2  A    between atoms: C_3  and  C_4
REMARK    3  A    between atoms: C_21  and  C_22
REMARK                            x       y       z     vdW  Elec       q    Type
REMARK                         _______ _______ _______ _____ _____    ______ ____
ROOT
ATOM      1  O   UNL     1       2.025   8.891  17.244  0.00  0.00    +0.000 OA
ATOM      2  C   UNL     1       1.900   8.736  18.459  0.00  0.00    +0.000 C 
ATOM      3  N   UNL     1       2.085   7.504  19.092  0.00  0.00    +0.000 N 
ATOM      4  C   UNL     1       1.679   7.316  20.487  0.00  0.00    +0.000 C 
ATOM      5  C   UNL     1       1.987   5.970  21.125  0.00  0.00    +0.000 C 
ATOM      6  C   UNL     1       1.652   4.847  20.192  0.00  0.00    +0.000 A 
ATOM      7  C   UNL     1       1.219   3.615  20.691  0.00  0.00    +0.000 A 
ATOM      8  C   UNL     1       0.875   2.589  19.817  0.00  0.00    +0.000 A 
ATOM      9  C   UNL     1       0.975   2.786  18.444  0.00  0.00    +0.000 A 
ATOM     10  C   UNL     1       1.471   3.994  17.936  0.00  0.00    +0.000 A 
ATOM     11  C   UNL     1       1.833   5.035  18.806  0.00  0.00    +0.000 A 
ATOM     12  C   UNL     1       2.485   6.325  18.290  0.00  0.00    +0.000 C 
ENDROOT
BRANCH  12  13
ATOM     13  C   UNL     1       4.024   6.239  18.182  0.00  0.00    +0.000 A 
ATOM     14  C   UNL     1       4.763   5.488  19.121  0.00  0.00    +0.000 A 
ATOM     15  C   UNL     1       6.161   5.434  19.063  0.00  0.00    +0.000 A 
ATOM     16  C   UNL     1       6.833   6.114  18.060  0.00  0.00    +0.000 A 
ATOM     17  F   UNL     1       8.175   6.081  18.014  0.00  0.00    +0.000 F 
ATOM     18  C   UNL     1       6.142   6.831  17.098  0.00  0.00    +0.000 A 
ATOM     19  C   UNL     1       4.745   6.893  17.159  0.00  0.00    +0.000 A 
ENDBRANCH  12  13
BRANCH   2  20
ATOM     20  C   UNL     1       1.533   9.901  19.383  0.00  0.00    +0.000 C 
BRANCH  20  21
ATOM     21  C   UNL     1       0.038  10.225  19.459  0.00  0.00    +0.000 C 
ATOM     22  C   UNL     1      -0.575  10.476  18.060  0.00  0.00    +0.000 C 
ATOM     23  N   UNL     1      -1.338  11.745  18.007  0.00  0.00    +0.000 NA
ATOM     24  C   UNL     1      -2.379  11.729  19.056  0.00  0.00    +0.000 C 
ATOM     25  C   UNL     1      -1.772  11.596  20.462  0.00  0.00    +0.000 C 
ATOM     26  C   UNL     1      -0.243  11.470  20.343  0.00  0.00    +0.000 C 
ATOM     27  C   UNL     1       0.257  12.746  19.639  0.00  0.00    +0.000 C 
ATOM     28  C   UNL     1      -0.414  12.867  18.263  0.00  0.00    +0.000 C 
ENDBRANCH  20  21
ENDBRANCH   2  20
TORSDOF 3
ENDMDL
MODEL 5
REMARK VINA RESULT:      -8.7      2.231      4.384
REMARK  Name = 
REMARK  3 active torsions:
REMARK  status: ('A' for Active; 'I' for Inactive)
REMARK    1  A    between atoms: C_2  and  C_3
REMARK    2  A    between atoms: C_3  and  C_4
REMARK    3  A    between atoms: C_21  and  C_22
REMARK                            x       y       z     vdW  Elec       q    Type
REMARK                         _______ _______ _______ _____ _____    ______ ____
ROOT
ATOM      1  O   UNL     1       1.786   7.723  20.821  0.00  0.00    +0.000 OA
ATOM      2  C   UNL     1       1.976   8.046  19.649  0.00  0.00    +0.000 C 
ATOM      3  N   UNL     1       2.822   7.338  18.791  0.00  0.00    +0.000 N 
ATOM      4  C   UNL     1       3.210   7.901  17.496  0.00  0.00    +0.000 C 
ATOM      5  C   UNL     1       4.070   7.033  16.590  0.00  0.00    +0.000 C 
ATOM      6  C   UNL     1       5.164   6.369  17.367  0.00  0.00    +0.000 A 
ATOM      7  C   UNL     1       6.395   6.092  16.763  0.00  0.00    +0.000 A 
ATOM      8  C   UNL     1       7.420   5.508  17.501  0.00  0.00    +0.000 A 
ATOM      9  C   UNL     1       7.213   5.187  18.839  0.00  0.00    +0.000 A 
ATOM     10  C   UNL     1       5.962   5.399  19.434  0.00  0.00    +0.000 A 
ATOM     11  C   UNL     1       4.915   5.977  18.698  0.00  0.00    +0.000 A 
ATOM     12  C   UNL     1       3.503   6.118  19.283  0.00  0.00    +0.000 C 
ENDROOT
BRANCH  12  13
ATOM     13  C   UNL     1       2.615   4.873  19.060  0.00  0.00    +0.000 A 
ATOM     14  C   UNL     1       1.673   4.486  20.039  0.00  0.00    +0.000 A 
ATOM     15  C   UNL     1       0.890   3.337  19.873  0.00  0.00    +0.000 A 
ATOM     16  C   UNL     1       1.027   2.574  18.724  0.00  0.00    +0.000 A 
ATOM     17  F   UNL     1       0.292   1.460  18.571  0.00  0.00    +0.000 F 
ATOM     18  C   UNL     1       1.912   2.942  17.724  0.00  0.00    +0.000 A 
ATOM     19  C   UNL     1       2.702   4.085  17.893  0.00  0.00    +0.000 A 
ENDBRANCH  12  13
BRANCH   2  20
ATOM     20  C   UNL     1       1.284   9.264  19.030  0.00  0.00    +0.000 C 
BRANCH  20  21
ATOM     21  C   UNL     1       0.220   9.925  19.913  0.00  0.00    +0.000 C 
ATOM     22  C   UNL     1      -0.973  10.460  19.085  0.00  0.00    +0.000 C 
ATOM     23  N   UNL     1      -1.284  11.872  19.406  0.00  0.00    +0.000 NA
ATOM     24  C   UNL     1      -1.537  11.995  20.857  0.00  0.00    +0.000 C 
ATOM     25  C   UNL     1      -0.314  11.576  21.689  0.00  0.00    +0.000 C 
ATOM     26  C   UNL     1       0.802  11.102  20.742  0.00  0.00    +0.000 C 
ATOM     27  C   UNL     1       1.138  12.289  19.818  0.00  0.00    +0.000 C 
ATOM     28  C   UNL     1      -0.122  12.708  19.048  0.00  0.00    +0.000 C 
ENDBRANCH  20  21
ENDBRANCH   2  20
TORSDOF 3
ENDMDL
MODEL 6
REMARK VINA RESULT:      -8.6      1.171      1.649
REMARK  Name = 
REMARK  3 active torsions:
REMARK  status: ('A' for Active; 'I' for Inactive)
REMARK    1  A    between atoms: C_2  and  C_3
REMARK    2  A    between atoms: C_3  and  C_4
REMARK    3  A    between atoms: C_21  and  C_22
REMARK                            x       y       z     vdW  Elec       q    Type
REMARK                         _______ _______ _______ _____ _____    ______ ____
ROOT
ATOM      1  O   UNL     1       2.480   8.229  16.973  0.00  0.00    +0.000 OA
ATOM      2  C   UNL     1       2.393   8.150  18.199  0.00  0.00    +0.000 C 
ATOM      3  N   UNL     1       2.450   6.936  18.890  0.00  0.00    +0.000 N 
ATOM      4  C   UNL     1       2.090   6.870  20.307  0.00  0.00    +0.000 C 
ATOM      5  C   UNL     1       2.255   5.528  21.004  0.00  0.00    +0.000 C 
ATOM      6  C   UNL     1       1.738   4.414  20.147  0.00  0.00    +0.000 A 
ATOM      7  C   UNL     1       1.177   3.272  20.729  0.00  0.00    +0.000 A 
ATOM      8  C   UNL     1       0.666   2.258  19.926  0.00  0.00    +0.000 A 
ATOM      9  C   UNL     1       0.726   2.374  18.541  0.00  0.00    +0.000 A 
ATOM     10  C   UNL     1       1.346   3.483  17.949  0.00  0.00    +0.000 A 
ATOM     11  C   UNL     1       1.877   4.509  18.747  0.00  0.00    +0.000 A 
ATOM     12  C   UNL     1       2.662   5.679  18.137  0.00  0.00    +0.000 C 
ENDROOT
BRANCH  12  13
ATOM     13  C   UNL     1       4.170   5.391  17.972  0.00  0.00    +0.000 A 
ATOM     14  C   UNL     1       4.668   4.871  16.757  0.00  0.00    +0.000 A 
ATOM     15  C   UNL     1       6.026   4.565  16.604  0.00  0.00    +0.000 A 
ATOM     16  C   UNL     1       6.902   4.790  17.655  0.00  0.00    +0.000 A 
ATOM     17  F   UNL     1       8.201   4.478  17.519  0.00  0.00    +0.000 F 
ATOM     18  C   UNL     1       6.459   5.333  18.849  0.00  0.00    +0.000 A 
ATOM     19  C   UNL     1       5.101   5.632  19.006  0.00  0.00    +0.000 A 
ENDBRANCH  12  13
BRANCH   2  20
ATOM     20  C   UNL     1       2.220   9.396  19.073  0.00  0.00    +0.000 C 
BRANCH  20  21
ATOM     21  C   UNL     1       0.768   9.776  19.381  0.00  0.00    +0.000 C 
ATOM     22  C   UNL     1       0.031  10.319  18.134  0.00  0.00    +0.000 C 
ATOM     23  N   UNL     1      -0.639  11.613  18.403  0.00  0.00    +0.000 NA
ATOM     24  C   UNL     1      -1.562  11.452  19.546  0.00  0.00    +0.000 C 
ATOM     25  C   UNL     1      -0.821  11.025  20.823  0.00  0.00    +0.000 C 
ATOM     26  C   UNL     1       0.674  10.844  20.505  0.00  0.00    +0.000 C 
ATOM     27  C   UNL     1       1.188  12.203  19.992  0.00  0.00    +0.000 C 
ATOM     28  C   UNL     1       0.386  12.616  18.749  0.00  0.00    +0.000 C 
ENDBRANCH  20  21
ENDBRANCH   2  20
TORSDOF 3
ENDMDL
MODEL 7
REMARK VINA RESULT:      -8.4      2.293      4.495
REMARK  Name = 
REMARK  3 active torsions:
REMARK  status: ('A' for Active; 'I' for Inactive)
REMARK    1  A    between atoms: C_2  and  C_3
REMARK    2  A    between atoms: C_3  and  C_4
REMARK    3  A    between atoms: C_21  and  C_22
REMARK                            x       y       z     vdW  Elec       q    Type
REMARK                         _______ _______ _______ _____ _____    ______ ____
ROOT
ATOM      1  O   UNL     1       1.720   7.569  21.145  0.00  0.00    +0.000 OA
ATOM      2  C   UNL     1       1.825   7.952  19.980  0.00  0.00    +0.000 C 
ATOM      3  N   UNL     1       2.646   7.320  19.041  0.00  0.00    +0.000 N 
ATOM      4  C   UNL     1       2.932   7.958  17.755  0.00  0.00    +0.000 C 
ATOM      5  C   UNL     1       3.769   7.169  16.759  0.00  0.00    +0.000 C 
ATOM      6  C   UNL     1       4.935   6.519  17.438  0.00  0.00    +0.000 A 
ATOM      7  C   UNL     1       6.137   6.324  16.751  0.00  0.00    +0.000 A 
ATOM      8  C   UNL     1       7.228   5.753  17.400  0.00  0.00    +0.000 A 
ATOM      9  C   UNL     1       7.116   5.364  18.730  0.00  0.00    +0.000 A 
ATOM     10  C   UNL     1       5.896   5.494  19.407  0.00  0.00    +0.000 A 
ATOM     11  C   UNL     1       4.783   6.058  18.762  0.00  0.00    +0.000 A 
ATOM     12  C   UNL     1       3.404   6.111  19.434  0.00  0.00    +0.000 C 
ENDROOT
BRANCH  12  13
ATOM     13  C   UNL     1       2.556   4.840  19.206  0.00  0.00    +0.000 A 
ATOM     14  C   UNL     1       2.690   4.100  18.011  0.00  0.00    +0.000 A 
ATOM     15  C   UNL     1       1.900   2.969  17.769  0.00  0.00    +0.000 A 
ATOM     16  C   UNL     1       0.981   2.558  18.722  0.00  0.00    +0.000 A 
ATOM     17  F   UNL     1       0.206   1.487  18.484  0.00  0.00    +0.000 F 
ATOM     18  C   UNL     1       0.846   3.236  19.922  0.00  0.00    +0.000 A 
ATOM     19  C   UNL     1       1.630   4.370  20.162  0.00  0.00    +0.000 A 
ENDBRANCH  12  13
BRANCH   2  20
ATOM     20  C   UNL     1       1.047   9.166  19.461  0.00  0.00    +0.000 C 
BRANCH  20  21
ATOM     21  C   UNL     1       0.928  10.332  20.448  0.00  0.00    +0.000 C 
ATOM     22  C   UNL     1      -0.409  10.301  21.225  0.00  0.00    +0.000 C 
ATOM     23  N   UNL     1      -1.114  11.604  21.170  0.00  0.00    +0.000 NA
ATOM     24  C   UNL     1      -0.218  12.662  21.681  0.00  0.00    +0.000 C 
ATOM     25  C   UNL     1       1.065  12.778  20.843  0.00  0.00    +0.000 C 
ATOM     26  C   UNL     1       1.047  11.708  19.738  0.00  0.00    +0.000 C 
ATOM     27  C   UNL     1      -0.205  11.973  18.880  0.00  0.00    +0.000 C 
ATOM     28  C   UNL     1      -1.457  11.900  19.766  0.00  0.00    +0.000 C 
ENDBRANCH  20  21
ENDBRANCH   2  20
TORSDOF 3
ENDMDL
MODEL 8
REMARK VINA RESULT:      -8.3      1.032      1.146
REMARK  Name = 
REMARK  3 active torsions:
REMARK  status: ('A' for Active; 'I' for Inactive)
REMARK    1  A    between atoms: C_2  and  C_3
REMARK    2  A    between atoms: C_3  and  C_4
REMARK    3  A    between atoms: C_21  and  C_22
REMARK                            x       y       z     vdW  Elec       q    Type
REMARK                         _______ _______ _______ _____ _____    ______ ____
ROOT
ATOM      1  O   UNL     1       1.862   8.441  16.997  0.00  0.00    +0.000 OA
ATOM      2  C   UNL     1       1.980   8.337  18.218  0.00  0.00    +0.000 C 
ATOM      3  N   UNL     1       2.225   7.120  18.859  0.00  0.00    +0.000 N 
ATOM      4  C   UNL     1       2.103   7.007  20.314  0.00  0.00    +0.000 C 
ATOM      5  C   UNL     1       2.464   5.669  20.940  0.00  0.00    +0.000 C 
ATOM      6  C   UNL     1       1.889   4.536  20.147  0.00  0.00    +0.000 A 
ATOM      7  C   UNL     1       1.503   3.350  20.782  0.00  0.00    +0.000 A 
ATOM      8  C   UNL     1       0.936   2.316  20.044  0.00  0.00    +0.000 A 
ATOM      9  C   UNL     1       0.764   2.457  18.671  0.00  0.00    +0.000 A 
ATOM     10  C   UNL     1       1.208   3.614  18.017  0.00  0.00    +0.000 A 
ATOM     11  C   UNL     1       1.794   4.662  18.747  0.00  0.00    +0.000 A 
ATOM     12  C   UNL     1       2.393   5.891  18.049  0.00  0.00    +0.000 C 
ENDROOT
BRANCH  12  13
ATOM     13  C   UNL     1       3.871   5.709  17.638  0.00  0.00    +0.000 A 
ATOM     14  C   UNL     1       4.306   4.496  17.062  0.00  0.00    +0.000 A 
ATOM     15  C   UNL     1       5.650   4.298  16.722  0.00  0.00    +0.000 A 
ATOM     16  C   UNL     1       6.568   5.313  16.939  0.00  0.00    +0.000 A 
ATOM     17  F   UNL     1       7.862   5.119  16.634  0.00  0.00    +0.000 F 
ATOM     18  C   UNL     1       6.174   6.531  17.467  0.00  0.00    +0.000 A 
ATOM     19  C   UNL     1       4.833   6.727  17.815  0.00  0.00    +0.000 A 
ENDBRANCH  12  13
BRANCH   2  20
ATOM     20  C   UNL     1       1.870   9.555  19.141  0.00  0.00    +0.000 C 
BRANCH  20  21
ATOM     21  C   UNL     1       0.891  10.638  18.673  0.00  0.00    +0.000 C 
ATOM     22  C   UNL     1       1.393  12.061  19.013  0.00  0.00    +0.000 C 
ATOM     23  N   UNL     1       0.361  12.862  19.715  0.00  0.00    +0.000 NA
ATOM     24  C   UNL     1      -0.863  12.905  18.888  0.00  0.00    +0.000 C 
ATOM     25  C   UNL     1      -1.436  11.501  18.641  0.00  0.00    +0.000 C 
ATOM     26  C   UNL     1      -0.518  10.456  19.300  0.00  0.00    +0.000 C 
ATOM     27  C   UNL     1      -0.477  10.784  20.805  0.00  0.00    +0.000 C 
ATOM     28  C   UNL     1       0.050  12.212  21.003  0.00  0.00    +0.000 C 
ENDBRANCH  20  21
ENDBRANCH   2  20
TORSDOF 3
ENDMDL
MODEL 9
REMARK VINA RESULT:      -8.1      3.182      8.309
REMARK  Name = 
REMARK  3 active torsions:
REMARK  status: ('A' for Active; 'I' for Inactive)
REMARK    1  A    between atoms: C_2  and  C_3
REMARK    2  A    between atoms: C_3  and  C_4
REMARK    3  A    between atoms: C_21  and  C_22
REMARK                            x       y       z     vdW  Elec       q    Type
REMARK                         _______ _______ _______ _____ _____    ______ ____
ROOT
ATOM      1  O   UNL     1       2.250   9.343  17.703  0.00  0.00    +0.000 OA
ATOM      2  C   UNL     1       1.790   8.798  18.706  0.00  0.00    +0.000 C 
ATOM      3  N   UNL     1       0.849   9.409  19.540  0.00  0.00    +0.000 N 
ATOM      4  C   UNL     1       0.528   8.831  20.847  0.00  0.00    +0.000 C 
ATOM      5  C   UNL     1      -0.563   9.513  21.659  0.00  0.00    +0.000 C 
ATOM      6  C   UNL     1      -0.402  11.001  21.626  0.00  0.00    +0.000 A 
ATOM      7  C   UNL     1      -0.791  11.781  22.720  0.00  0.00    +0.000 A 
ATOM      8  C   UNL     1      -0.605  13.160  22.697  0.00  0.00    +0.000 A 
ATOM      9  C   UNL     1      -0.042  13.763  21.578  0.00  0.00    +0.000 A 
ATOM     10  C   UNL     1       0.290  12.999  20.451  0.00  0.00    +0.000 A 
ATOM     11  C   UNL     1       0.096  11.608  20.455  0.00  0.00    +0.000 A 
ATOM     12  C   UNL     1       0.341  10.758  19.201  0.00  0.00    +0.000 C 
ENDROOT
BRANCH  12  13
ATOM     13  C   UNL     1      -0.889  10.657  18.272  0.00  0.00    +0.000 A 
ATOM     14  C   UNL     1      -1.928  11.609  18.361  0.00  0.00    +0.000 A 
ATOM     15  C   UNL     1      -3.070  11.509  17.557  0.00  0.00    +0.000 A 
ATOM     16  C   UNL     1      -3.180  10.469  16.647  0.00  0.00    +0.000 A 
ATOM     17  F   UNL     1      -4.283  10.358  15.889  0.00  0.00    +0.000 F 
ATOM     18  C   UNL     1      -2.165   9.537  16.504  0.00  0.00    +0.000 A 
ATOM     19  C   UNL     1      -1.027   9.631  17.313  0.00  0.00    +0.000 A 
ENDBRANCH  12  13
BRANCH   2  20
ATOM     20  C   UNL     1       2.215   7.386  19.118  0.00  0.00    +0.000 C 
BRANCH  20  21
ATOM     21  C   UNL     1       2.800   6.528  17.992  0.00  0.00    +0.000 C 
ATOM     22  C   UNL     1       2.189   5.107  17.964  0.00  0.00    +0.000 C 
ATOM     23  N   UNL     1       3.230   4.053  17.933  0.00  0.00    +0.000 NA
ATOM     24  C   UNL     1       4.115   4.282  16.772  0.00  0.00    +0.000 C 
ATOM     25  C   UNL     1       4.820   5.646  16.849  0.00  0.00    +0.000 C 
ATOM     26  C   UNL     1       4.343   6.391  18.107  0.00  0.00    +0.000 C 
ATOM     27  C   UNL     1       4.709   5.507  19.315  0.00  0.00    +0.000 C 
ATOM     28  C   UNL     1       4.029   4.138  19.171  0.00  0.00    +0.000 C 
ENDBRANCH  20  21
ENDBRANCH   2  20
TORSDOF 3
ENDMDL
