MODEL 1
REMARK VINA RESULT:      -7.6      0.000      0.000
REMARK  Name = 
REMARK  7 active torsions:
REMARK  status: ('A' for Active; 'I' for Inactive)
REMARK    1  A    between atoms: C_2  and  C_3
REMARK    2  A    between atoms: C_3  and  O_4
REMARK    3  A    between atoms: C_5  and  C_6
REMARK    4  A    between atoms: C_6  and  O_7
REMARK    5  A    between atoms: C_9  and  N_10
REMARK    6  A    between atoms: C_12  and  C_13
REMARK    7  A    between atoms: C_19  and  O_20
REMARK                            x       y       z     vdW  Elec       q    Type
REMARK                         _______ _______ _______ _____ _____    ______ ____
ROOT
ATOM      1  C   UNL     1       6.979   6.189  16.752  0.00  0.00    +0.000 C 
ATOM      2  C   UNL     1       7.109   5.068  17.802  0.00  0.00    +0.000 C 
ATOM      3  O   UNL     1       6.001   4.169  17.593  0.00  0.00    +0.000 OA
ATOM      4  C   UNL     1       4.946   4.846  16.877  0.00  0.00    +0.000 C 
ATOM      5  C   UNL     1       5.474   6.220  16.429  0.00  0.00    +0.000 C 
ENDROOT
BRANCH   4   6
ATOM      6  N   UNL     1       3.723   4.879  17.712  0.00  0.00    +0.000 N 
ATOM      7  C   UNL     1       3.335   6.043  18.347  0.00  0.00    +0.000 A 
ATOM      8  C   UNL     1       2.436   6.089  19.332  0.00  0.00    +0.000 A 
ATOM      9  C   UNL     1       2.149   7.333  20.108  0.00  0.00    +0.000 C 
ATOM     10  C   UNL     1       1.784   4.824  19.730  0.00  0.00    +0.000 A 
ATOM     11  O   UNL     1       1.050   4.751  20.701  0.00  0.00    +0.000 OA
ATOM     12  N   UNL     1       2.089   3.742  18.952  0.00  0.00    +0.000 N 
ATOM     13  C   UNL     1       3.128   3.664  18.054  0.00  0.00    +0.000 A 
ATOM     14  O   UNL     1       3.496   2.570  17.641  0.00  0.00    +0.000 OA
ATOM     15  H   UNL     1       1.707   2.859  19.249  0.00  0.00    +0.000 HD
ENDBRANCH   4   6
BRANCH   1  17
ATOM     16  C   UNL     1       7.747   8.687  17.821  0.00  0.00    +0.000 C 
ATOM     17  C   UNL     1       7.392   7.534  17.327  0.00  0.00    +0.000 C 
ENDBRANCH   1  17
BRANCH   1  18
ATOM     18  O   UNL     1       7.724   5.888  15.569  0.00  0.00    +0.000 OA
ATOM     19  H   UNL     1       7.359   5.062  15.206  0.00  0.00    +0.000 HD
ENDBRANCH   1  18
BRANCH   5  20
ATOM     20  O   UNL     1       5.267   6.462  15.030  0.00  0.00    +0.000 OA
ATOM     21  H   UNL     1       5.496   5.625  14.574  0.00  0.00    +0.000 HD
ENDBRANCH   5  20
BRANCH   2  22
ATOM     22  C   UNL     1       7.098   5.543  19.273  0.00  0.00    +0.000 C 
BRANCH  22  23
ATOM     23  O   UNL     1       8.353   5.321  19.913  0.00  0.00    +0.000 OA
ATOM     24  H   UNL     1       9.044   5.729  19.367  0.00  0.00    +0.000 HD
ENDBRANCH  22  23
ENDBRANCH   2  22
TORSDOF 6
ENDMDL
MODEL 2
REMARK VINA RESULT:      -7.6      2.043      5.847
REMARK  Name = 
REMARK  7 active torsions:
REMARK  status: ('A' for Active; 'I' for Inactive)
REMARK    1  A    between atoms: C_2  and  C_3
REMARK    2  A    between atoms: C_3  and  O_4
REMARK    3  A    between atoms: C_5  and  C_6
REMARK    4  A    between atoms: C_6  and  O_7
REMARK    5  A    between atoms: C_9  and  N_10
REMARK    6  A    between atoms: C_12  and  C_13
REMARK    7  A    between atoms: C_19  and  O_20
REMARK                            x       y       z     vdW  Elec       q    Type
REMARK                         _______ _______ _______ _____ _____    ______ ____
ROOT
ATOM      1  C   UNL     1       2.826   3.568  20.056  0.00  0.00    +0.000 C 
ATOM      2  C   UNL     1       3.954   2.560  19.765  0.00  0.00    +0.000 C 
ATOM      3  O   UNL     1       5.187   3.308  19.736  0.00  0.00    +0.000 OA
ATOM      4  C   UNL     1       4.910   4.703  19.489  0.00  0.00    +0.000 C 
ATOM      5  C   UNL     1       3.385   4.908  19.543  0.00  0.00    +0.000 C 
ENDROOT
BRANCH   4   6
ATOM      6  N   UNL     1       5.561   5.121  18.226  0.00  0.00    +0.000 N 
ATOM      7  C   UNL     1       5.026   4.757  17.004  0.00  0.00    +0.000 A 
ATOM      8  C   UNL     1       5.689   4.835  15.850  0.00  0.00    +0.000 A 
ATOM      9  C   UNL     1       5.149   4.290  14.568  0.00  0.00    +0.000 C 
ATOM     10  C   UNL     1       7.059   5.389  15.877  0.00  0.00    +0.000 A 
ATOM     11  O   UNL     1       7.782   5.377  14.895  0.00  0.00    +0.000 OA
ATOM     12  N   UNL     1       7.463   5.883  17.085  0.00  0.00    +0.000 N 
ATOM     13  C   UNL     1       6.848   5.654  18.294  0.00  0.00    +0.000 A 
ATOM     14  O   UNL     1       7.450   5.883  19.337  0.00  0.00    +0.000 OA
ATOM     15  H   UNL     1       8.416   6.203  17.139  0.00  0.00    +0.000 HD
ENDBRANCH   4   6
BRANCH   1  17
ATOM     16  C   UNL     1       0.485   2.930  18.612  0.00  0.00    +0.000 C 
ATOM     17  C   UNL     1       1.566   3.225  19.279  0.00  0.00    +0.000 C 
ENDBRANCH   1  17
BRANCH   1  18
ATOM     18  O   UNL     1       2.553   3.660  21.457  0.00  0.00    +0.000 OA
ATOM     19  H   UNL     1       1.921   4.391  21.575  0.00  0.00    +0.000 HD
ENDBRANCH   1  18
BRANCH   5  20
ATOM     20  O   UNL     1       3.002   5.979  20.418  0.00  0.00    +0.000 OA
ATOM     21  H   UNL     1       2.950   6.781  19.857  0.00  0.00    +0.000 HD
ENDBRANCH   5  20
BRANCH   2  22
ATOM     22  C   UNL     1       3.811   1.780  18.437  0.00  0.00    +0.000 C 
BRANCH  22  23
ATOM     23  O   UNL     1       4.422   0.493  18.509  0.00  0.00    +0.000 OA
ATOM     24  H   UNL     1       4.738   0.262  17.621  0.00  0.00    +0.000 HD
ENDBRANCH  22  23
ENDBRANCH   2  22
TORSDOF 6
ENDMDL
MODEL 3
REMARK VINA RESULT:      -7.3      2.358      5.875
REMARK  Name = 
REMARK  7 active torsions:
REMARK  status: ('A' for Active; 'I' for Inactive)
REMARK    1  A    between atoms: C_2  and  C_3
REMARK    2  A    between atoms: C_3  and  O_4
REMARK    3  A    between atoms: C_5  and  C_6
REMARK    4  A    between atoms: C_6  and  O_7
REMARK    5  A    between atoms: C_9  and  N_10
REMARK    6  A    between atoms: C_12  and  C_13
REMARK    7  A    between atoms: C_19  and  O_20
REMARK                            x       y       z     vdW  Elec       q    Type
REMARK                         _______ _______ _______ _____ _____    ______ ____
ROOT
ATOM      1  C   UNL     1       1.352   3.205  19.334  0.00  0.00    +0.000 C 
ATOM      2  C   UNL     1       1.413   4.735  19.163  0.00  0.00    +0.000 C 
ATOM      3  O   UNL     1       2.093   4.991  17.917  0.00  0.00    +0.000 OA
ATOM      4  C   UNL     1       2.881   3.841  17.542  0.00  0.00    +0.000 C 
ATOM      5  C   UNL     1       2.549   2.693  18.513  0.00  0.00    +0.000 C 
ENDROOT
BRANCH   4   6
ATOM      6  N   UNL     1       4.311   4.221  17.476  0.00  0.00    +0.000 N 
ATOM      7  C   UNL     1       4.901   4.535  16.266  0.00  0.00    +0.000 A 
ATOM      8  C   UNL     1       6.219   4.600  16.077  0.00  0.00    +0.000 A 
ATOM      9  C   UNL     1       6.835   4.785  14.728  0.00  0.00    +0.000 C 
ATOM     10  C   UNL     1       7.097   4.369  17.244  0.00  0.00    +0.000 A 
ATOM     11  O   UNL     1       8.308   4.282  17.136  0.00  0.00    +0.000 OA
ATOM     12  N   UNL     1       6.449   4.231  18.439  0.00  0.00    +0.000 N 
ATOM     13  C   UNL     1       5.103   4.003  18.604  0.00  0.00    +0.000 A 
ATOM     14  O   UNL     1       4.680   3.595  19.680  0.00  0.00    +0.000 OA
ATOM     15  H   UNL     1       7.026   4.007  19.234  0.00  0.00    +0.000 HD
ENDBRANCH   4   6
BRANCH   1  17
ATOM     16  C   UNL     1       1.699   2.461  22.036  0.00  0.00    +0.000 C 
ATOM     17  C   UNL     1       1.539   2.805  20.789  0.00  0.00    +0.000 C 
ENDBRANCH   1  17
BRANCH   1  18
ATOM     18  O   UNL     1       0.137   2.666  18.808  0.00  0.00    +0.000 OA
ATOM     19  H   UNL     1      -0.392   3.419  18.488  0.00  0.00    +0.000 HD
ENDBRANCH   1  18
BRANCH   5  20
ATOM     20  O   UNL     1       2.207   1.476  17.833  0.00  0.00    +0.000 OA
ATOM     21  H   UNL     1       3.055   1.093  17.522  0.00  0.00    +0.000 HD
ENDBRANCH   5  20
BRANCH   2  22
ATOM     22  C   UNL     1       2.144   5.493  20.296  0.00  0.00    +0.000 C 
BRANCH  22  23
ATOM     23  O   UNL     1       3.102   6.418  19.784  0.00  0.00    +0.000 OA
ATOM     24  H   UNL     1       3.424   6.956  20.524  0.00  0.00    +0.000 HD
ENDBRANCH  22  23
ENDBRANCH   2  22
TORSDOF 6
ENDMDL
MODEL 4
REMARK VINA RESULT:      -7.3      2.105      5.600
REMARK  Name = 
REMARK  7 active torsions:
REMARK  status: ('A' for Active; 'I' for Inactive)
REMARK    1  A    between atoms: C_2  and  C_3
REMARK    2  A    between atoms: C_3  and  O_4
REMARK    3  A    between atoms: C_5  and  C_6
REMARK    4  A    between atoms: C_6  and  O_7
REMARK    5  A    between atoms: C_9  and  N_10
REMARK    6  A    between atoms: C_12  and  C_13
REMARK    7  A    between atoms: C_19  and  O_20
REMARK                            x       y       z     vdW  Elec       q    Type
REMARK                         _______ _______ _______ _____ _____    ______ ____
ROOT
ATOM      1  C   UNL     1       2.436   2.615  18.902  0.00  0.00    +0.000 C 
ATOM      2  C   UNL     1       2.035   3.879  18.118  0.00  0.00    +0.000 C 
ATOM      3  O   UNL     1       2.863   3.921  16.938  0.00  0.00    +0.000 OA
ATOM      4  C   UNL     1       4.045   3.117  17.138  0.00  0.00    +0.000 C 
ATOM      5  C   UNL     1       3.890   2.355  18.466  0.00  0.00    +0.000 C 
ENDROOT
BRANCH   4   6
ATOM      6  N   UNL     1       5.249   3.974  17.036  0.00  0.00    +0.000 N 
ATOM      7  C   UNL     1       5.933   4.365  18.172  0.00  0.00    +0.000 A 
ATOM      8  C   UNL     1       6.829   5.353  18.197  0.00  0.00    +0.000 A 
ATOM      9  C   UNL     1       7.438   5.860  19.463  0.00  0.00    +0.000 C 
ATOM     10  C   UNL     1       7.141   6.033  16.923  0.00  0.00    +0.000 A 
ATOM     11  O   UNL     1       7.847   7.026  16.875  0.00  0.00    +0.000 OA
ATOM     12  N   UNL     1       6.557   5.489  15.814  0.00  0.00    +0.000 N 
ATOM     13  C   UNL     1       5.518   4.587  15.812  0.00  0.00    +0.000 A 
ATOM     14  O   UNL     1       4.875   4.399  14.785  0.00  0.00    +0.000 OA
ATOM     15  H   UNL     1       6.705   5.980  14.947  0.00  0.00    +0.000 HD
ENDBRANCH   4   6
BRANCH   1  17
ATOM     16  C   UNL     1       2.374   3.072  21.688  0.00  0.00    +0.000 C 
ATOM     17  C   UNL     1       2.403   2.861  20.401  0.00  0.00    +0.000 C 
ENDBRANCH   1  17
BRANCH   1  18
ATOM     18  O   UNL     1       1.617   1.497  18.549  0.00  0.00    +0.000 OA
ATOM     19  H   UNL     1       1.408   1.586  17.602  0.00  0.00    +0.000 HD
ENDBRANCH   1  18
BRANCH   5  20
ATOM     20  O   UNL     1       4.127   0.947  18.326  0.00  0.00    +0.000 OA
ATOM     21  H   UNL     1       4.475   0.820  17.418  0.00  0.00    +0.000 HD
ENDBRANCH   5  20
BRANCH   2  22
ATOM     22  C   UNL     1       2.199   5.209  18.891  0.00  0.00    +0.000 C 
BRANCH  22  23
ATOM     23  O   UNL     1       2.774   6.229  18.076  0.00  0.00    +0.000 OA
ATOM     24  H   UNL     1       2.206   7.014  18.133  0.00  0.00    +0.000 HD
ENDBRANCH  22  23
ENDBRANCH   2  22
TORSDOF 6
ENDMDL
MODEL 5
REMARK VINA RESULT:      -7.2      1.325      1.881
REMARK  Name = 
REMARK  7 active torsions:
REMARK  status: ('A' for Active; 'I' for Inactive)
REMARK    1  A    between atoms: C_2  and  C_3
REMARK    2  A    between atoms: C_3  and  O_4
REMARK    3  A    between atoms: C_5  and  C_6
REMARK    4  A    between atoms: C_6  and  O_7
REMARK    5  A    between atoms: C_9  and  N_10
REMARK    6  A    between atoms: C_12  and  C_13
REMARK    7  A    between atoms: C_19  and  O_20
REMARK                            x       y       z     vdW  Elec       q    Type
REMARK                         _______ _______ _______ _____ _____    ______ ____
ROOT
ATOM      1  C   UNL     1       7.206   6.416  17.081  0.00  0.00    +0.000 C 
ATOM      2  C   UNL     1       7.529   5.322  18.118  0.00  0.00    +0.000 C 
ATOM      3  O   UNL     1       6.413   4.408  18.123  0.00  0.00    +0.000 OA
ATOM      4  C   UNL     1       5.242   5.058  17.584  0.00  0.00    +0.000 C 
ATOM      5  C   UNL     1       5.668   6.426  17.021  0.00  0.00    +0.000 C 
ENDROOT
BRANCH   4   6
ATOM      6  N   UNL     1       4.181   5.100  18.616  0.00  0.00    +0.000 N 
ATOM      7  C   UNL     1       4.030   4.059  19.513  0.00  0.00    +0.000 A 
ATOM      8  C   UNL     1       2.943   3.879  20.266  0.00  0.00    +0.000 A 
ATOM      9  C   UNL     1       2.737   2.664  21.110  0.00  0.00    +0.000 C 
ATOM     10  C   UNL     1       1.861   4.881  20.168  0.00  0.00    +0.000 A 
ATOM     11  O   UNL     1       0.785   4.729  20.719  0.00  0.00    +0.000 OA
ATOM     12  N   UNL     1       2.146   5.969  19.391  0.00  0.00    +0.000 N 
ATOM     13  C   UNL     1       3.186   6.071  18.497  0.00  0.00    +0.000 A 
ATOM     14  O   UNL     1       3.173   6.951  17.643  0.00  0.00    +0.000 OA
ATOM     15  H   UNL     1       1.396   6.629  19.259  0.00  0.00    +0.000 HD
ENDBRANCH   4   6
BRANCH   1  17
ATOM     16  C   UNL     1       8.114   8.946  17.946  0.00  0.00    +0.000 C 
ATOM     17  C   UNL     1       7.695   7.778  17.546  0.00  0.00    +0.000 C 
ENDBRANCH   1  17
BRANCH   1  18
ATOM     18  O   UNL     1       7.740   6.093  15.795  0.00  0.00    +0.000 OA
ATOM     19  H   UNL     1       7.933   6.937  15.348  0.00  0.00    +0.000 HD
ENDBRANCH   1  18
BRANCH   5  20
ATOM     20  O   UNL     1       5.221   6.631  15.673  0.00  0.00    +0.000 OA
ATOM     21  H   UNL     1       5.995   6.976  15.181  0.00  0.00    +0.000 HD
ENDBRANCH   5  20
BRANCH   2  22
ATOM     22  C   UNL     1       7.764   5.833  19.558  0.00  0.00    +0.000 C 
BRANCH  22  23
ATOM     23  O   UNL     1       8.754   5.063  20.239  0.00  0.00    +0.000 OA
ATOM     24  H   UNL     1       9.207   5.647  20.868  0.00  0.00    +0.000 HD
ENDBRANCH  22  23
ENDBRANCH   2  22
TORSDOF 6
ENDMDL
MODEL 6
REMARK VINA RESULT:      -7.0      2.140      5.652
REMARK  Name = 
REMARK  7 active torsions:
REMARK  status: ('A' for Active; 'I' for Inactive)
REMARK    1  A    between atoms: C_2  and  C_3
REMARK    2  A    between atoms: C_3  and  O_4
REMARK    3  A    between atoms: C_5  and  C_6
REMARK    4  A    between atoms: C_6  and  O_7
REMARK    5  A    between atoms: C_9  and  N_10
REMARK    6  A    between atoms: C_12  and  C_13
REMARK    7  A    between atoms: C_19  and  O_20
REMARK                            x       y       z     vdW  Elec       q    Type
REMARK                         _______ _______ _______ _____ _____    ______ ____
ROOT
ATOM      1  C   UNL     1       2.947   4.702  19.645  0.00  0.00    +0.000 C 
ATOM      2  C   UNL     1       4.282   3.959  19.845  0.00  0.00    +0.000 C 
ATOM      3  O   UNL     1       5.333   4.890  19.515  0.00  0.00    +0.000 OA
ATOM      4  C   UNL     1       4.811   5.945  18.679  0.00  0.00    +0.000 C 
ATOM      5  C   UNL     1       3.281   5.791  18.609  0.00  0.00    +0.000 C 
ENDROOT
BRANCH   4   6
ATOM      6  N   UNL     1       5.509   5.931  17.373  0.00  0.00    +0.000 N 
ATOM      7  C   UNL     1       4.999   5.212  16.309  0.00  0.00    +0.000 A 
ATOM      8  C   UNL     1       5.697   4.909  15.213  0.00  0.00    +0.000 A 
ATOM      9  C   UNL     1       5.177   4.000  14.148  0.00  0.00    +0.000 C 
ATOM     10  C   UNL     1       7.081   5.418  15.114  0.00  0.00    +0.000 A 
ATOM     11  O   UNL     1       7.831   5.084  14.212  0.00  0.00    +0.000 OA
ATOM     12  N   UNL     1       7.464   6.259  16.120  0.00  0.00    +0.000 N 
ATOM     13  C   UNL     1       6.810   6.434  17.317  0.00  0.00    +0.000 A 
ATOM     14  O   UNL     1       7.388   6.968  18.257  0.00  0.00    +0.000 OA
ATOM     15  H   UNL     1       8.425   6.562  16.105  0.00  0.00    +0.000 HD
ENDBRANCH   4   6
BRANCH   1  17
ATOM     16  C   UNL     1       0.971   2.989  18.580  0.00  0.00    +0.000 C 
ATOM     17  C   UNL     1       1.883   3.780  19.072  0.00  0.00    +0.000 C 
ENDBRANCH   1  17
BRANCH   1  18
ATOM     18  O   UNL     1       2.497   5.309  20.859  0.00  0.00    +0.000 OA
ATOM     19  H   UNL     1       1.556   5.528  20.735  0.00  0.00    +0.000 HD
ENDBRANCH   1  18
BRANCH   5  20
ATOM     20  O   UNL     1       2.589   7.009  18.921  0.00  0.00    +0.000 OA
ATOM     21  H   UNL     1       1.825   7.050  18.309  0.00  0.00    +0.000 HD
ENDBRANCH   5  20
BRANCH   2  22
ATOM     22  C   UNL     1       4.457   2.683  18.989  0.00  0.00    +0.000 C 
BRANCH  22  23
ATOM     23  O   UNL     1       4.971   1.596  19.756  0.00  0.00    +0.000 OA
ATOM     24  H   UNL     1       4.693   1.721  20.677  0.00  0.00    +0.000 HD
ENDBRANCH  22  23
ENDBRANCH   2  22
TORSDOF 6
ENDMDL
MODEL 7
REMARK VINA RESULT:      -6.7      2.401      5.890
REMARK  Name = 
REMARK  7 active torsions:
REMARK  status: ('A' for Active; 'I' for Inactive)
REMARK    1  A    between atoms: C_2  and  C_3
REMARK    2  A    between atoms: C_3  and  O_4
REMARK    3  A    between atoms: C_5  and  C_6
REMARK    4  A    between atoms: C_6  and  O_7
REMARK    5  A    between atoms: C_9  and  N_10
REMARK    6  A    between atoms: C_12  and  C_13
REMARK    7  A    between atoms: C_19  and  O_20
REMARK                            x       y       z     vdW  Elec       q    Type
REMARK                         _______ _______ _______ _____ _____    ______ ____
ROOT
ATOM      1  C   UNL     1       3.809   4.362  19.400  0.00  0.00    +0.000 C 
ATOM      2  C   UNL     1       3.232   3.515  18.250  0.00  0.00    +0.000 C 
ATOM      3  O   UNL     1       4.355   3.003  17.503  0.00  0.00    +0.000 OA
ATOM      4  C   UNL     1       5.522   3.815  17.752  0.00  0.00    +0.000 C 
ATOM      5  C   UNL     1       5.184   4.811  18.875  0.00  0.00    +0.000 C 
ENDROOT
BRANCH   4   6
ATOM      6  N   UNL     1       5.981   4.424  16.482  0.00  0.00    +0.000 N 
ATOM      7  C   UNL     1       5.488   3.980  15.270  0.00  0.00    +0.000 A 
ATOM      8  C   UNL     1       6.049   4.258  14.092  0.00  0.00    +0.000 A 
ATOM      9  C   UNL     1       5.591   3.640  12.812  0.00  0.00    +0.000 C 
ATOM     10  C   UNL     1       7.239   5.134  14.084  0.00  0.00    +0.000 A 
ATOM     11  O   UNL     1       7.889   5.335  13.073  0.00  0.00    +0.000 OA
ATOM     12  N   UNL     1       7.573   5.672  15.296  0.00  0.00    +0.000 N 
ATOM     13  C   UNL     1       7.100   5.257  16.519  0.00  0.00    +0.000 A 
ATOM     14  O   UNL     1       7.682   5.593  17.544  0.00  0.00    +0.000 OA
ATOM     15  H   UNL     1       8.420   6.217  15.322  0.00  0.00    +0.000 HD
ENDBRANCH   4   6
BRANCH   1  17
ATOM     16  C   UNL     1       2.217   6.643  19.890  0.00  0.00    +0.000 C 
ATOM     17  C   UNL     1       2.952   5.590  19.664  0.00  0.00    +0.000 C 
ENDBRANCH   1  17
BRANCH   1  18
ATOM     18  O   UNL     1       3.972   3.588  20.591  0.00  0.00    +0.000 OA
ATOM     19  H   UNL     1       4.352   2.732  20.323  0.00  0.00    +0.000 HD
ENDBRANCH   1  18
BRANCH   5  20
ATOM     20  O   UNL     1       6.153   4.799  19.934  0.00  0.00    +0.000 OA
ATOM     21  H   UNL     1       6.636   3.950  19.849  0.00  0.00    +0.000 HD
ENDBRANCH   5  20
BRANCH   2  22
ATOM     22  C   UNL     1       2.293   4.274  17.283  0.00  0.00    +0.000 C 
BRANCH  22  23
ATOM     23  O   UNL     1       0.939   3.842  17.410  0.00  0.00    +0.000 OA
ATOM     24  H   UNL     1       0.795   3.577  18.332  0.00  0.00    +0.000 HD
ENDBRANCH  22  23
ENDBRANCH   2  22
TORSDOF 6
ENDMDL
MODEL 8
REMARK VINA RESULT:      -6.6      1.891      2.721
REMARK  Name = 
REMARK  7 active torsions:
REMARK  status: ('A' for Active; 'I' for Inactive)
REMARK    1  A    between atoms: C_2  and  C_3
REMARK    2  A    between atoms: C_3  and  O_4
REMARK    3  A    between atoms: C_5  and  C_6
REMARK    4  A    between atoms: C_6  and  O_7
REMARK    5  A    between atoms: C_9  and  N_10
REMARK    6  A    between atoms: C_12  and  C_13
REMARK    7  A    between atoms: C_19  and  O_20
REMARK                            x       y       z     vdW  Elec       q    Type
REMARK                         _______ _______ _______ _____ _____    ______ ____
ROOT
ATOM      1  C   UNL     1       5.637   6.523  16.666  0.00  0.00    +0.000 C 
ATOM      2  C   UNL     1       5.955   5.016  16.618  0.00  0.00    +0.000 C 
ATOM      3  O   UNL     1       4.733   4.321  16.939  0.00  0.00    +0.000 OA
ATOM      4  C   UNL     1       3.836   5.203  17.649  0.00  0.00    +0.000 C 
ATOM      5  C   UNL     1       4.439   6.619  17.628  0.00  0.00    +0.000 C 
ENDROOT
BRANCH   4   6
ATOM      6  N   UNL     1       3.562   4.650  18.995  0.00  0.00    +0.000 N 
ATOM      7  C   UNL     1       4.227   3.525  19.444  0.00  0.00    +0.000 A 
ATOM      8  C   UNL     1       3.841   2.803  20.497  0.00  0.00    +0.000 A 
ATOM      9  C   UNL     1       4.482   1.505  20.867  0.00  0.00    +0.000 C 
ATOM     10  C   UNL     1       2.659   3.266  21.254  0.00  0.00    +0.000 A 
ATOM     11  O   UNL     1       2.161   2.601  22.147  0.00  0.00    +0.000 OA
ATOM     12  N   UNL     1       2.151   4.472  20.860  0.00  0.00    +0.000 N 
ATOM     13  C   UNL     1       2.446   5.124  19.686  0.00  0.00    +0.000 A 
ATOM     14  O   UNL     1       1.720   6.030  19.293  0.00  0.00    +0.000 OA
ATOM     15  H   UNL     1       1.307   4.771  21.321  0.00  0.00    +0.000 HD
ENDBRANCH   4   6
BRANCH   1  17
ATOM     16  C   UNL     1       7.799   7.993  17.735  0.00  0.00    +0.000 C 
ATOM     17  C   UNL     1       6.801   7.314  17.241  0.00  0.00    +0.000 C 
ENDBRANCH   1  17
BRANCH   1  18
ATOM     18  O   UNL     1       5.267   7.023  15.378  0.00  0.00    +0.000 OA
ATOM     19  H   UNL     1       6.093   7.188  14.890  0.00  0.00    +0.000 HD
ENDBRANCH   1  18
BRANCH   5  20
ATOM     20  O   UNL     1       3.506   7.609  17.170  0.00  0.00    +0.000 OA
ATOM     21  H   UNL     1       3.404   7.459  16.207  0.00  0.00    +0.000 HD
ENDBRANCH   5  20
BRANCH   2  22
ATOM     22  C   UNL     1       7.065   4.549  17.587  0.00  0.00    +0.000 C 
BRANCH  22  23
ATOM     23  O   UNL     1       8.215   4.075  16.889  0.00  0.00    +0.000 OA
ATOM     24  H   UNL     1       8.991   4.544  17.235  0.00  0.00    +0.000 HD
ENDBRANCH  22  23
ENDBRANCH   2  22
TORSDOF 6
ENDMDL
MODEL 9
REMARK VINA RESULT:      -6.5      2.282      3.450
REMARK  Name = 
REMARK  7 active torsions:
REMARK  status: ('A' for Active; 'I' for Inactive)
REMARK    1  A    between atoms: C_2  and  C_3
REMARK    2  A    between atoms: C_3  and  O_4
REMARK    3  A    between atoms: C_5  and  C_6
REMARK    4  A    between atoms: C_6  and  O_7
REMARK    5  A    between atoms: C_9  and  N_10
REMARK    6  A    between atoms: C_12  and  C_13
REMARK    7  A    between atoms: C_19  and  O_20
REMARK                            x       y       z     vdW  Elec       q    Type
REMARK                         _______ _______ _______ _____ _____    ______ ____
ROOT
ATOM      1  C   UNL     1       4.575   3.609  17.274  0.00  0.00    +0.000 C 
ATOM      2  C   UNL     1       5.204   3.998  18.626  0.00  0.00    +0.000 C 
ATOM      3  O   UNL     1       4.126   4.080  19.581  0.00  0.00    +0.000 OA
ATOM      4  C   UNL     1       2.871   4.267  18.892  0.00  0.00    +0.000 C 
ATOM      5  C   UNL     1       3.125   4.114  17.382  0.00  0.00    +0.000 C 
ENDROOT
BRANCH   4   6
ATOM      6  N   UNL     1       2.267   5.554  19.306  0.00  0.00    +0.000 N 
ATOM      7  C   UNL     1       2.301   6.651  18.466  0.00  0.00    +0.000 A 
ATOM      8  C   UNL     1       2.052   7.899  18.863  0.00  0.00    +0.000 A 
ATOM      9  C   UNL     1       2.248   9.085  17.976  0.00  0.00    +0.000 C 
ATOM     10  C   UNL     1       1.668   8.111  20.275  0.00  0.00    +0.000 A 
ATOM     11  O   UNL     1       1.548   9.226  20.753  0.00  0.00    +0.000 OA
ATOM     12  N   UNL     1       1.490   6.970  21.006  0.00  0.00    +0.000 N 
ATOM     13  C   UNL     1       1.903   5.709  20.644  0.00  0.00    +0.000 A 
ATOM     14  O   UNL     1       1.969   4.823  21.489  0.00  0.00    +0.000 OA
ATOM     15  H   UNL     1       1.294   7.096  21.986  0.00  0.00    +0.000 HD
ENDBRANCH   4   6
BRANCH   1  17
ATOM     16  C   UNL     1       5.857   4.927  15.131  0.00  0.00    +0.000 C 
ATOM     17  C   UNL     1       5.265   4.319  16.121  0.00  0.00    +0.000 C 
ENDBRANCH   1  17
BRANCH   1  18
ATOM     18  O   UNL     1       4.583   2.192  17.081  0.00  0.00    +0.000 OA
ATOM     19  H   UNL     1       5.433   1.863  17.424  0.00  0.00    +0.000 HD
ENDBRANCH   1  18
BRANCH   5  20
ATOM     20  O   UNL     1       2.224   3.185  16.762  0.00  0.00    +0.000 OA
ATOM     21  H   UNL     1       1.832   3.658  15.997  0.00  0.00    +0.000 HD
ENDBRANCH   5  20
BRANCH   2  22
ATOM     22  C   UNL     1       5.976   5.338  18.629  0.00  0.00    +0.000 C 
BRANCH  22  23
ATOM     23  O   UNL     1       6.857   5.441  19.746  0.00  0.00    +0.000 OA
ATOM     24  H   UNL     1       6.374   5.870  20.470  0.00  0.00    +0.000 HD
ENDBRANCH  22  23
ENDBRANCH   2  22
TORSDOF 6
ENDMDL
