MODEL 1
REMARK VINA RESULT:      -7.2      0.000      0.000
REMARK  Name = 
REMARK  9 active torsions:
REMARK  status: ('A' for Active; 'I' for Inactive)
REMARK    1  A    between atoms: C_1  and  C_2
REMARK    2  A    between atoms: C_2  and  O_3
REMARK    3  A    between atoms: O_3  and  C_4
REMARK    4  A    between atoms: C_4  and  C_6
REMARK    5  A    between atoms: C_9  and  N_10
REMARK    6  A    between atoms: N_10  and  C_11
REMARK    7  A    between atoms: C_11  and  C_12
REMARK    8  A    between atoms: C_13  and  C_14
REMARK    9  A    between atoms: C_14  and  N_15
REMARK                            x       y       z     vdW  Elec       q    Type
REMARK                         _______ _______ _______ _____ _____    ______ ____
ROOT
ATOM      1  N   UNL     1       6.620   7.202  16.915  0.00  0.00    +0.000 N 
ATOM      2  H   UNL     1       6.322   8.124  16.605  0.00  0.00    +0.000 HD
ENDROOT
BRANCH   1   6
ATOM      3  C   UNL     1       3.212   4.811  17.706  0.00  0.00    +0.000 A 
ATOM      4  C   UNL     1       3.160   6.204  17.795  0.00  0.00    +0.000 A 
ATOM      5  C   UNL     1       4.305   6.975  17.560  0.00  0.00    +0.000 A 
ATOM      6  C   UNL     1       5.541   6.379  17.267  0.00  0.00    +0.000 A 
ATOM      7  C   UNL     1       5.582   4.979  17.200  0.00  0.00    +0.000 A 
ATOM      8  C   UNL     1       4.437   4.197  17.424  0.00  0.00    +0.000 A 
BRANCH   3   9
ATOM      9  C   UNL     1       1.961   4.047  17.946  0.00  0.00    +0.000 C 
ATOM     10  O   UNL     1       0.967   4.148  17.244  0.00  0.00    +0.000 OA
BRANCH   9  11
ATOM     11  O   UNL     1       2.056   3.326  19.091  0.00  0.00    +0.000 OA
BRANCH  11  13
ATOM     12  C   UNL     1       1.506   2.934  21.374  0.00  0.00    +0.000 C 
ATOM     13  C   UNL     1       1.124   3.697  20.115  0.00  0.00    +0.000 C 
ENDBRANCH  11  13
ENDBRANCH   9  11
ENDBRANCH   3   9
ENDBRANCH   1   6
BRANCH   1  14
ATOM     14  C   UNL     1       7.754   7.290  17.823  0.00  0.00    +0.000 C 
BRANCH  14  15
ATOM     15  C   UNL     1       8.215   8.730  17.976  0.00  0.00    +0.000 C 
ATOM     16  C   UNL     1       8.609   9.967  18.107  0.00  0.00    +0.000 C 
BRANCH  16  17
ATOM     17  C   UNL     1       9.069  11.406  18.261  0.00  0.00    +0.000 C 
BRANCH  17  18
ATOM     18  N   UNL     1      10.513  11.522  17.978  0.00  0.00    +0.000 NA
ATOM     19  C   UNL     1      11.317  11.449  19.216  0.00  0.00    +0.000 C 
ATOM     20  C   UNL     1      11.250  12.728  20.074  0.00  0.00    +0.000 C 
ATOM     21  O   UNL     1      11.670  13.876  19.326  0.00  0.00    +0.000 OA
ATOM     22  C   UNL     1      10.870  14.035  18.146  0.00  0.00    +0.000 C 
ATOM     23  C   UNL     1      10.908  12.769  17.273  0.00  0.00    +0.000 C 
ENDBRANCH  17  18
ENDBRANCH  16  17
ENDBRANCH  14  15
ENDBRANCH   1  14
TORSDOF 8
ENDMDL
MODEL 2
REMARK VINA RESULT:      -7.2      0.294      1.052
REMARK  Name = 
REMARK  9 active torsions:
REMARK  status: ('A' for Active; 'I' for Inactive)
REMARK    1  A    between atoms: C_1  and  C_2
REMARK    2  A    between atoms: C_2  and  O_3
REMARK    3  A    between atoms: O_3  and  C_4
REMARK    4  A    between atoms: C_4  and  C_6
REMARK    5  A    between atoms: C_9  and  N_10
REMARK    6  A    between atoms: N_10  and  C_11
REMARK    7  A    between atoms: C_11  and  C_12
REMARK    8  A    between atoms: C_13  and  C_14
REMARK    9  A    between atoms: C_14  and  N_15
REMARK                            x       y       z     vdW  Elec       q    Type
REMARK                         _______ _______ _______ _____ _____    ______ ____
ROOT
ATOM      1  N   UNL     1       6.575   7.417  16.707  0.00  0.00    +0.000 N 
ATOM      2  H   UNL     1       6.376   8.373  16.422  0.00  0.00    +0.000 HD
ENDROOT
BRANCH   1   6
ATOM      3  C   UNL     1       3.216   5.017  17.664  0.00  0.00    +0.000 A 
ATOM      4  C   UNL     1       4.331   4.482  17.018  0.00  0.00    +0.000 A 
ATOM      5  C   UNL     1       5.418   5.298  16.682  0.00  0.00    +0.000 A 
ATOM      6  C   UNL     1       5.409   6.676  16.948  0.00  0.00    +0.000 A 
ATOM      7  C   UNL     1       4.274   7.202  17.580  0.00  0.00    +0.000 A 
ATOM      8  C   UNL     1       3.182   6.391  17.929  0.00  0.00    +0.000 A 
BRANCH   3   9
ATOM      9  C   UNL     1       2.101   4.100  18.013  0.00  0.00    +0.000 C 
ATOM     10  O   UNL     1       1.126   3.925  17.298  0.00  0.00    +0.000 OA
BRANCH   9  11
ATOM     11  O   UNL     1       2.278   3.587  19.256  0.00  0.00    +0.000 OA
BRANCH  11  13
ATOM     12  C   UNL     1       1.384   2.874  21.344  0.00  0.00    +0.000 C 
ATOM     13  C   UNL     1       1.186   3.806  20.158  0.00  0.00    +0.000 C 
ENDBRANCH  11  13
ENDBRANCH   9  11
ENDBRANCH   3   9
ENDBRANCH   1   6
BRANCH   1  14
ATOM     14  C   UNL     1       7.645   7.371  17.692  0.00  0.00    +0.000 C 
BRANCH  14  15
ATOM     15  C   UNL     1       8.187   8.764  17.969  0.00  0.00    +0.000 C 
ATOM     16  C   UNL     1       8.650   9.960  18.206  0.00  0.00    +0.000 C 
BRANCH  16  17
ATOM     17  C   UNL     1       9.192  11.352  18.483  0.00  0.00    +0.000 C 
BRANCH  17  18
ATOM     18  N   UNL     1      10.566  11.487  17.963  0.00  0.00    +0.000 NA
ATOM     19  C   UNL     1      11.566  11.431  19.051  0.00  0.00    +0.000 C 
ATOM     20  C   UNL     1      11.625  12.714  19.905  0.00  0.00    +0.000 C 
ATOM     21  O   UNL     1      11.897  13.863  19.094  0.00  0.00    +0.000 OA
ATOM     22  C   UNL     1      10.910  14.005  18.064  0.00  0.00    +0.000 C 
ATOM     23  C   UNL     1      10.821  12.736  17.200  0.00  0.00    +0.000 C 
ENDBRANCH  17  18
ENDBRANCH  16  17
ENDBRANCH  14  15
ENDBRANCH   1  14
TORSDOF 8
ENDMDL
MODEL 3
REMARK VINA RESULT:      -7.1      1.131      1.380
REMARK  Name = 
REMARK  9 active torsions:
REMARK  status: ('A' for Active; 'I' for Inactive)
REMARK    1  A    between atoms: C_1  and  C_2
REMARK    2  A    between atoms: C_2  and  O_3
REMARK    3  A    between atoms: O_3  and  C_4
REMARK    4  A    between atoms: C_4  and  C_6
REMARK    5  A    between atoms: C_9  and  N_10
REMARK    6  A    between atoms: N_10  and  C_11
REMARK    7  A    between atoms: C_11  and  C_12
REMARK    8  A    between atoms: C_13  and  C_14
REMARK    9  A    between atoms: C_14  and  N_15
REMARK                            x       y       z     vdW  Elec       q    Type
REMARK                         _______ _______ _______ _____ _____    ______ ____
ROOT
ATOM      1  N   UNL     1       7.623   6.782  18.182  0.00  0.00    +0.000 N 
ATOM      2  H   UNL     1       8.515   6.299  18.105  0.00  0.00    +0.000 HD
ENDROOT
BRANCH   1   6
ATOM      3  C   UNL     1       4.167   4.346  17.892  0.00  0.00    +0.000 A 
ATOM      4  C   UNL     1       5.005   4.290  19.007  0.00  0.00    +0.000 A 
ATOM      5  C   UNL     1       6.159   5.079  19.071  0.00  0.00    +0.000 A 
ATOM      6  C   UNL     1       6.530   5.920  18.010  0.00  0.00    +0.000 A 
ATOM      7  C   UNL     1       5.689   5.952  16.889  0.00  0.00    +0.000 A 
ATOM      8  C   UNL     1       4.524   5.171  16.820  0.00  0.00    +0.000 A 
BRANCH   3   9
ATOM      9  C   UNL     1       2.946   3.500  17.890  0.00  0.00    +0.000 C 
ATOM     10  O   UNL     1       2.266   3.305  16.894  0.00  0.00    +0.000 OA
BRANCH   9  11
ATOM     11  O   UNL     1       2.656   3.080  19.146  0.00  0.00    +0.000 OA
BRANCH  11  13
ATOM     12  C   UNL     1       1.261   2.999  21.073  0.00  0.00    +0.000 C 
ATOM     13  C   UNL     1       1.400   3.543  19.660  0.00  0.00    +0.000 C 
ENDBRANCH  11  13
ENDBRANCH   9  11
ENDBRANCH   3   9
ENDBRANCH   1   6
BRANCH   1  14
ATOM     14  C   UNL     1       7.638   8.042  17.453  0.00  0.00    +0.000 C 
BRANCH  14  15
ATOM     15  C   UNL     1       8.393   9.107  18.230  0.00  0.00    +0.000 C 
ATOM     16  C   UNL     1       9.041  10.022  18.898  0.00  0.00    +0.000 C 
BRANCH  16  17
ATOM     17  C   UNL     1       9.796  11.086  19.675  0.00  0.00    +0.000 C 
BRANCH  17  18
ATOM     18  N   UNL     1      11.111  11.344  19.057  0.00  0.00    +0.000 NA
ATOM     19  C   UNL     1      11.919  12.279  19.868  0.00  0.00    +0.000 C 
ATOM     20  C   UNL     1      11.446  13.744  19.782  0.00  0.00    +0.000 C 
ATOM     21  O   UNL     1      11.440  14.206  18.426  0.00  0.00    +0.000 OA
ATOM     22  C   UNL     1      10.609  13.373  17.607  0.00  0.00    +0.000 C 
ATOM     23  C   UNL     1      11.050  11.901  17.681  0.00  0.00    +0.000 C 
ENDBRANCH  17  18
ENDBRANCH  16  17
ENDBRANCH  14  15
ENDBRANCH   1  14
TORSDOF 8
ENDMDL
MODEL 4
REMARK VINA RESULT:      -7.1      1.251      1.455
REMARK  Name = 
REMARK  9 active torsions:
REMARK  status: ('A' for Active; 'I' for Inactive)
REMARK    1  A    between atoms: C_1  and  C_2
REMARK    2  A    between atoms: C_2  and  O_3
REMARK    3  A    between atoms: O_3  and  C_4
REMARK    4  A    between atoms: C_4  and  C_6
REMARK    5  A    between atoms: C_9  and  N_10
REMARK    6  A    between atoms: N_10  and  C_11
REMARK    7  A    between atoms: C_11  and  C_12
REMARK    8  A    between atoms: C_13  and  C_14
REMARK    9  A    between atoms: C_14  and  N_15
REMARK                            x       y       z     vdW  Elec       q    Type
REMARK                         _______ _______ _______ _____ _____    ______ ____
ROOT
ATOM      1  N   UNL     1       6.181   7.358  17.008  0.00  0.00    +0.000 N 
ATOM      2  H   UNL     1       5.809   8.278  17.231  0.00  0.00    +0.000 HD
ENDROOT
BRANCH   1   6
ATOM      3  C   UNL     1       3.270   4.348  17.662  0.00  0.00    +0.000 A 
ATOM      4  C   UNL     1       3.008   5.689  17.952  0.00  0.00    +0.000 A 
ATOM      5  C   UNL     1       3.994   6.664  17.759  0.00  0.00    +0.000 A 
ATOM      6  C   UNL     1       5.278   6.327  17.306  0.00  0.00    +0.000 A 
ATOM      7  C   UNL     1       5.532   4.974  17.037  0.00  0.00    +0.000 A 
ATOM      8  C   UNL     1       4.547   3.990  17.219  0.00  0.00    +0.000 A 
BRANCH   3   9
ATOM      9  C   UNL     1       2.179   3.361  17.869  0.00  0.00    +0.000 C 
ATOM     10  O   UNL     1       2.159   2.262  17.338  0.00  0.00    +0.000 OA
BRANCH   9  11
ATOM     11  O   UNL     1       1.191   3.896  18.629  0.00  0.00    +0.000 OA
BRANCH  11  13
ATOM     12  C   UNL     1       1.604   3.703  20.965  0.00  0.00    +0.000 C 
ATOM     13  C   UNL     1       0.838   3.125  19.785  0.00  0.00    +0.000 C 
ENDBRANCH  11  13
ENDBRANCH   9  11
ENDBRANCH   3   9
ENDBRANCH   1   6
BRANCH   1  14
ATOM     14  C   UNL     1       7.561   7.224  17.450  0.00  0.00    +0.000 C 
BRANCH  14  15
ATOM     15  C   UNL     1       8.134   8.574  17.851  0.00  0.00    +0.000 C 
ATOM     16  C   UNL     1       8.625   9.733  18.194  0.00  0.00    +0.000 C 
BRANCH  16  17
ATOM     17  C   UNL     1       9.197  11.082  18.594  0.00  0.00    +0.000 C 
BRANCH  17  18
ATOM     18  N   UNL     1      10.014  10.956  19.817  0.00  0.00    +0.000 NA
ATOM     19  C   UNL     1       9.221  11.242  21.032  0.00  0.00    +0.000 C 
ATOM     20  C   UNL     1       8.915  12.739  21.234  0.00  0.00    +0.000 C 
ATOM     21  O   UNL     1      10.121  13.511  21.285  0.00  0.00    +0.000 OA
ATOM     22  C   UNL     1      10.895  13.326  20.093  0.00  0.00    +0.000 C 
ATOM     23  C   UNL     1      11.208  11.839  19.858  0.00  0.00    +0.000 C 
ENDBRANCH  17  18
ENDBRANCH  16  17
ENDBRANCH  14  15
ENDBRANCH   1  14
TORSDOF 8
ENDMDL
MODEL 5
REMARK VINA RESULT:      -7.0      1.107      1.709
REMARK  Name = 
REMARK  9 active torsions:
REMARK  status: ('A' for Active; 'I' for Inactive)
REMARK    1  A    between atoms: C_1  and  C_2
REMARK    2  A    between atoms: C_2  and  O_3
REMARK    3  A    between atoms: O_3  and  C_4
REMARK    4  A    between atoms: C_4  and  C_6
REMARK    5  A    between atoms: C_9  and  N_10
REMARK    6  A    between atoms: N_10  and  C_11
REMARK    7  A    between atoms: C_11  and  C_12
REMARK    8  A    between atoms: C_13  and  C_14
REMARK    9  A    between atoms: C_14  and  N_15
REMARK                            x       y       z     vdW  Elec       q    Type
REMARK                         _______ _______ _______ _____ _____    ______ ____
ROOT
ATOM      1  N   UNL     1       6.455   7.364  16.744  0.00  0.00    +0.000 N 
ATOM      2  H   UNL     1       6.147   8.332  16.699  0.00  0.00    +0.000 HD
ENDROOT
BRANCH   1   6
ATOM      3  C   UNL     1       3.392   4.498  17.354  0.00  0.00    +0.000 A 
ATOM      4  C   UNL     1       4.595   4.156  16.733  0.00  0.00    +0.000 A 
ATOM      5  C   UNL     1       5.582   5.124  16.512  0.00  0.00    +0.000 A 
ATOM      6  C   UNL     1       5.384   6.466  16.871  0.00  0.00    +0.000 A 
ATOM      7  C   UNL     1       4.164   6.798  17.476  0.00  0.00    +0.000 A 
ATOM      8  C   UNL     1       3.172   5.833  17.711  0.00  0.00    +0.000 A 
BRANCH   3   9
ATOM      9  C   UNL     1       2.390   3.425  17.579  0.00  0.00    +0.000 C 
ATOM     10  O   UNL     1       2.525   2.283  17.167  0.00  0.00    +0.000 OA
BRANCH   9  11
ATOM     11  O   UNL     1       1.292   3.922  18.200  0.00  0.00    +0.000 OA
BRANCH  11  13
ATOM     12  C   UNL     1       1.280   3.793  20.577  0.00  0.00    +0.000 C 
ATOM     13  C   UNL     1       0.808   3.130  19.292  0.00  0.00    +0.000 C 
ENDBRANCH  11  13
ENDBRANCH   9  11
ENDBRANCH   3   9
ENDBRANCH   1   6
BRANCH   1  14
ATOM     14  C   UNL     1       7.599   7.212  17.630  0.00  0.00    +0.000 C 
BRANCH  14  15
ATOM     15  C   UNL     1       8.166   8.568  18.018  0.00  0.00    +0.000 C 
ATOM     16  C   UNL     1       8.652   9.732  18.350  0.00  0.00    +0.000 C 
BRANCH  16  17
ATOM     17  C   UNL     1       9.218  11.087  18.738  0.00  0.00    +0.000 C 
BRANCH  17  18
ATOM     18  N   UNL     1       9.211  12.002  17.580  0.00  0.00    +0.000 NA
ATOM     19  C   UNL     1      10.539  12.614  17.363  0.00  0.00    +0.000 C 
ATOM     20  C   UNL     1      10.893  13.708  18.391  0.00  0.00    +0.000 C 
ATOM     21  O   UNL     1       9.908  14.749  18.398  0.00  0.00    +0.000 OA
ATOM     22  C   UNL     1       8.606  14.216  18.677  0.00  0.00    +0.000 C 
ATOM     23  C   UNL     1       8.229  13.113  17.674  0.00  0.00    +0.000 C 
ENDBRANCH  17  18
ENDBRANCH  16  17
ENDBRANCH  14  15
ENDBRANCH   1  14
TORSDOF 8
ENDMDL
MODEL 6
REMARK VINA RESULT:      -7.0      1.059      1.118
REMARK  Name = 
REMARK  9 active torsions:
REMARK  status: ('A' for Active; 'I' for Inactive)
REMARK    1  A    between atoms: C_1  and  C_2
REMARK    2  A    between atoms: C_2  and  O_3
REMARK    3  A    between atoms: O_3  and  C_4
REMARK    4  A    between atoms: C_4  and  C_6
REMARK    5  A    between atoms: C_9  and  N_10
REMARK    6  A    between atoms: N_10  and  C_11
REMARK    7  A    between atoms: C_11  and  C_12
REMARK    8  A    between atoms: C_13  and  C_14
REMARK    9  A    between atoms: C_14  and  N_15
REMARK                            x       y       z     vdW  Elec       q    Type
REMARK                         _______ _______ _______ _____ _____    ______ ____
ROOT
ATOM      1  N   UNL     1       7.489   6.564  18.165  0.00  0.00    +0.000 N 
ATOM      2  H   UNL     1       8.268   5.924  18.024  0.00  0.00    +0.000 HD
ENDROOT
BRANCH   1   6
ATOM      3  C   UNL     1       3.777   4.537  17.900  0.00  0.00    +0.000 A 
ATOM      4  C   UNL     1       3.940   5.825  17.387  0.00  0.00    +0.000 A 
ATOM      5  C   UNL     1       5.166   6.490  17.512  0.00  0.00    +0.000 A 
ATOM      6  C   UNL     1       6.251   5.906  18.183  0.00  0.00    +0.000 A 
ATOM      7  C   UNL     1       6.065   4.620  18.710  0.00  0.00    +0.000 A 
ATOM      8  C   UNL     1       4.843   3.941  18.581  0.00  0.00    +0.000 A 
BRANCH   3   9
ATOM      9  C   UNL     1       2.460   3.873  17.720  0.00  0.00    +0.000 C 
ATOM     10  O   UNL     1       2.289   2.904  16.998  0.00  0.00    +0.000 OA
BRANCH   9  11
ATOM     11  O   UNL     1       1.490   4.556  18.378  0.00  0.00    +0.000 OA
BRANCH  11  13
ATOM     12  C   UNL     1       1.049   3.064  20.180  0.00  0.00    +0.000 C 
ATOM     13  C   UNL     1       1.545   4.453  19.806  0.00  0.00    +0.000 C 
ENDBRANCH  11  13
ENDBRANCH   9  11
ENDBRANCH   3   9
ENDBRANCH   1   6
BRANCH   1  14
ATOM     14  C   UNL     1       7.631   7.758  17.345  0.00  0.00    +0.000 C 
BRANCH  14  15
ATOM     15  C   UNL     1       8.321   8.868  18.122  0.00  0.00    +0.000 C 
ATOM     16  C   UNL     1       8.913   9.820  18.789  0.00  0.00    +0.000 C 
BRANCH  16  17
ATOM     17  C   UNL     1       9.603  10.928  19.566  0.00  0.00    +0.000 C 
BRANCH  17  18
ATOM     18  N   UNL     1      10.913  11.244  18.965  0.00  0.00    +0.000 NA
ATOM     19  C   UNL     1      11.753  12.045  19.880  0.00  0.00    +0.000 C 
ATOM     20  C   UNL     1      11.308  13.516  20.000  0.00  0.00    +0.000 C 
ATOM     21  O   UNL     1      11.291  14.158  18.719  0.00  0.00    +0.000 OA
ATOM     22  C   UNL     1      10.430  13.458  17.811  0.00  0.00    +0.000 C 
ATOM     23  C   UNL     1      10.843  11.983  17.678  0.00  0.00    +0.000 C 
ENDBRANCH  17  18
ENDBRANCH  16  17
ENDBRANCH  14  15
ENDBRANCH   1  14
TORSDOF 8
ENDMDL
MODEL 7
REMARK VINA RESULT:      -6.9      1.258      1.361
REMARK  Name = 
REMARK  9 active torsions:
REMARK  status: ('A' for Active; 'I' for Inactive)
REMARK    1  A    between atoms: C_1  and  C_2
REMARK    2  A    between atoms: C_2  and  O_3
REMARK    3  A    between atoms: O_3  and  C_4
REMARK    4  A    between atoms: C_4  and  C_6
REMARK    5  A    between atoms: C_9  and  N_10
REMARK    6  A    between atoms: N_10  and  C_11
REMARK    7  A    between atoms: C_11  and  C_12
REMARK    8  A    between atoms: C_13  and  C_14
REMARK    9  A    between atoms: C_14  and  N_15
REMARK                            x       y       z     vdW  Elec       q    Type
REMARK                         _______ _______ _______ _____ _____    ______ ____
ROOT
ATOM      1  N   UNL     1       6.865   5.765  18.939  0.00  0.00    +0.000 N 
ATOM      2  H   UNL     1       7.489   5.169  19.478  0.00  0.00    +0.000 HD
ENDROOT
BRANCH   1   6
ATOM      3  C   UNL     1       2.960   4.223  18.358  0.00  0.00    +0.000 A 
ATOM      4  C   UNL     1       3.244   5.576  18.165  0.00  0.00    +0.000 A 
ATOM      5  C   UNL     1       4.534   6.072  18.392  0.00  0.00    +0.000 A 
ATOM      6  C   UNL     1       5.567   5.242  18.853  0.00  0.00    +0.000 A 
ATOM      7  C   UNL     1       5.262   3.890  19.062  0.00  0.00    +0.000 A 
ATOM      8  C   UNL     1       3.974   3.381  18.828  0.00  0.00    +0.000 A 
BRANCH   3   9
ATOM      9  C   UNL     1       1.579   3.751  18.083  0.00  0.00    +0.000 C 
ATOM     10  O   UNL     1       0.908   4.150  17.144  0.00  0.00    +0.000 OA
BRANCH   9  11
ATOM     11  O   UNL     1       1.157   2.917  19.065  0.00  0.00    +0.000 OA
BRANCH  11  13
ATOM     12  C   UNL     1       1.393   2.741  21.427  0.00  0.00    +0.000 C 
ATOM     13  C   UNL     1       0.802   3.565  20.293  0.00  0.00    +0.000 C 
ENDBRANCH  11  13
ENDBRANCH   9  11
ENDBRANCH   3   9
ENDBRANCH   1   6
BRANCH   1  14
ATOM     14  C   UNL     1       7.507   6.240  17.722  0.00  0.00    +0.000 C 
BRANCH  14  15
ATOM     15  C   UNL     1       7.834   7.720  17.825  0.00  0.00    +0.000 C 
ATOM     16  C   UNL     1       8.114   8.991  17.915  0.00  0.00    +0.000 C 
BRANCH  16  17
ATOM     17  C   UNL     1       8.442  10.471  18.017  0.00  0.00    +0.000 C 
BRANCH  17  18
ATOM     18  N   UNL     1       9.788  10.665  18.590  0.00  0.00    +0.000 NA
ATOM     19  C   UNL     1       9.720  11.192  19.970  0.00  0.00    +0.000 C 
ATOM     20  C   UNL     1       9.331  12.682  20.046  0.00  0.00    +0.000 C 
ATOM     21  O   UNL     1      10.240  13.494  19.293  0.00  0.00    +0.000 OA
ATOM     22  C   UNL     1      10.288  13.069  17.925  0.00  0.00    +0.000 C 
ATOM     23  C   UNL     1      10.665  11.582  17.816  0.00  0.00    +0.000 C 
ENDBRANCH  17  18
ENDBRANCH  16  17
ENDBRANCH  14  15
ENDBRANCH   1  14
TORSDOF 8
ENDMDL
MODEL 8
REMARK VINA RESULT:      -6.9      1.011      1.458
REMARK  Name = 
REMARK  9 active torsions:
REMARK  status: ('A' for Active; 'I' for Inactive)
REMARK    1  A    between atoms: C_1  and  C_2
REMARK    2  A    between atoms: C_2  and  O_3
REMARK    3  A    between atoms: O_3  and  C_4
REMARK    4  A    between atoms: C_4  and  C_6
REMARK    5  A    between atoms: C_9  and  N_10
REMARK    6  A    between atoms: N_10  and  C_11
REMARK    7  A    between atoms: C_11  and  C_12
REMARK    8  A    between atoms: C_13  and  C_14
REMARK    9  A    between atoms: C_14  and  N_15
REMARK                            x       y       z     vdW  Elec       q    Type
REMARK                         _______ _______ _______ _____ _____    ______ ____
ROOT
ATOM      1  N   UNL     1       7.104   6.469  18.333  0.00  0.00    +0.000 N 
ATOM      2  H   UNL     1       7.856   5.823  18.564  0.00  0.00    +0.000 HD
ENDROOT
BRANCH   1   6
ATOM      3  C   UNL     1       3.356   4.513  18.047  0.00  0.00    +0.000 A 
ATOM      4  C   UNL     1       4.464   3.881  18.613  0.00  0.00    +0.000 A 
ATOM      5  C   UNL     1       5.702   4.532  18.670  0.00  0.00    +0.000 A 
ATOM      6  C   UNL     1       5.879   5.816  18.132  0.00  0.00    +0.000 A 
ATOM      7  C   UNL     1       4.762   6.430  17.549  0.00  0.00    +0.000 A 
ATOM      8  C   UNL     1       3.514   5.789  17.496  0.00  0.00    +0.000 A 
BRANCH   3   9
ATOM      9  C   UNL     1       2.063   3.780  18.032  0.00  0.00    +0.000 C 
ATOM     10  O   UNL     1       1.081   4.164  17.417  0.00  0.00    +0.000 OA
BRANCH   9  11
ATOM     11  O   UNL     1       2.112   2.712  18.866  0.00  0.00    +0.000 OA
BRANCH  11  13
ATOM     12  C   UNL     1       1.405   3.272  21.069  0.00  0.00    +0.000 C 
ATOM     13  C   UNL     1       1.002   2.600  19.765  0.00  0.00    +0.000 C 
ENDBRANCH  11  13
ENDBRANCH   9  11
ENDBRANCH   3   9
ENDBRANCH   1   6
BRANCH   1  14
ATOM     14  C   UNL     1       7.537   7.455  17.353  0.00  0.00    +0.000 C 
BRANCH  14  15
ATOM     15  C   UNL     1       8.221   8.629  18.034  0.00  0.00    +0.000 C 
ATOM     16  C   UNL     1       8.810   9.637  18.616  0.00  0.00    +0.000 C 
BRANCH  16  17
ATOM     17  C   UNL     1       9.493  10.811  19.296  0.00  0.00    +0.000 C 
BRANCH  17  18
ATOM     18  N   UNL     1       9.631  11.943  18.360  0.00  0.00    +0.000 NA
ATOM     19  C   UNL     1      10.981  11.991  17.759  0.00  0.00    +0.000 C 
ATOM     20  C   UNL     1      12.073  12.489  18.727  0.00  0.00    +0.000 C 
ATOM     21  O   UNL     1      11.756  13.790  19.239  0.00  0.00    +0.000 OA
ATOM     22  C   UNL     1      10.483  13.781  19.898  0.00  0.00    +0.000 C 
ATOM     23  C   UNL     1       9.373  13.278  18.960  0.00  0.00    +0.000 C 
ENDBRANCH  17  18
ENDBRANCH  16  17
ENDBRANCH  14  15
ENDBRANCH   1  14
TORSDOF 8
ENDMDL
MODEL 9
REMARK VINA RESULT:      -6.9      1.088      1.376
REMARK  Name = 
REMARK  9 active torsions:
REMARK  status: ('A' for Active; 'I' for Inactive)
REMARK    1  A    between atoms: C_1  and  C_2
REMARK    2  A    between atoms: C_2  and  O_3
REMARK    3  A    between atoms: O_3  and  C_4
REMARK    4  A    between atoms: C_4  and  C_6
REMARK    5  A    between atoms: C_9  and  N_10
REMARK    6  A    between atoms: N_10  and  C_11
REMARK    7  A    between atoms: C_11  and  C_12
REMARK    8  A    between atoms: C_13  and  C_14
REMARK    9  A    between atoms: C_14  and  N_15
REMARK                            x       y       z     vdW  Elec       q    Type
REMARK                         _______ _______ _______ _____ _____    ______ ____
ROOT
ATOM      1  N   UNL     1       7.181   6.585  18.203  0.00  0.00    +0.000 N 
ATOM      2  H   UNL     1       7.938   5.917  18.079  0.00  0.00    +0.000 HD
ENDROOT
BRANCH   1   6
ATOM      3  C   UNL     1       3.441   4.591  18.248  0.00  0.00    +0.000 A 
ATOM      4  C   UNL     1       3.651   5.725  17.461  0.00  0.00    +0.000 A 
ATOM      5  C   UNL     1       4.884   6.388  17.484  0.00  0.00    +0.000 A 
ATOM      6  C   UNL     1       5.929   5.962  18.318  0.00  0.00    +0.000 A 
ATOM      7  C   UNL     1       5.697   4.834  19.116  0.00  0.00    +0.000 A 
ATOM      8  C   UNL     1       4.467   4.156  19.094  0.00  0.00    +0.000 A 
BRANCH   3   9
ATOM      9  C   UNL     1       2.119   3.918  18.168  0.00  0.00    +0.000 C 
ATOM     10  O   UNL     1       1.247   4.243  17.377  0.00  0.00    +0.000 OA
BRANCH   9  11
ATOM     11  O   UNL     1       1.997   2.990  19.150  0.00  0.00    +0.000 OA
BRANCH  11  13
ATOM     12  C   UNL     1       1.492   2.757  21.464  0.00  0.00    +0.000 C 
ATOM     13  C   UNL     1       0.988   3.277  20.126  0.00  0.00    +0.000 C 
ENDBRANCH  11  13
ENDBRANCH   9  11
ENDBRANCH   3   9
ENDBRANCH   1   6
BRANCH   1  14
ATOM     14  C   UNL     1       7.316   7.713  17.294  0.00  0.00    +0.000 C 
BRANCH  14  15
ATOM     15  C   UNL     1       8.151   8.817  17.923  0.00  0.00    +0.000 C 
ATOM     16  C   UNL     1       8.867   9.764  18.463  0.00  0.00    +0.000 C 
BRANCH  16  17
ATOM     17  C   UNL     1       9.701  10.867  19.092  0.00  0.00    +0.000 C 
BRANCH  17  18
ATOM     18  N   UNL     1       9.231  12.192  18.643  0.00  0.00    +0.000 NA
ATOM     19  C   UNL     1      10.148  12.785  17.647  0.00  0.00    +0.000 C 
ATOM     20  C   UNL     1      11.464  13.313  18.252  0.00  0.00    +0.000 C 
ATOM     21  O   UNL     1      11.210  14.286  19.273  0.00  0.00    +0.000 OA
ATOM     22  C   UNL     1      10.381  13.736  20.306  0.00  0.00    +0.000 C 
ATOM     23  C   UNL     1       9.063  13.190  19.730  0.00  0.00    +0.000 C 
ENDBRANCH  17  18
ENDBRANCH  16  17
ENDBRANCH  14  15
ENDBRANCH   1  14
TORSDOF 8
ENDMDL
