MODEL 1
REMARK VINA RESULT:      -7.3      0.000      0.000
REMARK  Name = 
REMARK  9 active torsions:
REMARK  status: ('A' for Active; 'I' for Inactive)
REMARK    1  A    between atoms: C_1  and  C_2
REMARK    2  A    between atoms: C_2  and  C_3
REMARK    3  A    between atoms: C_2  and  C_4
REMARK    4  A    between atoms: C_2  and  C_5
REMARK    5  A    between atoms: C_10  and  O_11
REMARK    6  A    between atoms: O_11  and  C_12
REMARK    7  A    between atoms: C_12  and  C_13
REMARK    8  A    between atoms: C_16  and  C_17
REMARK    9  A    between atoms: C_17  and  O_19
REMARK                            x       y       z     vdW  Elec       q    Type
REMARK                         _______ _______ _______ _____ _____    ______ ____
ROOT
ATOM      1  O   UNL     1       3.998   6.903  18.099  0.00  0.00    +0.000 OA
ENDROOT
BRANCH   1   7
ATOM      2  C   UNL     1       3.986   4.518  17.221  0.00  0.00    +0.000 A 
ATOM      3  C   UNL     1       4.623   3.736  16.214  0.00  0.00    +0.000 A 
ATOM      4  C   UNL     1       5.542   4.244  15.288  0.00  0.00    +0.000 A 
ATOM      5  C   UNL     1       5.862   5.589  15.311  0.00  0.00    +0.000 A 
ATOM      6  C   UNL     1       5.271   6.398  16.268  0.00  0.00    +0.000 A 
ATOM      7  C   UNL     1       4.346   5.896  17.218  0.00  0.00    +0.000 A 
BRANCH   2   9
ATOM      8  C   UNL     1       1.576   4.164  18.163  0.00  0.00    +0.000 C 
ATOM      9  C   UNL     1       3.083   3.751  18.248  0.00  0.00    +0.000 C 
ATOM     10  C   UNL     1       3.401   4.015  19.743  0.00  0.00    +0.000 C 
ATOM     11  C   UNL     1       3.104   2.239  17.945  0.00  0.00    +0.000 C 
ENDBRANCH   2   9
ENDBRANCH   1   7
BRANCH   1  12
ATOM     12  C   UNL     1       2.834   7.632  17.759  0.00  0.00    +0.000 C 
BRANCH  12  13
ATOM     13  C   UNL     1       2.012   8.204  18.894  0.00  0.00    +0.000 A 
ATOM     14  C   UNL     1       1.992   7.458  20.089  0.00  0.00    +0.000 A 
ATOM     15  C   UNL     1       1.293   7.905  21.207  0.00  0.00    +0.000 A 
ATOM     16  C   UNL     1       0.598   9.113  21.155  0.00  0.00    +0.000 A 
ATOM     17  C   UNL     1       0.645   9.887  19.984  0.00  0.00    +0.000 A 
ATOM     18  C   UNL     1       1.346   9.431  18.856  0.00  0.00    +0.000 A 
BRANCH  16  19
ATOM     19  C   UNL     1      -0.123   9.533  22.384  0.00  0.00    +0.000 C 
ATOM     20  O   UNL     1       0.067  10.611  22.926  0.00  0.00    +0.000 OA
BRANCH  19  21
ATOM     21  O   UNL     1      -0.961   8.602  22.879  0.00  0.00    +0.000 OA
ATOM     22  H   UNL     1      -1.426   8.870  23.691  0.00  0.00    +0.000 HD
ENDBRANCH  19  21
ENDBRANCH  16  19
ENDBRANCH  12  13
ENDBRANCH   1  12
TORSDOF 6
ENDMDL
MODEL 2
REMARK VINA RESULT:      -7.1      0.644      1.098
REMARK  Name = 
REMARK  9 active torsions:
REMARK  status: ('A' for Active; 'I' for Inactive)
REMARK    1  A    between atoms: C_1  and  C_2
REMARK    2  A    between atoms: C_2  and  C_3
REMARK    3  A    between atoms: C_2  and  C_4
REMARK    4  A    between atoms: C_2  and  C_5
REMARK    5  A    between atoms: C_10  and  O_11
REMARK    6  A    between atoms: O_11  and  C_12
REMARK    7  A    between atoms: C_12  and  C_13
REMARK    8  A    between atoms: C_16  and  C_17
REMARK    9  A    between atoms: C_17  and  O_19
REMARK                            x       y       z     vdW  Elec       q    Type
REMARK                         _______ _______ _______ _____ _____    ______ ____
ROOT
ATOM      1  O   UNL     1       3.591   6.781  18.488  0.00  0.00    +0.000 OA
ENDROOT
BRANCH   1   7
ATOM      2  C   UNL     1       3.770   4.484  17.417  0.00  0.00    +0.000 A 
ATOM      3  C   UNL     1       4.470   3.840  16.354  0.00  0.00    +0.000 A 
ATOM      4  C   UNL     1       5.350   4.494  15.483  0.00  0.00    +0.000 A 
ATOM      5  C   UNL     1       5.562   5.853  15.621  0.00  0.00    +0.000 A 
ATOM      6  C   UNL     1       4.907   6.531  16.635  0.00  0.00    +0.000 A 
ATOM      7  C   UNL     1       4.021   5.881  17.531  0.00  0.00    +0.000 A 
BRANCH   2   9
ATOM      8  C   UNL     1       2.840   2.086  17.867  0.00  0.00    +0.000 C 
ATOM      9  C   UNL     1       2.927   3.566  18.367  0.00  0.00    +0.000 C 
ATOM     10  C   UNL     1       1.429   3.944  18.503  0.00  0.00    +0.000 C 
ATOM     11  C   UNL     1       3.595   3.482  19.754  0.00  0.00    +0.000 C 
ENDBRANCH   2   9
ENDBRANCH   1   7
BRANCH   1  12
ATOM     12  C   UNL     1       2.583   7.681  18.067  0.00  0.00    +0.000 C 
BRANCH  12  13
ATOM     13  C   UNL     1       1.794   8.398  19.142  0.00  0.00    +0.000 A 
ATOM     14  C   UNL     1       1.744   7.772  20.404  0.00  0.00    +0.000 A 
ATOM     15  C   UNL     1       1.073   8.358  21.473  0.00  0.00    +0.000 A 
ATOM     16  C   UNL     1       0.437   9.587  21.305  0.00  0.00    +0.000 A 
ATOM     17  C   UNL     1       0.515  10.241  20.066  0.00  0.00    +0.000 A 
ATOM     18  C   UNL     1       1.188   9.646  18.987  0.00  0.00    +0.000 A 
BRANCH  16  19
ATOM     19  C   UNL     1      -0.258  10.157  22.488  0.00  0.00    +0.000 C 
ATOM     20  O   UNL     1      -1.201  10.927  22.393  0.00  0.00    +0.000 OA
BRANCH  19  21
ATOM     21  O   UNL     1       0.278   9.797  23.671  0.00  0.00    +0.000 OA
ATOM     22  H   UNL     1      -0.284   9.206  24.203  0.00  0.00    +0.000 HD
ENDBRANCH  19  21
ENDBRANCH  16  19
ENDBRANCH  12  13
ENDBRANCH   1  12
TORSDOF 6
ENDMDL
MODEL 3
REMARK VINA RESULT:      -7.0      0.532      1.522
REMARK  Name = 
REMARK  9 active torsions:
REMARK  status: ('A' for Active; 'I' for Inactive)
REMARK    1  A    between atoms: C_1  and  C_2
REMARK    2  A    between atoms: C_2  and  C_3
REMARK    3  A    between atoms: C_2  and  C_4
REMARK    4  A    between atoms: C_2  and  C_5
REMARK    5  A    between atoms: C_10  and  O_11
REMARK    6  A    between atoms: O_11  and  C_12
REMARK    7  A    between atoms: C_12  and  C_13
REMARK    8  A    between atoms: C_16  and  C_17
REMARK    9  A    between atoms: C_17  and  O_19
REMARK                            x       y       z     vdW  Elec       q    Type
REMARK                         _______ _______ _______ _____ _____    ______ ____
ROOT
ATOM      1  O   UNL     1       3.863   6.827  18.218  0.00  0.00    +0.000 OA
ENDROOT
BRANCH   1   7
ATOM      2  C   UNL     1       3.900   4.472  17.266  0.00  0.00    +0.000 A 
ATOM      3  C   UNL     1       4.556   3.733  16.239  0.00  0.00    +0.000 A 
ATOM      4  C   UNL     1       5.471   4.287  15.336  0.00  0.00    +0.000 A 
ATOM      5  C   UNL     1       5.766   5.636  15.403  0.00  0.00    +0.000 A 
ATOM      6  C   UNL     1       5.156   6.404  16.382  0.00  0.00    +0.000 A 
ATOM      7  C   UNL     1       4.234   5.856  17.309  0.00  0.00    +0.000 A 
BRANCH   2   9
ATOM      8  C   UNL     1       3.005   2.120  17.966  0.00  0.00    +0.000 C 
ATOM      9  C   UNL     1       3.004   3.656  18.263  0.00  0.00    +0.000 C 
ATOM     10  C   UNL     1       1.490   3.987  18.222  0.00  0.00    +0.000 C 
ATOM     11  C   UNL     1       3.553   3.789  19.698  0.00  0.00    +0.000 C 
ENDBRANCH   2   9
ENDBRANCH   1   7
BRANCH   1  12
ATOM     12  C   UNL     1       2.609   7.438  17.977  0.00  0.00    +0.000 C 
BRANCH  12  13
ATOM     13  C   UNL     1       1.937   8.137  19.140  0.00  0.00    +0.000 A 
ATOM     14  C   UNL     1       1.321   9.372  18.856  0.00  0.00    +0.000 A 
ATOM     15  C   UNL     1       0.648  10.086  19.844  0.00  0.00    +0.000 A 
ATOM     16  C   UNL     1       0.574   9.578  21.140  0.00  0.00    +0.000 A 
ATOM     17  C   UNL     1       1.147   8.329  21.426  0.00  0.00    +0.000 A 
ATOM     18  C   UNL     1       1.830   7.613  20.430  0.00  0.00    +0.000 A 
BRANCH  16  19
ATOM     19  C   UNL     1      -0.162  10.389  22.144  0.00  0.00    +0.000 C 
ATOM     20  O   UNL     1      -0.872  11.335  21.838  0.00  0.00    +0.000 OA
BRANCH  19  21
ATOM     21  O   UNL     1       0.064  10.026  23.421  0.00  0.00    +0.000 OA
ATOM     22  H   UNL     1      -0.278  10.652  24.084  0.00  0.00    +0.000 HD
ENDBRANCH  19  21
ENDBRANCH  16  19
ENDBRANCH  12  13
ENDBRANCH   1  12
TORSDOF 6
ENDMDL
MODEL 4
REMARK VINA RESULT:      -7.0      1.029      2.733
REMARK  Name = 
REMARK  9 active torsions:
REMARK  status: ('A' for Active; 'I' for Inactive)
REMARK    1  A    between atoms: C_1  and  C_2
REMARK    2  A    between atoms: C_2  and  C_3
REMARK    3  A    between atoms: C_2  and  C_4
REMARK    4  A    between atoms: C_2  and  C_5
REMARK    5  A    between atoms: C_10  and  O_11
REMARK    6  A    between atoms: O_11  and  C_12
REMARK    7  A    between atoms: C_12  and  C_13
REMARK    8  A    between atoms: C_16  and  C_17
REMARK    9  A    between atoms: C_17  and  O_19
REMARK                            x       y       z     vdW  Elec       q    Type
REMARK                         _______ _______ _______ _____ _____    ______ ____
ROOT
ATOM      1  O   UNL     1       3.409   6.550  18.857  0.00  0.00    +0.000 OA
ENDROOT
BRANCH   1   7
ATOM      2  C   UNL     1       4.116   4.551  17.456  0.00  0.00    +0.000 A 
ATOM      3  C   UNL     1       3.610   3.279  17.058  0.00  0.00    +0.000 A 
ATOM      4  C   UNL     1       2.385   2.753  17.486  0.00  0.00    +0.000 A 
ATOM      5  C   UNL     1       1.599   3.476  18.364  0.00  0.00    +0.000 A 
ATOM      6  C   UNL     1       2.043   4.719  18.785  0.00  0.00    +0.000 A 
ATOM      7  C   UNL     1       3.275   5.270  18.354  0.00  0.00    +0.000 A 
BRANCH   2   9
ATOM      8  C   UNL     1       6.016   3.987  15.755  0.00  0.00    +0.000 C 
ATOM      9  C   UNL     1       5.445   5.028  16.775  0.00  0.00    +0.000 C 
ATOM     10  C   UNL     1       6.649   5.228  17.732  0.00  0.00    +0.000 C 
ATOM     11  C   UNL     1       5.189   6.304  15.948  0.00  0.00    +0.000 C 
ENDBRANCH   2   9
ENDBRANCH   1   7
BRANCH   1  12
ATOM     12  C   UNL     1       2.513   7.508  18.327  0.00  0.00    +0.000 C 
BRANCH  12  13
ATOM     13  C   UNL     1       1.726   8.348  19.312  0.00  0.00    +0.000 A 
ATOM     14  C   UNL     1       1.659   7.864  20.633  0.00  0.00    +0.000 A 
ATOM     15  C   UNL     1       0.989   8.571  21.627  0.00  0.00    +0.000 A 
ATOM     16  C   UNL     1       0.370   9.782  21.321  0.00  0.00    +0.000 A 
ATOM     17  C   UNL     1       0.465  10.296  20.018  0.00  0.00    +0.000 A 
ATOM     18  C   UNL     1       1.137   9.579  19.016  0.00  0.00    +0.000 A 
BRANCH  16  19
ATOM     19  C   UNL     1      -0.325  10.486  22.429  0.00  0.00    +0.000 C 
ATOM     20  O   UNL     1      -0.329  11.703  22.540  0.00  0.00    +0.000 OA
BRANCH  19  21
ATOM     21  O   UNL     1      -0.902   9.667  23.330  0.00  0.00    +0.000 OA
ATOM     22  H   UNL     1      -1.870   9.600  23.251  0.00  0.00    +0.000 HD
ENDBRANCH  19  21
ENDBRANCH  16  19
ENDBRANCH  12  13
ENDBRANCH   1  12
TORSDOF 6
ENDMDL
MODEL 5
REMARK VINA RESULT:      -7.0      1.581      1.681
REMARK  Name = 
REMARK  9 active torsions:
REMARK  status: ('A' for Active; 'I' for Inactive)
REMARK    1  A    between atoms: C_1  and  C_2
REMARK    2  A    between atoms: C_2  and  C_3
REMARK    3  A    between atoms: C_2  and  C_4
REMARK    4  A    between atoms: C_2  and  C_5
REMARK    5  A    between atoms: C_10  and  O_11
REMARK    6  A    between atoms: O_11  and  C_12
REMARK    7  A    between atoms: C_12  and  C_13
REMARK    8  A    between atoms: C_16  and  C_17
REMARK    9  A    between atoms: C_17  and  O_19
REMARK                            x       y       z     vdW  Elec       q    Type
REMARK                         _______ _______ _______ _____ _____    ______ ____
ROOT
ATOM      1  O   UNL     1       2.142   6.663  17.909  0.00  0.00    +0.000 OA
ENDROOT
BRANCH   1   7
ATOM      2  C   UNL     1       3.391   4.636  18.795  0.00  0.00    +0.000 A 
ATOM      3  C   UNL     1       4.732   4.173  18.940  0.00  0.00    +0.000 A 
ATOM      4  C   UNL     1       5.857   4.873  18.489  0.00  0.00    +0.000 A 
ATOM      5  C   UNL     1       5.695   6.084  17.842  0.00  0.00    +0.000 A 
ATOM      6  C   UNL     1       4.413   6.582  17.672  0.00  0.00    +0.000 A 
ATOM      7  C   UNL     1       3.265   5.890  18.130  0.00  0.00    +0.000 A 
BRANCH   2   9
ATOM      8  C   UNL     1       1.201   3.255  18.456  0.00  0.00    +0.000 C 
ATOM      9  C   UNL     1       2.269   3.777  19.474  0.00  0.00    +0.000 C 
ATOM     10  C   UNL     1       1.386   4.529  20.504  0.00  0.00    +0.000 C 
ATOM     11  C   UNL     1       2.879   2.509  20.102  0.00  0.00    +0.000 C 
ENDBRANCH   2   9
ENDBRANCH   1   7
BRANCH   1  12
ATOM     12  C   UNL     1       2.307   8.052  18.126  0.00  0.00    +0.000 C 
BRANCH  12  13
ATOM     13  C   UNL     1       1.539   8.676  19.272  0.00  0.00    +0.000 A 
ATOM     14  C   UNL     1       1.677   8.054  20.529  0.00  0.00    +0.000 A 
ATOM     15  C   UNL     1       1.040   8.562  21.658  0.00  0.00    +0.000 A 
ATOM     16  C   UNL     1       0.251   9.707  21.555  0.00  0.00    +0.000 A 
ATOM     17  C   UNL     1       0.141  10.360  20.318  0.00  0.00    +0.000 A 
ATOM     18  C   UNL     1       0.780   9.844  19.179  0.00  0.00    +0.000 A 
BRANCH  16  19
ATOM     19  C   UNL     1      -0.396  10.197  22.799  0.00  0.00    +0.000 C 
ATOM     20  O   UNL     1      -1.252  11.068  22.800  0.00  0.00    +0.000 OA
BRANCH  19  21
ATOM     21  O   UNL     1       0.082   9.639  23.928  0.00  0.00    +0.000 OA
ATOM     22  H   UNL     1      -0.296   8.766  24.137  0.00  0.00    +0.000 HD
ENDBRANCH  19  21
ENDBRANCH  16  19
ENDBRANCH  12  13
ENDBRANCH   1  12
TORSDOF 6
ENDMDL
MODEL 6
REMARK VINA RESULT:      -6.9      3.147      7.516
REMARK  Name = 
REMARK  9 active torsions:
REMARK  status: ('A' for Active; 'I' for Inactive)
REMARK    1  A    between atoms: C_1  and  C_2
REMARK    2  A    between atoms: C_2  and  C_3
REMARK    3  A    between atoms: C_2  and  C_4
REMARK    4  A    between atoms: C_2  and  C_5
REMARK    5  A    between atoms: C_10  and  O_11
REMARK    6  A    between atoms: O_11  and  C_12
REMARK    7  A    between atoms: C_12  and  C_13
REMARK    8  A    between atoms: C_16  and  C_17
REMARK    9  A    between atoms: C_17  and  O_19
REMARK                            x       y       z     vdW  Elec       q    Type
REMARK                         _______ _______ _______ _____ _____    ______ ____
ROOT
ATOM      1  O   UNL     1       3.233   4.488  17.540  0.00  0.00    +0.000 OA
ENDROOT
BRANCH   1   7
ATOM      2  C   UNL     1       2.151   4.636  19.834  0.00  0.00    +0.000 A 
ATOM      3  C   UNL     1       1.643   5.625  20.726  0.00  0.00    +0.000 A 
ATOM      4  C   UNL     1       1.688   7.003  20.479  0.00  0.00    +0.000 A 
ATOM      5  C   UNL     1       2.271   7.470  19.316  0.00  0.00    +0.000 A 
ATOM      6  C   UNL     1       2.784   6.552  18.413  0.00  0.00    +0.000 A 
ATOM      7  C   UNL     1       2.738   5.155  18.644  0.00  0.00    +0.000 A 
BRANCH   2   9
ATOM      8  C   UNL     1       1.291   2.972  21.654  0.00  0.00    +0.000 C 
ATOM      9  C   UNL     1       1.898   3.138  20.221  0.00  0.00    +0.000 C 
ATOM     10  C   UNL     1       3.166   2.249  20.308  0.00  0.00    +0.000 C 
ATOM     11  C   UNL     1       0.859   2.513  19.269  0.00  0.00    +0.000 C 
ENDBRANCH   2   9
ENDBRANCH   1   7
BRANCH   1  12
ATOM     12  C   UNL     1       4.577   4.056  17.643  0.00  0.00    +0.000 C 
BRANCH  12  13
ATOM     13  C   UNL     1       5.505   4.380  16.492  0.00  0.00    +0.000 A 
ATOM     14  C   UNL     1       5.125   3.894  15.225  0.00  0.00    +0.000 A 
ATOM     15  C   UNL     1       5.888   4.159  14.092  0.00  0.00    +0.000 A 
ATOM     16  C   UNL     1       7.051   4.920  14.199  0.00  0.00    +0.000 A 
ATOM     17  C   UNL     1       7.419   5.446  15.448  0.00  0.00    +0.000 A 
ATOM     18  C   UNL     1       6.650   5.174  16.591  0.00  0.00    +0.000 A 
BRANCH  16  19
ATOM     19  C   UNL     1       7.816   5.168  12.950  0.00  0.00    +0.000 C 
ATOM     20  O   UNL     1       7.545   4.625  11.891  0.00  0.00    +0.000 OA
BRANCH  19  21
ATOM     21  O   UNL     1       8.867   5.998  13.101  0.00  0.00    +0.000 OA
ATOM     22  H   UNL     1       8.626   6.936  13.202  0.00  0.00    +0.000 HD
ENDBRANCH  19  21
ENDBRANCH  16  19
ENDBRANCH  12  13
ENDBRANCH   1  12
TORSDOF 6
ENDMDL
MODEL 7
REMARK VINA RESULT:      -6.9      3.185      6.022
REMARK  Name = 
REMARK  9 active torsions:
REMARK  status: ('A' for Active; 'I' for Inactive)
REMARK    1  A    between atoms: C_1  and  C_2
REMARK    2  A    between atoms: C_2  and  C_3
REMARK    3  A    between atoms: C_2  and  C_4
REMARK    4  A    between atoms: C_2  and  C_5
REMARK    5  A    between atoms: C_10  and  O_11
REMARK    6  A    between atoms: O_11  and  C_12
REMARK    7  A    between atoms: C_12  and  C_13
REMARK    8  A    between atoms: C_16  and  C_17
REMARK    9  A    between atoms: C_17  and  O_19
REMARK                            x       y       z     vdW  Elec       q    Type
REMARK                         _______ _______ _______ _____ _____    ______ ____
ROOT
ATOM      1  O   UNL     1       2.755   4.330  17.265  0.00  0.00    +0.000 OA
ENDROOT
BRANCH   1   7
ATOM      2  C   UNL     1       2.319   4.427  19.766  0.00  0.00    +0.000 A 
ATOM      3  C   UNL     1       1.981   5.385  20.766  0.00  0.00    +0.000 A 
ATOM      4  C   UNL     1       1.832   6.755  20.522  0.00  0.00    +0.000 A 
ATOM      5  C   UNL     1       2.037   7.249  19.247  0.00  0.00    +0.000 A 
ATOM      6  C   UNL     1       2.370   6.363  18.236  0.00  0.00    +0.000 A 
ATOM      7  C   UNL     1       2.515   4.971  18.464  0.00  0.00    +0.000 A 
BRANCH   2   9
ATOM      8  C   UNL     1       3.756   2.317  20.318  0.00  0.00    +0.000 C 
ATOM      9  C   UNL     1       2.317   2.920  20.200  0.00  0.00    +0.000 C 
ATOM     10  C   UNL     1       1.643   1.941  19.204  0.00  0.00    +0.000 C 
ATOM     11  C   UNL     1       1.704   2.775  21.607  0.00  0.00    +0.000 C 
ENDBRANCH   2   9
ENDBRANCH   1   7
BRANCH   1  12
ATOM     12  C   UNL     1       4.090   3.911  17.055  0.00  0.00    +0.000 C 
BRANCH  12  13
ATOM     13  C   UNL     1       5.191   4.901  17.374  0.00  0.00    +0.000 A 
ATOM     14  C   UNL     1       5.248   6.055  16.567  0.00  0.00    +0.000 A 
ATOM     15  C   UNL     1       6.200   7.045  16.792  0.00  0.00    +0.000 A 
ATOM     16  C   UNL     1       7.117   6.905  17.832  0.00  0.00    +0.000 A 
ATOM     17  C   UNL     1       7.043   5.781  18.671  0.00  0.00    +0.000 A 
ATOM     18  C   UNL     1       6.086   4.780  18.439  0.00  0.00    +0.000 A 
BRANCH  16  19
ATOM     19  C   UNL     1       8.103   8.000  18.019  0.00  0.00    +0.000 C 
ATOM     20  O   UNL     1       8.230   8.917  17.223  0.00  0.00    +0.000 OA
BRANCH  19  21
ATOM     21  O   UNL     1       8.881   7.864  19.110  0.00  0.00    +0.000 OA
ATOM     22  H   UNL     1       9.836   7.946  18.936  0.00  0.00    +0.000 HD
ENDBRANCH  19  21
ENDBRANCH  16  19
ENDBRANCH  12  13
ENDBRANCH   1  12
TORSDOF 6
ENDMDL
MODEL 8
REMARK VINA RESULT:      -6.9      0.791      1.089
REMARK  Name = 
REMARK  9 active torsions:
REMARK  status: ('A' for Active; 'I' for Inactive)
REMARK    1  A    between atoms: C_1  and  C_2
REMARK    2  A    between atoms: C_2  and  C_3
REMARK    3  A    between atoms: C_2  and  C_4
REMARK    4  A    between atoms: C_2  and  C_5
REMARK    5  A    between atoms: C_10  and  O_11
REMARK    6  A    between atoms: O_11  and  C_12
REMARK    7  A    between atoms: C_12  and  C_13
REMARK    8  A    between atoms: C_16  and  C_17
REMARK    9  A    between atoms: C_17  and  O_19
REMARK                            x       y       z     vdW  Elec       q    Type
REMARK                         _______ _______ _______ _____ _____    ______ ____
ROOT
ATOM      1  O   UNL     1       3.189   6.696  18.712  0.00  0.00    +0.000 OA
ENDROOT
BRANCH   1   7
ATOM      2  C   UNL     1       3.689   4.488  17.560  0.00  0.00    +0.000 A 
ATOM      3  C   UNL     1       4.522   3.976  16.522  0.00  0.00    +0.000 A 
ATOM      4  C   UNL     1       5.378   4.763  15.742  0.00  0.00    +0.000 A 
ATOM      5  C   UNL     1       5.430   6.128  15.951  0.00  0.00    +0.000 A 
ATOM      6  C   UNL     1       4.640   6.681  16.946  0.00  0.00    +0.000 A 
ATOM      7  C   UNL     1       3.775   5.897  17.750  0.00  0.00    +0.000 A 
BRANCH   2   9
ATOM      8  C   UNL     1       1.347   3.683  18.390  0.00  0.00    +0.000 C 
ATOM      9  C   UNL     1       2.892   3.438  18.410  0.00  0.00    +0.000 C 
ATOM     10  C   UNL     1       3.196   3.445  19.931  0.00  0.00    +0.000 C 
ATOM     11  C   UNL     1       3.084   2.026  17.823  0.00  0.00    +0.000 C 
ENDBRANCH   2   9
ENDBRANCH   1   7
BRANCH   1  12
ATOM     12  C   UNL     1       2.384   7.750  18.218  0.00  0.00    +0.000 C 
BRANCH  12  13
ATOM     13  C   UNL     1       1.623   8.581  19.230  0.00  0.00    +0.000 A 
ATOM     14  C   UNL     1       1.571   8.073  20.543  0.00  0.00    +0.000 A 
ATOM     15  C   UNL     1       0.924   8.770  21.561  0.00  0.00    +0.000 A 
ATOM     16  C   UNL     1       0.316   9.994  21.287  0.00  0.00    +0.000 A 
ATOM     17  C   UNL     1       0.398  10.531  19.992  0.00  0.00    +0.000 A 
ATOM     18  C   UNL     1       1.046   9.825  18.966  0.00  0.00    +0.000 A 
BRANCH  16  19
ATOM     19  C   UNL     1      -0.353  10.686  22.418  0.00  0.00    +0.000 C 
ATOM     20  O   UNL     1      -0.977  10.090  23.282  0.00  0.00    +0.000 OA
BRANCH  19  21
ATOM     21  O   UNL     1      -0.260  12.030  22.377  0.00  0.00    +0.000 OA
ATOM     22  H   UNL     1       0.589  12.383  22.699  0.00  0.00    +0.000 HD
ENDBRANCH  19  21
ENDBRANCH  16  19
ENDBRANCH  12  13
ENDBRANCH   1  12
TORSDOF 6
ENDMDL
MODEL 9
REMARK VINA RESULT:      -6.9      1.323      1.696
REMARK  Name = 
REMARK  9 active torsions:
REMARK  status: ('A' for Active; 'I' for Inactive)
REMARK    1  A    between atoms: C_1  and  C_2
REMARK    2  A    between atoms: C_2  and  C_3
REMARK    3  A    between atoms: C_2  and  C_4
REMARK    4  A    between atoms: C_2  and  C_5
REMARK    5  A    between atoms: C_10  and  O_11
REMARK    6  A    between atoms: O_11  and  C_12
REMARK    7  A    between atoms: C_12  and  C_13
REMARK    8  A    between atoms: C_16  and  C_17
REMARK    9  A    between atoms: C_17  and  O_19
REMARK                            x       y       z     vdW  Elec       q    Type
REMARK                         _______ _______ _______ _____ _____    ______ ____
ROOT
ATOM      1  O   UNL     1       2.362   6.652  17.884  0.00  0.00    +0.000 OA
ENDROOT
BRANCH   1   7
ATOM      2  C   UNL     1       3.925   4.754  18.525  0.00  0.00    +0.000 A 
ATOM      3  C   UNL     1       5.312   4.430  18.461  0.00  0.00    +0.000 A 
ATOM      4  C   UNL     1       6.283   5.248  17.871  0.00  0.00    +0.000 A 
ATOM      5  C   UNL     1       5.907   6.444  17.287  0.00  0.00    +0.000 A 
ATOM      6  C   UNL     1       4.571   6.808  17.318  0.00  0.00    +0.000 A 
ATOM      7  C   UNL     1       3.577   5.996  17.920  0.00  0.00    +0.000 A 
BRANCH   2   9
ATOM      8  C   UNL     1       3.771   2.513  19.856  0.00  0.00    +0.000 C 
ATOM      9  C   UNL     1       3.007   3.776  19.336  0.00  0.00    +0.000 C 
ATOM     10  C   UNL     1       1.843   3.137  18.536  0.00  0.00    +0.000 C 
ATOM     11  C   UNL     1       2.477   4.476  20.604  0.00  0.00    +0.000 C 
ENDBRANCH   2   9
ENDBRANCH   1   7
BRANCH   1  12
ATOM     12  C   UNL     1       2.427   8.060  18.010  0.00  0.00    +0.000 C 
BRANCH  12  13
ATOM     13  C   UNL     1       1.654   8.696  19.146  0.00  0.00    +0.000 A 
ATOM     14  C   UNL     1       1.666   8.006  20.374  0.00  0.00    +0.000 A 
ATOM     15  C   UNL     1       1.014   8.516  21.494  0.00  0.00    +0.000 A 
ATOM     16  C   UNL     1       0.336   9.731  21.410  0.00  0.00    +0.000 A 
ATOM     17  C   UNL     1       0.352  10.449  20.204  0.00  0.00    +0.000 A 
ATOM     18  C   UNL     1       1.006   9.931  19.074  0.00  0.00    +0.000 A 
BRANCH  16  19
ATOM     19  C   UNL     1      -0.335  10.219  22.643  0.00  0.00    +0.000 C 
ATOM     20  O   UNL     1      -0.399  11.403  22.936  0.00  0.00    +0.000 OA
BRANCH  19  21
ATOM     21  O   UNL     1      -0.815   9.241  23.435  0.00  0.00    +0.000 OA
ATOM     22  H   UNL     1      -0.188   8.926  24.110  0.00  0.00    +0.000 HD
ENDBRANCH  19  21
ENDBRANCH  16  19
ENDBRANCH  12  13
ENDBRANCH   1  12
TORSDOF 6
ENDMDL
