MODEL 1
REMARK VINA RESULT:      -7.5      0.000      0.000
REMARK  Name = 
REMARK  5 active torsions:
REMARK  status: ('A' for Active; 'I' for Inactive)
REMARK    1  A    between atoms: C_2  and  C_3
REMARK    2  A    between atoms: C_3  and  O_4
REMARK    3  A    between atoms: C_3  and  C_5
REMARK    4  A    between atoms: N_17  and  S_18
REMARK    5  A    between atoms: S_18  and  C_21
REMARK                            x       y       z     vdW  Elec       q    Type
REMARK                         _______ _______ _______ _____ _____    ______ ____
ROOT
ATOM      1  O   UNL     1       0.526  13.014  19.913  0.00  0.00    +0.000 OA
ATOM      2  C   UNL     1      -0.182  12.152  20.436  0.00  0.00    +0.000 C 
ATOM      3  N   UNL     1      -0.692  12.344  21.716  0.00  0.00    +0.000 N 
ATOM      4  C   UNL     1      -0.420  13.588  22.453  0.00  0.00    +0.000 C 
ATOM      5  C   UNL     1      -1.535  13.583  23.421  0.00  0.00    +0.000 C 
ATOM      6  C   UNL     1      -2.267  12.478  23.340  0.00  0.00    +0.000 C 
ATOM      7  C   UNL     1      -1.788  11.560  22.296  0.00  0.00    +0.000 C 
ATOM      8  C   UNL     1      -3.587  12.623  23.969  0.00  0.00    +0.000 C 
ATOM      9  N   UNL     1      -3.661  14.107  24.222  0.00  0.00    +0.000 NA
ATOM     10  C   UNL     1      -2.251  14.661  24.129  0.00  0.00    +0.000 C 
ENDROOT
BRANCH   9  11
ATOM     11  S   UNL     1      -4.758  14.941  23.203  0.00  0.00    +0.000 S 
ATOM     12  O   UNL     1      -5.862  15.394  24.021  0.00  0.00    +0.000 OA
ATOM     13  O   UNL     1      -3.993  15.863  22.397  0.00  0.00    +0.000 OA
BRANCH  11  14
ATOM     14  C   UNL     1      -5.395  13.688  22.146  0.00  0.00    +0.000 A 
ATOM     15  C   UNL     1      -6.449  12.899  22.576  0.00  0.00    +0.000 A 
ATOM     16  N   UNL     1      -6.991  11.910  21.825  0.00  0.00    +0.000 NA
ATOM     17  C   UNL     1      -6.449  11.703  20.604  0.00  0.00    +0.000 A 
ATOM     18  C   UNL     1      -5.370  12.439  20.107  0.00  0.00    +0.000 A 
ATOM     19  C   UNL     1      -4.834  13.454  20.893  0.00  0.00    +0.000 A 
ATOM     20  O   UNL     1      -4.813  12.240  18.872  0.00  0.00    +0.000 OA
ATOM     21  C   UNL     1      -5.258  11.013  18.279  0.00  0.00    +0.000 C 
ATOM     22  C   UNL     1      -6.750  10.810  18.492  0.00  0.00    +0.000 C 
ATOM     23  O   UNL     1      -7.050  10.701  19.885  0.00  0.00    +0.000 OA
ENDBRANCH  11  14
ENDBRANCH   9  11
BRANCH   2  24
ATOM     24  C   UNL     1      -0.612  10.840  19.719  0.00  0.00    +0.000 C 
BRANCH  24  25
ATOM     25  C   UNL     1       0.426   9.761  19.447  0.00  0.00    +0.000 A 
ATOM     26  C   UNL     1       0.906   8.859  20.404  0.00  0.00    +0.000 A 
ATOM     27  C   UNL     1       1.881   7.912  20.075  0.00  0.00    +0.000 A 
ATOM     28  C   UNL     1       2.381   7.835  18.780  0.00  0.00    +0.000 A 
ATOM     29  C   UNL     1       1.904   8.703  17.804  0.00  0.00    +0.000 A 
ATOM     30  C   UNL     1       0.934   9.652  18.135  0.00  0.00    +0.000 A 
ENDBRANCH  24  25
BRANCH  24  31
ATOM     31  O   UNL     1      -1.204  11.197  18.463  0.00  0.00    +0.000 OA
ATOM     32  H   UNL     1      -0.681  10.728  17.786  0.00  0.00    +0.000 HD
ENDBRANCH  24  31
ENDBRANCH   2  24
TORSDOF 5
ENDMDL
MODEL 2
REMARK VINA RESULT:      -7.1      3.592      8.569
REMARK  Name = 
REMARK  5 active torsions:
REMARK  status: ('A' for Active; 'I' for Inactive)
REMARK    1  A    between atoms: C_2  and  C_3
REMARK    2  A    between atoms: C_3  and  O_4
REMARK    3  A    between atoms: C_3  and  C_5
REMARK    4  A    between atoms: N_17  and  S_18
REMARK    5  A    between atoms: S_18  and  C_21
REMARK                            x       y       z     vdW  Elec       q    Type
REMARK                         _______ _______ _______ _____ _____    ______ ____
ROOT
ATOM      1  O   UNL     1      -3.899  13.594  21.641  0.00  0.00    +0.000 OA
ATOM      2  C   UNL     1      -3.875  12.916  20.612  0.00  0.00    +0.000 C 
ATOM      3  N   UNL     1      -2.668  12.649  19.976  0.00  0.00    +0.000 N 
ATOM      4  C   UNL     1      -1.400  13.146  20.532  0.00  0.00    +0.000 C 
ATOM      5  C   UNL     1      -0.441  12.215  19.904  0.00  0.00    +0.000 C 
ATOM      6  C   UNL     1      -1.028  11.390  19.046  0.00  0.00    +0.000 C 
ATOM      7  C   UNL     1      -2.480  11.606  18.961  0.00  0.00    +0.000 C 
ATOM      8  C   UNL     1      -0.206  10.213  18.734  0.00  0.00    +0.000 C 
ATOM      9  N   UNL     1       0.893  10.307  19.762  0.00  0.00    +0.000 NA
ATOM     10  C   UNL     1       0.889  11.723  20.311  0.00  0.00    +0.000 C 
ENDROOT
BRANCH   9  11
ATOM     11  S   UNL     1       0.801   9.127  21.001  0.00  0.00    +0.000 S 
ATOM     12  O   UNL     1       1.624   9.579  22.101  0.00  0.00    +0.000 OA
ATOM     13  O   UNL     1      -0.593   8.799  21.191  0.00  0.00    +0.000 OA
BRANCH  11  14
ATOM     14  C   UNL     1       1.605   7.723  20.313  0.00  0.00    +0.000 A 
ATOM     15  C   UNL     1       1.550   6.508  20.976  0.00  0.00    +0.000 A 
ATOM     16  N   UNL     1       2.149   5.383  20.516  0.00  0.00    +0.000 NA
ATOM     17  C   UNL     1       2.831   5.485  19.354  0.00  0.00    +0.000 A 
ATOM     18  C   UNL     1       2.954   6.679  18.636  0.00  0.00    +0.000 A 
ATOM     19  C   UNL     1       2.326   7.820  19.125  0.00  0.00    +0.000 A 
ATOM     20  O   UNL     1       3.641   6.796  17.458  0.00  0.00    +0.000 OA
ATOM     21  C   UNL     1       4.458   5.646  17.203  0.00  0.00    +0.000 C 
ATOM     22  C   UNL     1       3.718   4.360  17.539  0.00  0.00    +0.000 C 
ATOM     23  O   UNL     1       3.400   4.311  18.931  0.00  0.00    +0.000 OA
ENDBRANCH  11  14
ENDBRANCH   9  11
BRANCH   2  24
ATOM     24  C   UNL     1      -5.139  12.262  19.983  0.00  0.00    +0.000 C 
BRANCH  24  25
ATOM     25  C   UNL     1      -5.972  13.052  18.985  0.00  0.00    +0.000 A 
ATOM     26  C   UNL     1      -6.163  12.692  17.646  0.00  0.00    +0.000 A 
ATOM     27  C   UNL     1      -6.926  13.490  16.788  0.00  0.00    +0.000 A 
ATOM     28  C   UNL     1      -7.529  14.654  17.255  0.00  0.00    +0.000 A 
ATOM     29  C   UNL     1      -7.376  15.021  18.587  0.00  0.00    +0.000 A 
ATOM     30  C   UNL     1      -6.609  14.227  19.442  0.00  0.00    +0.000 A 
ENDBRANCH  24  25
BRANCH  24  31
ATOM     31  O   UNL     1      -6.007  11.863  21.052  0.00  0.00    +0.000 OA
ATOM     32  H   UNL     1      -6.685  12.562  21.112  0.00  0.00    +0.000 HD
ENDBRANCH  24  31
ENDBRANCH   2  24
TORSDOF 5
ENDMDL
MODEL 3
REMARK VINA RESULT:      -7.0      0.883      1.613
REMARK  Name = 
REMARK  5 active torsions:
REMARK  status: ('A' for Active; 'I' for Inactive)
REMARK    1  A    between atoms: C_2  and  C_3
REMARK    2  A    between atoms: C_3  and  O_4
REMARK    3  A    between atoms: C_3  and  C_5
REMARK    4  A    between atoms: N_17  and  S_18
REMARK    5  A    between atoms: S_18  and  C_21
REMARK                            x       y       z     vdW  Elec       q    Type
REMARK                         _______ _______ _______ _____ _____    ______ ____
ROOT
ATOM      1  O   UNL     1       0.406  12.846  19.953  0.00  0.00    +0.000 OA
ATOM      2  C   UNL     1      -0.264  12.007  20.557  0.00  0.00    +0.000 C 
ATOM      3  N   UNL     1      -0.745  12.278  21.833  0.00  0.00    +0.000 N 
ATOM      4  C   UNL     1      -0.488  13.579  22.471  0.00  0.00    +0.000 C 
ATOM      5  C   UNL     1      -1.578  13.616  23.467  0.00  0.00    +0.000 C 
ATOM      6  C   UNL     1      -2.281  12.490  23.486  0.00  0.00    +0.000 C 
ATOM      7  C   UNL     1      -1.804  11.511  22.498  0.00  0.00    +0.000 C 
ATOM      8  C   UNL     1      -3.587  12.646  24.140  0.00  0.00    +0.000 C 
ATOM      9  N   UNL     1      -3.696  14.143  24.287  0.00  0.00    +0.000 NA
ATOM     10  C   UNL     1      -2.304  14.724  24.115  0.00  0.00    +0.000 C 
ENDROOT
BRANCH   9  11
ATOM     11  S   UNL     1      -4.841  14.872  23.241  0.00  0.00    +0.000 S 
ATOM     12  O   UNL     1      -6.147  14.719  23.844  0.00  0.00    +0.000 OA
ATOM     13  O   UNL     1      -4.332  16.172  22.871  0.00  0.00    +0.000 OA
BRANCH  11  14
ATOM     14  C   UNL     1      -4.824  13.850  21.810  0.00  0.00    +0.000 A 
ATOM     15  C   UNL     1      -3.817  14.003  20.871  0.00  0.00    +0.000 A 
ATOM     16  N   UNL     1      -3.737  13.260  19.741  0.00  0.00    +0.000 NA
ATOM     17  C   UNL     1      -4.706  12.338  19.545  0.00  0.00    +0.000 A 
ATOM     18  C   UNL     1      -5.767  12.138  20.432  0.00  0.00    +0.000 A 
ATOM     19  C   UNL     1      -5.826  12.908  21.590  0.00  0.00    +0.000 A 
ATOM     20  O   UNL     1      -6.754  11.207  20.247  0.00  0.00    +0.000 OA
ATOM     21  C   UNL     1      -6.742  10.678  18.915  0.00  0.00    +0.000 C 
ATOM     22  C   UNL     1      -5.321  10.398  18.447  0.00  0.00    +0.000 C 
ATOM     23  O   UNL     1      -4.562  11.607  18.394  0.00  0.00    +0.000 OA
ENDBRANCH  11  14
ENDBRANCH   9  11
BRANCH   2  24
ATOM     24  C   UNL     1      -0.676  10.635  19.948  0.00  0.00    +0.000 C 
BRANCH  24  25
ATOM     25  C   UNL     1       0.402   9.680  19.456  0.00  0.00    +0.000 A 
ATOM     26  C   UNL     1       0.919   9.666  18.155  0.00  0.00    +0.000 A 
ATOM     27  C   UNL     1       1.894   8.737  17.778  0.00  0.00    +0.000 A 
ATOM     28  C   UNL     1       2.383   7.816  18.698  0.00  0.00    +0.000 A 
ATOM     29  C   UNL     1       1.904   7.824  20.003  0.00  0.00    +0.000 A 
ATOM     30  C   UNL     1       0.927   8.749  20.377  0.00  0.00    +0.000 A 
ENDBRANCH  24  25
BRANCH  24  31
ATOM     31  O   UNL     1      -1.564  10.888  18.851  0.00  0.00    +0.000 OA
ATOM     32  H   UNL     1      -2.364  11.280  19.249  0.00  0.00    +0.000 HD
ENDBRANCH  24  31
ENDBRANCH   2  24
TORSDOF 5
ENDMDL
MODEL 4
REMARK VINA RESULT:      -6.9      6.562     11.623
REMARK  Name = 
REMARK  5 active torsions:
REMARK  status: ('A' for Active; 'I' for Inactive)
REMARK    1  A    between atoms: C_2  and  C_3
REMARK    2  A    between atoms: C_3  and  O_4
REMARK    3  A    between atoms: C_3  and  C_5
REMARK    4  A    between atoms: N_17  and  S_18
REMARK    5  A    between atoms: S_18  and  C_21
REMARK                            x       y       z     vdW  Elec       q    Type
REMARK                         _______ _______ _______ _____ _____    ______ ____
ROOT
ATOM      1  O   UNL     1       1.764   9.928  19.383  0.00  0.00    +0.000 OA
ATOM      2  C   UNL     1       1.454   9.001  20.132  0.00  0.00    +0.000 C 
ATOM      3  N   UNL     1       1.411   7.696  19.653  0.00  0.00    +0.000 N 
ATOM      4  C   UNL     1       1.762   7.398  18.256  0.00  0.00    +0.000 C 
ATOM      5  C   UNL     1       2.105   5.965  18.358  0.00  0.00    +0.000 C 
ATOM      6  C   UNL     1       1.887   5.481  19.575  0.00  0.00    +0.000 C 
ATOM      7  C   UNL     1       1.381   6.502  20.505  0.00  0.00    +0.000 C 
ATOM      8  C   UNL     1       2.591   4.215  19.818  0.00  0.00    +0.000 C 
ATOM      9  N   UNL     1       3.513   4.127  18.629  0.00  0.00    +0.000 NA
ATOM     10  C   UNL     1       2.999   5.091  17.575  0.00  0.00    +0.000 C 
ENDROOT
BRANCH   9  11
ATOM     11  S   UNL     1       5.166   4.385  18.999  0.00  0.00    +0.000 S 
ATOM     12  O   UNL     1       5.262   5.619  19.748  0.00  0.00    +0.000 OA
ATOM     13  O   UNL     1       5.698   3.147  19.519  0.00  0.00    +0.000 OA
BRANCH  11  14
ATOM     14  C   UNL     1       5.911   4.687  17.435  0.00  0.00    +0.000 A 
ATOM     15  C   UNL     1       6.785   5.752  17.286  0.00  0.00    +0.000 A 
ATOM     16  N   UNL     1       7.393   6.054  16.113  0.00  0.00    +0.000 NA
ATOM     17  C   UNL     1       7.107   5.264  15.054  0.00  0.00    +0.000 A 
ATOM     18  C   UNL     1       6.220   4.186  15.116  0.00  0.00    +0.000 A 
ATOM     19  C   UNL     1       5.611   3.891  16.332  0.00  0.00    +0.000 A 
ATOM     20  O   UNL     1       5.922   3.378  14.052  0.00  0.00    +0.000 OA
ATOM     21  C   UNL     1       6.384   3.936  12.816  0.00  0.00    +0.000 C 
ATOM     22  C   UNL     1       7.777   4.529  12.966  0.00  0.00    +0.000 C 
ATOM     23  O   UNL     1       7.766   5.609  13.902  0.00  0.00    +0.000 OA
ENDBRANCH  11  14
ENDBRANCH   9  11
BRANCH   2  24
ATOM     24  C   UNL     1       1.151   9.182  21.648  0.00  0.00    +0.000 C 
BRANCH  24  25
ATOM     25  C   UNL     1       0.199  10.282  22.095  0.00  0.00    +0.000 A 
ATOM     26  C   UNL     1      -0.817  10.118  23.043  0.00  0.00    +0.000 A 
ATOM     27  C   UNL     1      -1.666  11.177  23.379  0.00  0.00    +0.000 A 
ATOM     28  C   UNL     1      -1.503  12.426  22.788  0.00  0.00    +0.000 A 
ATOM     29  C   UNL     1      -0.486  12.623  21.862  0.00  0.00    +0.000 A 
ATOM     30  C   UNL     1       0.358  11.562  21.523  0.00  0.00    +0.000 A 
ENDBRANCH  24  25
BRANCH  24  31
ATOM     31  O   UNL     1       2.399   9.388  22.325  0.00  0.00    +0.000 OA
ATOM     32  H   UNL     1       2.722  10.255  22.016  0.00  0.00    +0.000 HD
ENDBRANCH  24  31
ENDBRANCH   2  24
TORSDOF 5
ENDMDL
MODEL 5
REMARK VINA RESULT:      -6.8      3.890      6.585
REMARK  Name = 
REMARK  5 active torsions:
REMARK  status: ('A' for Active; 'I' for Inactive)
REMARK    1  A    between atoms: C_2  and  C_3
REMARK    2  A    between atoms: C_3  and  O_4
REMARK    3  A    between atoms: C_3  and  C_5
REMARK    4  A    between atoms: N_17  and  S_18
REMARK    5  A    between atoms: S_18  and  C_21
REMARK                            x       y       z     vdW  Elec       q    Type
REMARK                         _______ _______ _______ _____ _____    ______ ____
ROOT
ATOM      1  O   UNL     1       2.168   5.427  18.519  0.00  0.00    +0.000 OA
ATOM      2  C   UNL     1       2.917   6.368  18.252  0.00  0.00    +0.000 C 
ATOM      3  N   UNL     1       2.391   7.601  17.885  0.00  0.00    +0.000 N 
ATOM      4  C   UNL     1       0.936   7.812  17.836  0.00  0.00    +0.000 C 
ATOM      5  C   UNL     1       0.866   9.282  17.956  0.00  0.00    +0.000 C 
ATOM      6  C   UNL     1       2.069   9.843  17.962  0.00  0.00    +0.000 C 
ATOM      7  C   UNL     1       3.153   8.854  17.868  0.00  0.00    +0.000 C 
ATOM      8  C   UNL     1       2.054  11.215  18.489  0.00  0.00    +0.000 C 
ATOM      9  N   UNL     1       0.667  11.320  19.071  0.00  0.00    +0.000 NA
ATOM     10  C   UNL     1      -0.166  10.196  18.481  0.00  0.00    +0.000 C 
ENDROOT
BRANCH   9  11
ATOM     11  S   UNL     1       0.621  11.336  20.784  0.00  0.00    +0.000 S 
ATOM     12  O   UNL     1       0.597   9.963  21.236  0.00  0.00    +0.000 OA
ATOM     13  O   UNL     1       1.633  12.260  21.241  0.00  0.00    +0.000 OA
BRANCH  11  14
ATOM     14  C   UNL     1      -0.955  12.019  21.161  0.00  0.00    +0.000 A 
ATOM     15  C   UNL     1      -1.549  12.902  20.274  0.00  0.00    +0.000 A 
ATOM     16  N   UNL     1      -2.757  13.475  20.495  0.00  0.00    +0.000 NA
ATOM     17  C   UNL     1      -3.383  13.157  21.650  0.00  0.00    +0.000 A 
ATOM     18  C   UNL     1      -2.841  12.294  22.606  0.00  0.00    +0.000 A 
ATOM     19  C   UNL     1      -1.602  11.712  22.355  0.00  0.00    +0.000 A 
ATOM     20  O   UNL     1      -3.465  11.962  23.779  0.00  0.00    +0.000 OA
ATOM     21  C   UNL     1      -4.582  12.819  24.047  0.00  0.00    +0.000 C 
ATOM     22  C   UNL     1      -5.395  13.074  22.787  0.00  0.00    +0.000 C 
ATOM     23  O   UNL     1      -4.608  13.755  21.808  0.00  0.00    +0.000 OA
ENDBRANCH  11  14
ENDBRANCH   9  11
BRANCH   2  24
ATOM     24  C   UNL     1       4.468   6.290  18.358  0.00  0.00    +0.000 C 
BRANCH  24  25
ATOM     25  C   UNL     1       5.271   5.729  17.194  0.00  0.00    +0.000 A 
ATOM     26  C   UNL     1       4.959   5.926  15.844  0.00  0.00    +0.000 A 
ATOM     27  C   UNL     1       5.738   5.353  14.834  0.00  0.00    +0.000 A 
ATOM     28  C   UNL     1       6.854   4.587  15.153  0.00  0.00    +0.000 A 
ATOM     29  C   UNL     1       7.200   4.396  16.485  0.00  0.00    +0.000 A 
ATOM     30  C   UNL     1       6.419   4.964  17.493  0.00  0.00    +0.000 A 
ENDBRANCH  24  25
BRANCH  24  31
ATOM     31  O   UNL     1       4.792   5.516  19.521  0.00  0.00    +0.000 OA
ATOM     32  H   UNL     1       4.694   6.126  20.276  0.00  0.00    +0.000 HD
ENDBRANCH  24  31
ENDBRANCH   2  24
TORSDOF 5
ENDMDL
MODEL 6
REMARK VINA RESULT:      -6.8      1.134      1.789
REMARK  Name = 
REMARK  5 active torsions:
REMARK  status: ('A' for Active; 'I' for Inactive)
REMARK    1  A    between atoms: C_2  and  C_3
REMARK    2  A    between atoms: C_3  and  O_4
REMARK    3  A    between atoms: C_3  and  C_5
REMARK    4  A    between atoms: N_17  and  S_18
REMARK    5  A    between atoms: S_18  and  C_21
REMARK                            x       y       z     vdW  Elec       q    Type
REMARK                         _______ _______ _______ _____ _____    ______ ____
ROOT
ATOM      1  O   UNL     1      -0.920  13.654  19.498  0.00  0.00    +0.000 OA
ATOM      2  C   UNL     1      -1.316  12.710  20.182  0.00  0.00    +0.000 C 
ATOM      3  N   UNL     1      -1.635  12.899  21.522  0.00  0.00    +0.000 N 
ATOM      4  C   UNL     1      -1.534  14.232  22.136  0.00  0.00    +0.000 C 
ATOM      5  C   UNL     1      -2.442  14.073  23.290  0.00  0.00    +0.000 C 
ATOM      6  C   UNL     1      -2.906  12.834  23.397  0.00  0.00    +0.000 C 
ATOM      7  C   UNL     1      -2.411  11.952  22.330  0.00  0.00    +0.000 C 
ATOM      8  C   UNL     1      -4.100  12.745  24.249  0.00  0.00    +0.000 C 
ATOM      9  N   UNL     1      -4.467  14.195  24.439  0.00  0.00    +0.000 NA
ATOM     10  C   UNL     1      -3.256  15.030  24.063  0.00  0.00    +0.000 C 
ENDROOT
BRANCH   9  11
ATOM     11  S   UNL     1      -5.879  14.680  23.597  0.00  0.00    +0.000 S 
ATOM     12  O   UNL     1      -7.019  14.126  24.294  0.00  0.00    +0.000 OA
ATOM     13  O   UNL     1      -5.772  16.098  23.341  0.00  0.00    +0.000 OA
BRANCH  11  14
ATOM     14  C   UNL     1      -5.770  13.836  22.058  0.00  0.00    +0.000 A 
ATOM     15  C   UNL     1      -5.103  14.428  20.998  0.00  0.00    +0.000 A 
ATOM     16  N   UNL     1      -4.981  13.846  19.780  0.00  0.00    +0.000 NA
ATOM     17  C   UNL     1      -5.554  12.633  19.622  0.00  0.00    +0.000 A 
ATOM     18  C   UNL     1      -6.264  11.979  20.634  0.00  0.00    +0.000 A 
ATOM     19  C   UNL     1      -6.371  12.593  21.878  0.00  0.00    +0.000 A 
ATOM     20  O   UNL     1      -6.848  10.750  20.487  0.00  0.00    +0.000 OA
ATOM     21  C   UNL     1      -6.907  10.350  19.112  0.00  0.00    +0.000 C 
ATOM     22  C   UNL     1      -5.610  10.677  18.388  0.00  0.00    +0.000 C 
ATOM     23  O   UNL     1      -5.382  12.088  18.375  0.00  0.00    +0.000 OA
ENDBRANCH  11  14
ENDBRANCH   9  11
BRANCH   2  24
ATOM     24  C   UNL     1      -1.549  11.277  19.620  0.00  0.00    +0.000 C 
BRANCH  24  25
ATOM     25  C   UNL     1      -0.365  10.337  19.451  0.00  0.00    +0.000 A 
ATOM     26  C   UNL     1       0.305  10.111  18.243  0.00  0.00    +0.000 A 
ATOM     27  C   UNL     1       1.372   9.209  18.170  0.00  0.00    +0.000 A 
ATOM     28  C   UNL     1       1.802   8.531  19.306  0.00  0.00    +0.000 A 
ATOM     29  C   UNL     1       1.169   8.756  20.523  0.00  0.00    +0.000 A 
ATOM     30  C   UNL     1       0.100   9.652  20.594  0.00  0.00    +0.000 A 
ENDBRANCH  24  25
BRANCH  24  31
ATOM     31  O   UNL     1      -2.187  11.404  18.342  0.00  0.00    +0.000 OA
ATOM     32  H   UNL     1      -2.815  12.145  18.437  0.00  0.00    +0.000 HD
ENDBRANCH  24  31
ENDBRANCH   2  24
TORSDOF 5
ENDMDL
MODEL 7
REMARK VINA RESULT:      -6.8      4.591      6.752
REMARK  Name = 
REMARK  5 active torsions:
REMARK  status: ('A' for Active; 'I' for Inactive)
REMARK    1  A    between atoms: C_2  and  C_3
REMARK    2  A    between atoms: C_3  and  O_4
REMARK    3  A    between atoms: C_3  and  C_5
REMARK    4  A    between atoms: N_17  and  S_18
REMARK    5  A    between atoms: S_18  and  C_21
REMARK                            x       y       z     vdW  Elec       q    Type
REMARK                         _______ _______ _______ _____ _____    ______ ____
ROOT
ATOM      1  O   UNL     1       2.387   7.307  20.447  0.00  0.00    +0.000 OA
ATOM      2  C   UNL     1       1.936   7.916  19.476  0.00  0.00    +0.000 C 
ATOM      3  N   UNL     1       0.939   8.870  19.647  0.00  0.00    +0.000 N 
ATOM      4  C   UNL     1       0.428   9.190  20.989  0.00  0.00    +0.000 C 
ATOM      5  C   UNL     1      -0.136  10.534  20.756  0.00  0.00    +0.000 C 
ATOM      6  C   UNL     1      -0.068  10.894  19.480  0.00  0.00    +0.000 C 
ATOM      7  C   UNL     1       0.568   9.869  18.639  0.00  0.00    +0.000 C 
ATOM      8  C   UNL     1      -0.225  12.342  19.288  0.00  0.00    +0.000 C 
ATOM      9  N   UNL     1      -0.130  12.865  20.699  0.00  0.00    +0.000 NA
ATOM     10  C   UNL     1      -0.355  11.695  21.639  0.00  0.00    +0.000 C 
ENDROOT
BRANCH   9  11
ATOM     11  S   UNL     1       1.322  13.708  21.042  0.00  0.00    +0.000 S 
ATOM     12  O   UNL     1       1.165  14.350  22.328  0.00  0.00    +0.000 OA
ATOM     13  O   UNL     1       2.422  12.809  20.781  0.00  0.00    +0.000 OA
BRANCH  11  14
ATOM     14  C   UNL     1       1.366  14.990  19.839  0.00  0.00    +0.000 A 
ATOM     15  C   UNL     1       2.556  15.286  19.196  0.00  0.00    +0.000 A 
ATOM     16  N   UNL     1       2.674  16.263  18.264  0.00  0.00    +0.000 NA
ATOM     17  C   UNL     1       1.558  16.969  17.975  0.00  0.00    +0.000 A 
ATOM     18  C   UNL     1       0.325  16.748  18.595  0.00  0.00    +0.000 A 
ATOM     19  C   UNL     1       0.227  15.736  19.545  0.00  0.00    +0.000 A 
ATOM     20  O   UNL     1      -0.812  17.455  18.311  0.00  0.00    +0.000 OA
ATOM     21  C   UNL     1      -0.529  18.627  17.537  0.00  0.00    +0.000 C 
ATOM     22  C   UNL     1       0.488  18.333  16.444  0.00  0.00    +0.000 C 
ATOM     23  O   UNL     1       1.735  17.931  17.013  0.00  0.00    +0.000 OA
ENDBRANCH  11  14
ENDBRANCH   9  11
BRANCH   2  24
ATOM     24  C   UNL     1       2.462   7.730  18.023  0.00  0.00    +0.000 C 
BRANCH  24  25
ATOM     25  C   UNL     1       3.314   6.515  17.685  0.00  0.00    +0.000 A 
ATOM     26  C   UNL     1       2.869   5.190  17.742  0.00  0.00    +0.000 A 
ATOM     27  C   UNL     1       3.727   4.128  17.438  0.00  0.00    +0.000 A 
ATOM     28  C   UNL     1       5.042   4.372  17.054  0.00  0.00    +0.000 A 
ATOM     29  C   UNL     1       5.503   5.681  16.966  0.00  0.00    +0.000 A 
ATOM     30  C   UNL     1       4.646   6.740  17.275  0.00  0.00    +0.000 A 
ENDBRANCH  24  25
BRANCH  24  31
ATOM     31  O   UNL     1       3.215   8.898  17.673  0.00  0.00    +0.000 OA
ATOM     32  H   UNL     1       2.558   9.546  17.354  0.00  0.00    +0.000 HD
ENDBRANCH  24  31
ENDBRANCH   2  24
TORSDOF 5
ENDMDL
MODEL 8
REMARK VINA RESULT:      -6.7      2.894      4.589
REMARK  Name = 
REMARK  5 active torsions:
REMARK  status: ('A' for Active; 'I' for Inactive)
REMARK    1  A    between atoms: C_2  and  C_3
REMARK    2  A    between atoms: C_3  and  O_4
REMARK    3  A    between atoms: C_3  and  C_5
REMARK    4  A    between atoms: N_17  and  S_18
REMARK    5  A    between atoms: S_18  and  C_21
REMARK                            x       y       z     vdW  Elec       q    Type
REMARK                         _______ _______ _______ _____ _____    ______ ____
ROOT
ATOM      1  O   UNL     1      -0.805   8.742  20.953  0.00  0.00    +0.000 OA
ATOM      2  C   UNL     1       0.232   9.239  20.511  0.00  0.00    +0.000 C 
ATOM      3  N   UNL     1       0.197  10.463  19.851  0.00  0.00    +0.000 N 
ATOM      4  C   UNL     1      -1.068  11.196  19.695  0.00  0.00    +0.000 C 
ATOM      5  C   UNL     1      -0.567  12.567  19.476  0.00  0.00    +0.000 C 
ATOM      6  C   UNL     1       0.758  12.613  19.404  0.00  0.00    +0.000 C 
ATOM      7  C   UNL     1       1.377  11.291  19.582  0.00  0.00    +0.000 C 
ATOM      8  C   UNL     1       1.292  13.966  19.604  0.00  0.00    +0.000 C 
ATOM      9  N   UNL     1       0.080  14.722  20.089  0.00  0.00    +0.000 NA
ATOM     10  C   UNL     1      -1.146  13.899  19.736  0.00  0.00    +0.000 C 
ENDROOT
BRANCH   9  11
ATOM     11  S   UNL     1       0.129  15.140  21.750  0.00  0.00    +0.000 S 
ATOM     12  O   UNL     1       1.363  14.622  22.299  0.00  0.00    +0.000 OA
ATOM     13  O   UNL     1      -0.212  16.540  21.859  0.00  0.00    +0.000 OA
BRANCH  11  14
ATOM     14  C   UNL     1      -1.175  14.202  22.464  0.00  0.00    +0.000 A 
ATOM     15  C   UNL     1      -0.937  12.900  22.874  0.00  0.00    +0.000 A 
ATOM     16  N   UNL     1      -1.890  12.110  23.426  0.00  0.00    +0.000 NA
ATOM     17  C   UNL     1      -3.123  12.645  23.565  0.00  0.00    +0.000 A 
ATOM     18  C   UNL     1      -3.450  13.941  23.156  0.00  0.00    +0.000 A 
ATOM     19  C   UNL     1      -2.454  14.736  22.597  0.00  0.00    +0.000 A 
ATOM     20  O   UNL     1      -4.694  14.496  23.292  0.00  0.00    +0.000 OA
ATOM     21  C   UNL     1      -5.682  13.510  23.618  0.00  0.00    +0.000 C 
ATOM     22  C   UNL     1      -5.159  12.529  24.657  0.00  0.00    +0.000 C 
ATOM     23  O   UNL     1      -4.039  11.804  24.145  0.00  0.00    +0.000 OA
ENDBRANCH  11  14
ENDBRANCH   9  11
BRANCH   2  24
ATOM     24  C   UNL     1       1.640   8.602  20.696  0.00  0.00    +0.000 C 
BRANCH  24  25
ATOM     25  C   UNL     1       1.954   7.274  20.022  0.00  0.00    +0.000 A 
ATOM     26  C   UNL     1       1.734   6.018  20.598  0.00  0.00    +0.000 A 
ATOM     27  C   UNL     1       2.075   4.844  19.918  0.00  0.00    +0.000 A 
ATOM     28  C   UNL     1       2.627   4.903  18.643  0.00  0.00    +0.000 A 
ATOM     29  C   UNL     1       2.834   6.138  18.038  0.00  0.00    +0.000 A 
ATOM     30  C   UNL     1       2.497   7.309  18.720  0.00  0.00    +0.000 A 
ENDBRANCH  24  25
BRANCH  24  31
ATOM     31  O   UNL     1       1.869   8.439  22.102  0.00  0.00    +0.000 OA
ATOM     32  H   UNL     1       0.986   8.318  22.498  0.00  0.00    +0.000 HD
ENDBRANCH  24  31
ENDBRANCH   2  24
TORSDOF 5
ENDMDL
MODEL 9
REMARK VINA RESULT:      -6.7      2.059      2.921
REMARK  Name = 
REMARK  5 active torsions:
REMARK  status: ('A' for Active; 'I' for Inactive)
REMARK    1  A    between atoms: C_2  and  C_3
REMARK    2  A    between atoms: C_3  and  O_4
REMARK    3  A    between atoms: C_3  and  C_5
REMARK    4  A    between atoms: N_17  and  S_18
REMARK    5  A    between atoms: S_18  and  C_21
REMARK                            x       y       z     vdW  Elec       q    Type
REMARK                         _______ _______ _______ _____ _____    ______ ____
ROOT
ATOM      1  O   UNL     1       2.000  12.127  18.304  0.00  0.00    +0.000 OA
ATOM      2  C   UNL     1       1.318  11.549  19.151  0.00  0.00    +0.000 C 
ATOM      3  N   UNL     1       1.073  12.148  20.382  0.00  0.00    +0.000 N 
ATOM      4  C   UNL     1       1.596  13.489  20.682  0.00  0.00    +0.000 C 
ATOM      5  C   UNL     1       0.681  13.906  21.763  0.00  0.00    +0.000 C 
ATOM      6  C   UNL     1      -0.158  12.939  22.112  0.00  0.00    +0.000 C 
ATOM      7  C   UNL     1       0.029  11.716  21.319  0.00  0.00    +0.000 C 
ATOM      8  C   UNL     1      -1.320  13.437  22.861  0.00  0.00    +0.000 C 
ATOM      9  N   UNL     1      -1.201  14.930  22.684  0.00  0.00    +0.000 NA
ATOM     10  C   UNL     1       0.217  15.227  22.228  0.00  0.00    +0.000 C 
ENDROOT
BRANCH   9  11
ATOM     11  S   UNL     1      -2.377  15.612  21.641  0.00  0.00    +0.000 S 
ATOM     12  O   UNL     1      -2.741  16.906  22.175  0.00  0.00    +0.000 OA
ATOM     13  O   UNL     1      -1.900  15.466  20.286  0.00  0.00    +0.000 OA
BRANCH  11  14
ATOM     14  C   UNL     1      -3.780  14.571  21.843  0.00  0.00    +0.000 A 
ATOM     15  C   UNL     1      -3.988  13.523  20.961  0.00  0.00    +0.000 A 
ATOM     16  N   UNL     1      -5.047  12.682  21.044  0.00  0.00    +0.000 NA
ATOM     17  C   UNL     1      -5.929  12.906  22.043  0.00  0.00    +0.000 A 
ATOM     18  C   UNL     1      -5.804  13.954  22.959  0.00  0.00    +0.000 A 
ATOM     19  C   UNL     1      -4.705  14.802  22.858  0.00  0.00    +0.000 A 
ATOM     20  O   UNL     1      -6.689  14.192  23.976  0.00  0.00    +0.000 OA
ATOM     21  C   UNL     1      -7.898  13.440  23.814  0.00  0.00    +0.000 C 
ATOM     22  C   UNL     1      -7.605  12.016  23.366  0.00  0.00    +0.000 C 
ATOM     23  O   UNL     1      -6.969  12.012  22.086  0.00  0.00    +0.000 OA
ENDBRANCH  11  14
ENDBRANCH   9  11
BRANCH   2  24
ATOM     24  C   UNL     1       0.638  10.169  18.914  0.00  0.00    +0.000 C 
BRANCH  24  25
ATOM     25  C   UNL     1       1.484   8.905  18.922  0.00  0.00    +0.000 A 
ATOM     26  C   UNL     1       1.574   8.015  19.997  0.00  0.00    +0.000 A 
ATOM     27  C   UNL     1       2.398   6.886  19.930  0.00  0.00    +0.000 A 
ATOM     28  C   UNL     1       3.132   6.616  18.781  0.00  0.00    +0.000 A 
ATOM     29  C   UNL     1       3.042   7.472  17.689  0.00  0.00    +0.000 A 
ATOM     30  C   UNL     1       2.224   8.601  17.758  0.00  0.00    +0.000 A 
ENDBRANCH  24  25
BRANCH  24  31
ATOM     31  O   UNL     1      -0.045  10.226  17.654  0.00  0.00    +0.000 OA
ATOM     32  H   UNL     1      -0.581  11.040  17.684  0.00  0.00    +0.000 HD
ENDBRANCH  24  31
ENDBRANCH   2  24
TORSDOF 5
ENDMDL
