MODEL 1
REMARK VINA RESULT:      -7.7      0.000      0.000
REMARK  Name = 
REMARK  9 active torsions:
REMARK  status: ('A' for Active; 'I' for Inactive)
REMARK    1  A    between atoms: C_2  and  C_3
REMARK    2  A    between atoms: C_2  and  C_4
REMARK    3  A    between atoms: C_7  and  C_8
REMARK    4  A    between atoms: C_8  and  N_9
REMARK    5  A    between atoms: N_17  and  C_18
REMARK    6  A    between atoms: C_18  and  C_19
REMARK    7  A    between atoms: N_27  and  C_28
REMARK    8  A    between atoms: C_28  and  C_29
REMARK    9  A    between atoms: C_29  and  C_30
REMARK                            x       y       z     vdW  Elec       q    Type
REMARK                         _______ _______ _______ _____ _____    ______ ____
ROOT
ATOM      1  N   UNL     1       1.584   9.267  17.979  0.00  0.00    +0.000 NA
ATOM      2  C   UNL     1       0.420   8.848  18.732  0.00  0.00    +0.000 C 
ATOM      3  C   UNL     1       0.038   9.750  19.884  0.00  0.00    +0.000 C 
ATOM      4  C   UNL     1       0.039  11.232  19.512  0.00  0.00    +0.000 C 
ATOM      5  C   UNL     1       1.260  11.682  18.697  0.00  0.00    +0.000 C 
ATOM      6  C   UNL     1       1.780  10.672  17.681  0.00  0.00    +0.000 C 
ATOM      7  C   UNL     1       0.131  12.037  20.832  0.00  0.00    +0.000 C 
ATOM      8  O   UNL     1       1.080  12.012  21.599  0.00  0.00    +0.000 OA
ATOM      9  N   UNL     1      -0.978  12.813  20.971  0.00  0.00    +0.000 N 
ATOM     10  C   UNL     1      -1.850  12.595  19.960  0.00  0.00    +0.000 C 
ATOM     11  O   UNL     1      -2.932  13.153  19.826  0.00  0.00    +0.000 OA
ATOM     12  N   UNL     1      -1.278  11.710  19.041  0.00  0.00    +0.000 N 
ENDROOT
BRANCH   1  13
ATOM     13  C   UNL     1       2.769   8.431  18.125  0.00  0.00    +0.000 C 
BRANCH  13  17
ATOM     14  C   UNL     1       2.182   4.342  19.740  0.00  0.00    +0.000 C 
ATOM     15  C   UNL     1       1.863   5.559  20.648  0.00  0.00    +0.000 C 
ATOM     16  C   UNL     1       2.292   6.881  20.063  0.00  0.00    +0.000 C 
ATOM     17  C   UNL     1       2.432   7.076  18.739  0.00  0.00    +0.000 C 
ATOM     18  C   UNL     1       2.164   5.958  17.759  0.00  0.00    +0.000 C 
ATOM     19  C   UNL     1       1.679   4.629  18.327  0.00  0.00    +0.000 C 
BRANCH  14  21
ATOM     20  C   UNL     1       1.364   2.652  21.437  0.00  0.00    +0.000 C 
ATOM     21  C   UNL     1       1.575   3.001  20.156  0.00  0.00    +0.000 C 
ATOM     22  C   UNL     1       1.103   2.110  19.032  0.00  0.00    +0.000 C 
ENDBRANCH  14  21
ENDBRANCH  13  17
ENDBRANCH   1  13
BRANCH   9  23
ATOM     23  C   UNL     1      -1.074  13.911  21.913  0.00  0.00    +0.000 C 
BRANCH  23  24
ATOM     24  C   UNL     1      -2.085  13.678  22.989  0.00  0.00    +0.000 A 
ATOM     25  C   UNL     1      -2.669  12.421  23.169  0.00  0.00    +0.000 A 
ATOM     26  C   UNL     1      -3.691  12.263  24.096  0.00  0.00    +0.000 A 
ATOM     27  C   UNL     1      -4.073  13.367  24.842  0.00  0.00    +0.000 A 
ATOM     28  N   UNL     1      -3.493  14.582  24.735  0.00  0.00    +0.000 NA
ATOM     29  C   UNL     1      -2.522  14.714  23.805  0.00  0.00    +0.000 A 
ENDBRANCH  23  24
ENDBRANCH   9  23
BRANCH  12  30
ATOM     30  C   UNL     1      -1.737  11.737  17.652  0.00  0.00    +0.000 C 
BRANCH  30  31
ATOM     31  C   UNL     1      -2.894  10.823  17.233  0.00  0.00    +0.000 C 
BRANCH  31  32
ATOM     32  C   UNL     1      -4.328  11.146  17.580  0.00  0.00    +0.000 A 
ATOM     33  C   UNL     1      -5.050  12.159  16.944  0.00  0.00    +0.000 A 
ATOM     34  C   UNL     1      -6.398  12.374  17.257  0.00  0.00    +0.000 A 
ATOM     35  C   UNL     1      -7.043  11.571  18.198  0.00  0.00    +0.000 A 
ATOM     36  C   UNL     1      -6.348  10.533  18.810  0.00  0.00    +0.000 A 
ATOM     37  C   UNL     1      -5.005  10.317  18.495  0.00  0.00    +0.000 A 
ENDBRANCH  31  32
ENDBRANCH  30  31
ENDBRANCH  12  30
TORSDOF 8
ENDMDL
MODEL 2
REMARK VINA RESULT:      -7.7      2.731      4.209
REMARK  Name = 
REMARK  9 active torsions:
REMARK  status: ('A' for Active; 'I' for Inactive)
REMARK    1  A    between atoms: C_2  and  C_3
REMARK    2  A    between atoms: C_2  and  C_4
REMARK    3  A    between atoms: C_7  and  C_8
REMARK    4  A    between atoms: C_8  and  N_9
REMARK    5  A    between atoms: N_17  and  C_18
REMARK    6  A    between atoms: C_18  and  C_19
REMARK    7  A    between atoms: N_27  and  C_28
REMARK    8  A    between atoms: C_28  and  C_29
REMARK    9  A    between atoms: C_29  and  C_30
REMARK                            x       y       z     vdW  Elec       q    Type
REMARK                         _______ _______ _______ _____ _____    ______ ____
ROOT
ATOM      1  N   UNL     1       0.722   9.289  20.310  0.00  0.00    +0.000 NA
ATOM      2  C   UNL     1      -0.321   9.950  21.068  0.00  0.00    +0.000 C 
ATOM      3  C   UNL     1      -0.043  11.392  21.426  0.00  0.00    +0.000 C 
ATOM      4  C   UNL     1       0.487  12.211  20.250  0.00  0.00    +0.000 C 
ATOM      5  C   UNL     1       1.580  11.512  19.430  0.00  0.00    +0.000 C 
ATOM      6  C   UNL     1       1.410  10.007  19.256  0.00  0.00    +0.000 C 
ATOM      7  C   UNL     1       1.181  13.465  20.839  0.00  0.00    +0.000 C 
ATOM      8  O   UNL     1       2.175  13.443  21.546  0.00  0.00    +0.000 OA
ATOM      9  N   UNL     1       0.547  14.585  20.401  0.00  0.00    +0.000 N 
ATOM     10  C   UNL     1      -0.531  14.266  19.649  0.00  0.00    +0.000 C 
ATOM     11  O   UNL     1      -1.290  15.072  19.122  0.00  0.00    +0.000 OA
ATOM     12  N   UNL     1      -0.584  12.880  19.482  0.00  0.00    +0.000 N 
ENDROOT
BRANCH   1  13
ATOM     13  C   UNL     1       1.461   8.251  21.020  0.00  0.00    +0.000 C 
BRANCH  13  17
ATOM     14  C   UNL     1       2.310   4.886  18.258  0.00  0.00    +0.000 C 
ATOM     15  C   UNL     1       3.027   6.242  18.029  0.00  0.00    +0.000 C 
ATOM     16  C   UNL     1       2.508   7.358  18.901  0.00  0.00    +0.000 C 
ATOM     17  C   UNL     1       1.904   7.133  20.082  0.00  0.00    +0.000 C 
ATOM     18  C   UNL     1       1.710   5.726  20.597  0.00  0.00    +0.000 C 
ATOM     19  C   UNL     1       2.275   4.587  19.755  0.00  0.00    +0.000 C 
BRANCH  14  21
ATOM     20  C   UNL     1       2.373   2.438  17.617  0.00  0.00    +0.000 C 
ATOM     21  C   UNL     1       2.930   3.661  17.583  0.00  0.00    +0.000 C 
ATOM     22  C   UNL     1       4.167   3.916  16.754  0.00  0.00    +0.000 C 
ENDBRANCH  14  21
ENDBRANCH  13  17
ENDBRANCH   1  13
BRANCH   9  23
ATOM     23  C   UNL     1       1.113  15.916  20.498  0.00  0.00    +0.000 C 
BRANCH  23  24
ATOM     24  C   UNL     1       1.710  16.397  19.214  0.00  0.00    +0.000 A 
ATOM     25  C   UNL     1       1.151  17.471  18.517  0.00  0.00    +0.000 A 
ATOM     26  C   UNL     1       1.654  17.820  17.270  0.00  0.00    +0.000 A 
ATOM     27  C   UNL     1       2.728  17.100  16.774  0.00  0.00    +0.000 A 
ATOM     28  N   UNL     1       3.330  16.093  17.444  0.00  0.00    +0.000 NA
ATOM     29  C   UNL     1       2.803  15.756  18.642  0.00  0.00    +0.000 A 
ENDBRANCH  23  24
ENDBRANCH   9  23
BRANCH  12  30
ATOM     30  C   UNL     1      -1.277  12.332  18.316  0.00  0.00    +0.000 C 
BRANCH  30  31
ATOM     31  C   UNL     1      -2.426  11.340  18.531  0.00  0.00    +0.000 C 
BRANCH  31  32
ATOM     32  C   UNL     1      -3.855  11.800  18.685  0.00  0.00    +0.000 A 
ATOM     33  C   UNL     1      -4.297  12.541  19.784  0.00  0.00    +0.000 A 
ATOM     34  C   UNL     1      -5.618  13.001  19.846  0.00  0.00    +0.000 A 
ATOM     35  C   UNL     1      -6.508  12.737  18.806  0.00  0.00    +0.000 A 
ATOM     36  C   UNL     1      -6.073  12.035  17.687  0.00  0.00    +0.000 A 
ATOM     37  C   UNL     1      -4.754  11.581  17.624  0.00  0.00    +0.000 A 
ENDBRANCH  31  32
ENDBRANCH  30  31
ENDBRANCH  12  30
TORSDOF 8
ENDMDL
MODEL 3
REMARK VINA RESULT:      -7.7      2.661      4.161
REMARK  Name = 
REMARK  9 active torsions:
REMARK  status: ('A' for Active; 'I' for Inactive)
REMARK    1  A    between atoms: C_2  and  C_3
REMARK    2  A    between atoms: C_2  and  C_4
REMARK    3  A    between atoms: C_7  and  C_8
REMARK    4  A    between atoms: C_8  and  N_9
REMARK    5  A    between atoms: N_17  and  C_18
REMARK    6  A    between atoms: C_18  and  C_19
REMARK    7  A    between atoms: N_27  and  C_28
REMARK    8  A    between atoms: C_28  and  C_29
REMARK    9  A    between atoms: C_29  and  C_30
REMARK                            x       y       z     vdW  Elec       q    Type
REMARK                         _______ _______ _______ _____ _____    ______ ____
ROOT
ATOM      1  N   UNL     1       0.699   9.045  20.411  0.00  0.00    +0.000 NA
ATOM      2  C   UNL     1      -0.326   9.756  21.146  0.00  0.00    +0.000 C 
ATOM      3  C   UNL     1      -0.016  11.206  21.446  0.00  0.00    +0.000 C 
ATOM      4  C   UNL     1       0.525  11.966  20.236  0.00  0.00    +0.000 C 
ATOM      5  C   UNL     1       1.599  11.212  19.439  0.00  0.00    +0.000 C 
ATOM      6  C   UNL     1       1.396   9.706  19.325  0.00  0.00    +0.000 C 
ATOM      7  C   UNL     1       1.248  13.227  20.771  0.00  0.00    +0.000 C 
ATOM      8  O   UNL     1       2.246  13.212  21.473  0.00  0.00    +0.000 OA
ATOM      9  N   UNL     1       0.635  14.343  20.292  0.00  0.00    +0.000 N 
ATOM     10  C   UNL     1      -0.454  14.017  19.558  0.00  0.00    +0.000 C 
ATOM     11  O   UNL     1      -1.199  14.817  19.004  0.00  0.00    +0.000 OA
ATOM     12  N   UNL     1      -0.536  12.627  19.447  0.00  0.00    +0.000 N 
ENDROOT
BRANCH   1  13
ATOM     13  C   UNL     1       1.420   8.020  21.157  0.00  0.00    +0.000 C 
BRANCH  13  17
ATOM     14  C   UNL     1       3.089   4.760  18.656  0.00  0.00    +0.000 C 
ATOM     15  C   UNL     1       1.858   4.461  19.551  0.00  0.00    +0.000 C 
ATOM     16  C   UNL     1       1.511   5.582  20.499  0.00  0.00    +0.000 C 
ATOM     17  C   UNL     1       1.846   6.863  20.259  0.00  0.00    +0.000 C 
ATOM     18  C   UNL     1       2.603   7.245  19.008  0.00  0.00    +0.000 C 
ATOM     19  C   UNL     1       2.916   6.134  18.012  0.00  0.00    +0.000 C 
BRANCH  14  21
ATOM     20  C   UNL     1       4.353   3.936  16.624  0.00  0.00    +0.000 C 
ATOM     21  C   UNL     1       3.361   3.775  17.517  0.00  0.00    +0.000 C 
ATOM     22  C   UNL     1       2.520   2.522  17.509  0.00  0.00    +0.000 C 
ENDBRANCH  14  21
ENDBRANCH  13  17
ENDBRANCH   1  13
BRANCH   9  23
ATOM     23  C   UNL     1       1.230  15.664  20.333  0.00  0.00    +0.000 C 
BRANCH  23  24
ATOM     24  C   UNL     1       1.838  16.077  19.031  0.00  0.00    +0.000 A 
ATOM     25  C   UNL     1       2.833  15.306  18.424  0.00  0.00    +0.000 A 
ATOM     26  C   UNL     1       3.463  15.774  17.278  0.00  0.00    +0.000 A 
ATOM     27  C   UNL     1       3.051  16.989  16.756  0.00  0.00    +0.000 A 
ATOM     28  N   UNL     1       2.056  17.734  17.283  0.00  0.00    +0.000 NA
ATOM     29  C   UNL     1       1.480  17.269  18.413  0.00  0.00    +0.000 A 
ENDBRANCH  23  24
ENDBRANCH   9  23
BRANCH  12  30
ATOM     30  C   UNL     1      -1.247  12.048  18.307  0.00  0.00    +0.000 C 
BRANCH  30  31
ATOM     31  C   UNL     1      -2.509  11.215  18.561  0.00  0.00    +0.000 C 
BRANCH  31  32
ATOM     32  C   UNL     1      -3.889  11.823  18.496  0.00  0.00    +0.000 A 
ATOM     33  C   UNL     1      -4.703  11.732  17.364  0.00  0.00    +0.000 A 
ATOM     34  C   UNL     1      -6.002  12.256  17.378  0.00  0.00    +0.000 A 
ATOM     35  C   UNL     1      -6.506  12.865  18.527  0.00  0.00    +0.000 A 
ATOM     36  C   UNL     1      -5.722  12.929  19.675  0.00  0.00    +0.000 A 
ATOM     37  C   UNL     1      -4.429  12.402  19.660  0.00  0.00    +0.000 A 
ENDBRANCH  31  32
ENDBRANCH  30  31
ENDBRANCH  12  30
TORSDOF 8
ENDMDL
MODEL 4
REMARK VINA RESULT:      -7.6      1.299      1.843
REMARK  Name = 
REMARK  9 active torsions:
REMARK  status: ('A' for Active; 'I' for Inactive)
REMARK    1  A    between atoms: C_2  and  C_3
REMARK    2  A    between atoms: C_2  and  C_4
REMARK    3  A    between atoms: C_7  and  C_8
REMARK    4  A    between atoms: C_8  and  N_9
REMARK    5  A    between atoms: N_17  and  C_18
REMARK    6  A    between atoms: C_18  and  C_19
REMARK    7  A    between atoms: N_27  and  C_28
REMARK    8  A    between atoms: C_28  and  C_29
REMARK    9  A    between atoms: C_29  and  C_30
REMARK                            x       y       z     vdW  Elec       q    Type
REMARK                         _______ _______ _______ _____ _____    ______ ____
ROOT
ATOM      1  N   UNL     1       1.041   9.104  19.573  0.00  0.00    +0.000 NA
ATOM      2  C   UNL     1      -0.121   9.015  20.435  0.00  0.00    +0.000 C 
ATOM      3  C   UNL     1      -0.468  10.282  21.182  0.00  0.00    +0.000 C 
ATOM      4  C   UNL     1      -0.444  11.527  20.297  0.00  0.00    +0.000 C 
ATOM      5  C   UNL     1       0.774  11.622  19.367  0.00  0.00    +0.000 C 
ATOM      6  C   UNL     1       1.260  10.300  18.784  0.00  0.00    +0.000 C 
ATOM      7  C   UNL     1      -0.318  12.755  21.233  0.00  0.00    +0.000 C 
ATOM      8  O   UNL     1       0.642  12.988  21.950  0.00  0.00    +0.000 OA
ATOM      9  N   UNL     1      -1.409  13.554  21.087  0.00  0.00    +0.000 N 
ATOM     10  C   UNL     1      -2.299  13.003  20.230  0.00  0.00    +0.000 C 
ATOM     11  O   UNL     1      -3.372  13.500  19.909  0.00  0.00    +0.000 OA
ATOM     12  N   UNL     1      -1.758  11.833  19.693  0.00  0.00    +0.000 N 
ENDROOT
BRANCH   1  13
ATOM     13  C   UNL     1       2.211   8.351  20.007  0.00  0.00    +0.000 C 
BRANCH  13  17
ATOM     14  C   UNL     1       1.640   4.171  18.639  0.00  0.00    +0.000 C 
ATOM     15  C   UNL     1       2.563   5.108  17.818  0.00  0.00    +0.000 C 
ATOM     16  C   UNL     1       2.517   6.548  18.263  0.00  0.00    +0.000 C 
ATOM     17  C   UNL     1       2.169   6.909  19.512  0.00  0.00    +0.000 C 
ATOM     18  C   UNL     1       1.798   5.869  20.543  0.00  0.00    +0.000 C 
ATOM     19  C   UNL     1       1.890   4.405  20.128  0.00  0.00    +0.000 C 
BRANCH  14  21
ATOM     20  C   UNL     1       2.946   2.111  17.962  0.00  0.00    +0.000 C 
ATOM     21  C   UNL     1       1.804   2.668  18.401  0.00  0.00    +0.000 C 
ATOM     22  C   UNL     1       0.634   1.802  18.802  0.00  0.00    +0.000 C 
ENDBRANCH  14  21
ENDBRANCH  13  17
ENDBRANCH   1  13
BRANCH   9  23
ATOM     23  C   UNL     1      -1.470  14.921  21.566  0.00  0.00    +0.000 C 
BRANCH  23  24
ATOM     24  C   UNL     1      -2.046  15.039  22.940  0.00  0.00    +0.000 A 
ATOM     25  C   UNL     1      -3.418  15.214  23.134  0.00  0.00    +0.000 A 
ATOM     26  C   UNL     1      -3.910  15.440  24.413  0.00  0.00    +0.000 A 
ATOM     27  C   UNL     1      -3.010  15.449  25.467  0.00  0.00    +0.000 A 
ATOM     28  N   UNL     1      -1.685  15.229  25.324  0.00  0.00    +0.000 NA
ATOM     29  C   UNL     1      -1.231  15.040  24.066  0.00  0.00    +0.000 A 
ENDBRANCH  23  24
ENDBRANCH   9  23
BRANCH  12  30
ATOM     30  C   UNL     1      -2.236  11.363  18.392  0.00  0.00    +0.000 C 
BRANCH  30  31
ATOM     31  C   UNL     1      -3.518  10.524  18.329  0.00  0.00    +0.000 C 
BRANCH  31  32
ATOM     32  C   UNL     1      -4.878  11.161  18.178  0.00  0.00    +0.000 A 
ATOM     33  C   UNL     1      -5.916  10.954  19.091  0.00  0.00    +0.000 A 
ATOM     34  C   UNL     1      -7.138  11.622  18.941  0.00  0.00    +0.000 A 
ATOM     35  C   UNL     1      -7.331  12.514  17.886  0.00  0.00    +0.000 A 
ATOM     36  C   UNL     1      -6.294  12.761  16.992  0.00  0.00    +0.000 A 
ATOM     37  C   UNL     1      -5.075  12.097  17.145  0.00  0.00    +0.000 A 
ENDBRANCH  31  32
ENDBRANCH  30  31
ENDBRANCH  12  30
TORSDOF 8
ENDMDL
MODEL 5
REMARK VINA RESULT:      -7.5      2.680      4.171
REMARK  Name = 
REMARK  9 active torsions:
REMARK  status: ('A' for Active; 'I' for Inactive)
REMARK    1  A    between atoms: C_2  and  C_3
REMARK    2  A    between atoms: C_2  and  C_4
REMARK    3  A    between atoms: C_7  and  C_8
REMARK    4  A    between atoms: C_8  and  N_9
REMARK    5  A    between atoms: N_17  and  C_18
REMARK    6  A    between atoms: C_18  and  C_19
REMARK    7  A    between atoms: N_27  and  C_28
REMARK    8  A    between atoms: C_28  and  C_29
REMARK    9  A    between atoms: C_29  and  C_30
REMARK                            x       y       z     vdW  Elec       q    Type
REMARK                         _______ _______ _______ _____ _____    ______ ____
ROOT
ATOM      1  N   UNL     1       0.702   9.276  20.264  0.00  0.00    +0.000 NA
ATOM      2  C   UNL     1      -0.371   9.931  20.985  0.00  0.00    +0.000 C 
ATOM      3  C   UNL     1      -0.103  11.367  21.374  0.00  0.00    +0.000 C 
ATOM      4  C   UNL     1       0.479  12.200  20.233  0.00  0.00    +0.000 C 
ATOM      5  C   UNL     1       1.604  11.507  19.451  0.00  0.00    +0.000 C 
ATOM      6  C   UNL     1       1.436  10.005  19.249  0.00  0.00    +0.000 C 
ATOM      7  C   UNL     1       1.152  13.442  20.868  0.00  0.00    +0.000 C 
ATOM      8  O   UNL     1       2.116  13.407  21.616  0.00  0.00    +0.000 OA
ATOM      9  N   UNL     1       0.541  14.571  20.418  0.00  0.00    +0.000 N 
ATOM     10  C   UNL     1      -0.505  14.267  19.616  0.00  0.00    +0.000 C 
ATOM     11  O   UNL     1      -1.238  15.082  19.069  0.00  0.00    +0.000 OA
ATOM     12  N   UNL     1      -0.555  12.883  19.429  0.00  0.00    +0.000 N 
ENDROOT
BRANCH   1  13
ATOM     13  C   UNL     1       1.405   8.226  20.990  0.00  0.00    +0.000 C 
BRANCH  13  17
ATOM     14  C   UNL     1       2.370   4.921  18.194  0.00  0.00    +0.000 C 
ATOM     15  C   UNL     1       3.168   6.247  18.090  0.00  0.00    +0.000 C 
ATOM     16  C   UNL     1       2.616   7.356  18.950  0.00  0.00    +0.000 C 
ATOM     17  C   UNL     1       1.888   7.120  20.056  0.00  0.00    +0.000 C 
ATOM     18  C   UNL     1       1.580   5.707  20.495  0.00  0.00    +0.000 C 
ATOM     19  C   UNL     1       2.173   4.572  19.668  0.00  0.00    +0.000 C 
BRANCH  14  21
ATOM     20  C   UNL     1       2.475   2.456  17.627  0.00  0.00    +0.000 C 
ATOM     21  C   UNL     1       2.998   3.691  17.535  0.00  0.00    +0.000 C 
ATOM     22  C   UNL     1       4.197   3.950  16.655  0.00  0.00    +0.000 C 
ENDBRANCH  14  21
ENDBRANCH  13  17
ENDBRANCH   1  13
BRANCH   9  23
ATOM     23  C   UNL     1       1.108  15.898  20.556  0.00  0.00    +0.000 C 
BRANCH  23  24
ATOM     24  C   UNL     1       2.344  16.100  19.739  0.00  0.00    +0.000 A 
ATOM     25  C   UNL     1       2.314  15.982  18.347  0.00  0.00    +0.000 A 
ATOM     26  C   UNL     1       3.498  16.056  17.624  0.00  0.00    +0.000 A 
ATOM     27  C   UNL     1       4.675  16.282  18.320  0.00  0.00    +0.000 A 
ATOM     28  N   UNL     1       4.734  16.456  19.658  0.00  0.00    +0.000 NA
ATOM     29  C   UNL     1       3.572  16.351  20.339  0.00  0.00    +0.000 A 
ENDBRANCH  23  24
ENDBRANCH   9  23
BRANCH  12  30
ATOM     30  C   UNL     1      -1.200  12.353  18.227  0.00  0.00    +0.000 C 
BRANCH  30  31
ATOM     31  C   UNL     1      -2.265  11.261  18.374  0.00  0.00    +0.000 C 
BRANCH  31  32
ATOM     32  C   UNL     1      -3.722  11.595  18.588  0.00  0.00    +0.000 A 
ATOM     33  C   UNL     1      -4.750  11.009  17.845  0.00  0.00    +0.000 A 
ATOM     34  C   UNL     1      -6.089  11.304  18.129  0.00  0.00    +0.000 A 
ATOM     35  C   UNL     1      -6.416  12.177  19.167  0.00  0.00    +0.000 A 
ATOM     36  C   UNL     1      -5.406  12.737  19.941  0.00  0.00    +0.000 A 
ATOM     37  C   UNL     1      -4.071  12.439  19.659  0.00  0.00    +0.000 A 
ENDBRANCH  31  32
ENDBRANCH  30  31
ENDBRANCH  12  30
TORSDOF 8
ENDMDL
MODEL 6
REMARK VINA RESULT:      -7.5      1.901      5.123
REMARK  Name = 
REMARK  9 active torsions:
REMARK  status: ('A' for Active; 'I' for Inactive)
REMARK    1  A    between atoms: C_2  and  C_3
REMARK    2  A    between atoms: C_2  and  C_4
REMARK    3  A    between atoms: C_7  and  C_8
REMARK    4  A    between atoms: C_8  and  N_9
REMARK    5  A    between atoms: N_17  and  C_18
REMARK    6  A    between atoms: C_18  and  C_19
REMARK    7  A    between atoms: N_27  and  C_28
REMARK    8  A    between atoms: C_28  and  C_29
REMARK    9  A    between atoms: C_29  and  C_30
REMARK                            x       y       z     vdW  Elec       q    Type
REMARK                         _______ _______ _______ _____ _____    ______ ____
ROOT
ATOM      1  N   UNL     1       0.962  10.429  19.233  0.00  0.00    +0.000 NA
ATOM      2  C   UNL     1       0.790  11.853  19.037  0.00  0.00    +0.000 C 
ATOM      3  C   UNL     1      -0.590  12.281  18.588  0.00  0.00    +0.000 C 
ATOM      4  C   UNL     1      -1.712  11.622  19.390  0.00  0.00    +0.000 C 
ATOM      5  C   UNL     1      -1.529  10.115  19.619  0.00  0.00    +0.000 C 
ATOM      6  C   UNL     1      -0.095   9.655  19.854  0.00  0.00    +0.000 C 
ATOM      7  C   UNL     1      -3.006  11.735  18.547  0.00  0.00    +0.000 C 
ATOM      8  O   UNL     1      -3.181  11.202  17.463  0.00  0.00    +0.000 OA
ATOM      9  N   UNL     1      -3.930  12.467  19.225  0.00  0.00    +0.000 N 
ATOM     10  C   UNL     1      -3.418  12.931  20.388  0.00  0.00    +0.000 C 
ATOM     11  O   UNL     1      -4.022  13.620  21.202  0.00  0.00    +0.000 OA
ATOM     12  N   UNL     1      -2.130  12.419  20.562  0.00  0.00    +0.000 N 
ENDROOT
BRANCH   1  13
ATOM     13  C   UNL     1       1.820   9.754  18.265  0.00  0.00    +0.000 C 
BRANCH  13  17
ATOM     14  C   UNL     1       1.919   5.461  19.375  0.00  0.00    +0.000 C 
ATOM     15  C   UNL     1       2.623   5.914  18.069  0.00  0.00    +0.000 C 
ATOM     16  C   UNL     1       2.348   7.349  17.698  0.00  0.00    +0.000 C 
ATOM     17  C   UNL     1       2.005   8.279  18.608  0.00  0.00    +0.000 C 
ATOM     18  C   UNL     1       1.873   7.921  20.070  0.00  0.00    +0.000 C 
ATOM     19  C   UNL     1       2.197   6.487  20.472  0.00  0.00    +0.000 C 
BRANCH  14  21
ATOM     20  C   UNL     1       3.539   3.548  19.727  0.00  0.00    +0.000 C 
ATOM     21  C   UNL     1       2.330   4.099  19.937  0.00  0.00    +0.000 C 
ATOM     22  C   UNL     1       1.337   3.435  20.860  0.00  0.00    +0.000 C 
ENDBRANCH  14  21
ENDBRANCH  13  17
ENDBRANCH   1  13
BRANCH   9  23
ATOM     23  C   UNL     1      -5.337  12.503  18.878  0.00  0.00    +0.000 C 
BRANCH  23  24
ATOM     24  C   UNL     1      -6.132  11.416  19.527  0.00  0.00    +0.000 A 
ATOM     25  C   UNL     1      -6.305  10.178  18.902  0.00  0.00    +0.000 A 
ATOM     26  C   UNL     1      -7.145   9.230  19.471  0.00  0.00    +0.000 A 
ATOM     27  C   UNL     1      -7.761   9.541  20.673  0.00  0.00    +0.000 A 
ATOM     28  N   UNL     1      -7.573  10.704  21.334  0.00  0.00    +0.000 NA
ATOM     29  C   UNL     1      -6.773  11.619  20.743  0.00  0.00    +0.000 A 
ENDBRANCH  23  24
ENDBRANCH   9  23
BRANCH  12  30
ATOM     30  C   UNL     1      -1.590  12.304  21.917  0.00  0.00    +0.000 C 
BRANCH  30  31
ATOM     31  C   UNL     1      -0.757  13.458  22.486  0.00  0.00    +0.000 C 
BRANCH  31  32
ATOM     32  C   UNL     1      -1.313  14.404  23.523  0.00  0.00    +0.000 A 
ATOM     33  C   UNL     1      -2.454  14.114  24.276  0.00  0.00    +0.000 A 
ATOM     34  C   UNL     1      -2.891  14.996  25.273  0.00  0.00    +0.000 A 
ATOM     35  C   UNL     1      -2.185  16.169  25.537  0.00  0.00    +0.000 A 
ATOM     36  C   UNL     1      -1.025  16.452  24.823  0.00  0.00    +0.000 A 
ATOM     37  C   UNL     1      -0.589  15.570  23.833  0.00  0.00    +0.000 A 
ENDBRANCH  31  32
ENDBRANCH  30  31
ENDBRANCH  12  30
TORSDOF 8
ENDMDL
MODEL 7
REMARK VINA RESULT:      -7.5      2.188      3.276
REMARK  Name = 
REMARK  9 active torsions:
REMARK  status: ('A' for Active; 'I' for Inactive)
REMARK    1  A    between atoms: C_2  and  C_3
REMARK    2  A    between atoms: C_2  and  C_4
REMARK    3  A    between atoms: C_7  and  C_8
REMARK    4  A    between atoms: C_8  and  N_9
REMARK    5  A    between atoms: N_17  and  C_18
REMARK    6  A    between atoms: C_18  and  C_19
REMARK    7  A    between atoms: N_27  and  C_28
REMARK    8  A    between atoms: C_28  and  C_29
REMARK    9  A    between atoms: C_29  and  C_30
REMARK                            x       y       z     vdW  Elec       q    Type
REMARK                         _______ _______ _______ _____ _____    ______ ____
ROOT
ATOM      1  N   UNL     1       1.623   9.418  18.556  0.00  0.00    +0.000 NA
ATOM      2  C   UNL     1       0.735   9.350  19.699  0.00  0.00    +0.000 C 
ATOM      3  C   UNL     1       0.719  10.582  20.577  0.00  0.00    +0.000 C 
ATOM      4  C   UNL     1       0.615  11.883  19.783  0.00  0.00    +0.000 C 
ATOM      5  C   UNL     1       1.539  11.957  18.559  0.00  0.00    +0.000 C 
ATOM      6  C   UNL     1       1.728  10.649  17.798  0.00  0.00    +0.000 C 
ATOM      7  C   UNL     1       1.101  13.026  20.709  0.00  0.00    +0.000 C 
ATOM      8  O   UNL     1       2.235  13.135  21.144  0.00  0.00    +0.000 OA
ATOM      9  N   UNL     1       0.088  13.911  20.910  0.00  0.00    +0.000 N 
ATOM     10  C   UNL     1      -1.047  13.492  20.305  0.00  0.00    +0.000 C 
ATOM     11  O   UNL     1      -2.118  14.087  20.318  0.00  0.00    +0.000 OA
ATOM     12  N   UNL     1      -0.780  12.327  19.581  0.00  0.00    +0.000 N 
ENDROOT
BRANCH   1  13
ATOM     13  C   UNL     1       2.794   8.551  18.611  0.00  0.00    +0.000 C 
BRANCH  13  17
ATOM     14  C   UNL     1       1.275   4.486  19.526  0.00  0.00    +0.000 C 
ATOM     15  C   UNL     1       2.040   4.718  18.197  0.00  0.00    +0.000 C 
ATOM     16  C   UNL     1       2.326   6.170  17.907  0.00  0.00    +0.000 C 
ATOM     17  C   UNL     1       2.410   7.099  18.876  0.00  0.00    +0.000 C 
ATOM     18  C   UNL     1       2.214   6.725  20.327  0.00  0.00    +0.000 C 
ATOM     19  C   UNL     1       1.976   5.253  20.645  0.00  0.00    +0.000 C 
BRANCH  14  21
ATOM     20  C   UNL     1       1.306   2.664  21.283  0.00  0.00    +0.000 C 
ATOM     21  C   UNL     1       1.151   3.037  20.000  0.00  0.00    +0.000 C 
ATOM     22  C   UNL     1       0.721   2.033  18.958  0.00  0.00    +0.000 C 
ENDBRANCH  14  21
ENDBRANCH  13  17
ENDBRANCH   1  13
BRANCH   9  23
ATOM     23  C   UNL     1       0.282  15.240  21.456  0.00  0.00    +0.000 C 
BRANCH  23  24
ATOM     24  C   UNL     1       0.662  16.251  20.422  0.00  0.00    +0.000 A 
ATOM     25  C   UNL     1      -0.300  16.828  19.590  0.00  0.00    +0.000 A 
ATOM     26  C   UNL     1       0.095  17.674  18.562  0.00  0.00    +0.000 A 
ATOM     27  C   UNL     1       1.447  17.943  18.421  0.00  0.00    +0.000 A 
ATOM     28  N   UNL     1       2.400  17.449  19.241  0.00  0.00    +0.000 NA
ATOM     29  C   UNL     1       1.990  16.607  20.215  0.00  0.00    +0.000 A 
ENDBRANCH  23  24
ENDBRANCH   9  23
BRANCH  12  30
ATOM     30  C   UNL     1      -1.633  11.990  18.441  0.00  0.00    +0.000 C 
BRANCH  30  31
ATOM     31  C   UNL     1      -2.907  11.173  18.680  0.00  0.00    +0.000 C 
BRANCH  31  32
ATOM     32  C   UNL     1      -4.281  11.772  18.500  0.00  0.00    +0.000 A 
ATOM     33  C   UNL     1      -4.910  11.861  17.255  0.00  0.00    +0.000 A 
ATOM     34  C   UNL     1      -6.213  12.365  17.152  0.00  0.00    +0.000 A 
ATOM     35  C   UNL     1      -6.906  12.771  18.292  0.00  0.00    +0.000 A 
ATOM     36  C   UNL     1      -6.309  12.651  19.542  0.00  0.00    +0.000 A 
ATOM     37  C   UNL     1      -5.011  12.146  19.644  0.00  0.00    +0.000 A 
ENDBRANCH  31  32
ENDBRANCH  30  31
ENDBRANCH  12  30
TORSDOF 8
ENDMDL
MODEL 8
REMARK VINA RESULT:      -7.5      2.343      4.751
REMARK  Name = 
REMARK  9 active torsions:
REMARK  status: ('A' for Active; 'I' for Inactive)
REMARK    1  A    between atoms: C_2  and  C_3
REMARK    2  A    between atoms: C_2  and  C_4
REMARK    3  A    between atoms: C_7  and  C_8
REMARK    4  A    between atoms: C_8  and  N_9
REMARK    5  A    between atoms: N_17  and  C_18
REMARK    6  A    between atoms: C_18  and  C_19
REMARK    7  A    between atoms: N_27  and  C_28
REMARK    8  A    between atoms: C_28  and  C_29
REMARK    9  A    between atoms: C_29  and  C_30
REMARK                            x       y       z     vdW  Elec       q    Type
REMARK                         _______ _______ _______ _____ _____    ______ ____
ROOT
ATOM      1  N   UNL     1       1.714   7.935  20.158  0.00  0.00    +0.000 NA
ATOM      2  C   UNL     1       2.116   8.599  18.935  0.00  0.00    +0.000 C 
ATOM      3  C   UNL     1       0.993   9.230  18.144  0.00  0.00    +0.000 C 
ATOM      4  C   UNL     1       0.034  10.046  19.010  0.00  0.00    +0.000 C 
ATOM      5  C   UNL     1      -0.384   9.359  20.317  0.00  0.00    +0.000 C 
ATOM      6  C   UNL     1       0.701   8.536  21.003  0.00  0.00    +0.000 C 
ATOM      7  C   UNL     1      -1.284  10.204  18.212  0.00  0.00    +0.000 C 
ATOM      8  O   UNL     1      -2.020   9.284  17.893  0.00  0.00    +0.000 OA
ATOM      9  N   UNL     1      -1.519  11.523  17.976  0.00  0.00    +0.000 N 
ATOM     10  C   UNL     1      -0.503  12.285  18.442  0.00  0.00    +0.000 C 
ATOM     11  O   UNL     1      -0.443  13.507  18.368  0.00  0.00    +0.000 OA
ATOM     12  N   UNL     1       0.416  11.470  19.109  0.00  0.00    +0.000 N 
ENDROOT
BRANCH   1  13
ATOM     13  C   UNL     1       1.823   6.480  20.155  0.00  0.00    +0.000 C 
BRANCH  13  17
ATOM     14  C   UNL     1       4.863   5.374  17.122  0.00  0.00    +0.000 C 
ATOM     15  C   UNL     1       5.312   5.578  18.592  0.00  0.00    +0.000 C 
ATOM     16  C   UNL     1       4.235   6.146  19.482  0.00  0.00    +0.000 C 
ATOM     17  C   UNL     1       2.924   5.998  19.217  0.00  0.00    +0.000 C 
ATOM     18  C   UNL     1       2.462   5.247  17.991  0.00  0.00    +0.000 C 
ATOM     19  C   UNL     1       3.534   4.620  17.106  0.00  0.00    +0.000 C 
BRANCH  14  21
ATOM     20  C   UNL     1       5.473   4.135  15.001  0.00  0.00    +0.000 C 
ATOM     21  C   UNL     1       5.818   4.593  16.217  0.00  0.00    +0.000 C 
ATOM     22  C   UNL     1       7.238   4.457  16.711  0.00  0.00    +0.000 C 
ENDBRANCH  14  21
ENDBRANCH  13  17
ENDBRANCH   1  13
BRANCH   9  23
ATOM     23  C   UNL     1      -2.800  12.043  17.541  0.00  0.00    +0.000 C 
BRANCH  23  24
ATOM     24  C   UNL     1      -3.824  12.074  18.630  0.00  0.00    +0.000 A 
ATOM     25  C   UNL     1      -3.562  12.710  19.847  0.00  0.00    +0.000 A 
ATOM     26  C   UNL     1      -4.484  12.622  20.883  0.00  0.00    +0.000 A 
ATOM     27  C   UNL     1      -5.659  11.924  20.654  0.00  0.00    +0.000 A 
ATOM     28  N   UNL     1      -5.970  11.344  19.474  0.00  0.00    +0.000 NA
ATOM     29  C   UNL     1      -5.043  11.422  18.493  0.00  0.00    +0.000 A 
ENDBRANCH  23  24
ENDBRANCH   9  23
BRANCH  12  30
ATOM     30  C   UNL     1       1.270  12.062  20.139  0.00  0.00    +0.000 C 
BRANCH  30  31
ATOM     31  C   UNL     1       0.728  13.223  20.980  0.00  0.00    +0.000 C 
BRANCH  31  32
ATOM     32  C   UNL     1      -0.441  13.045  21.919  0.00  0.00    +0.000 A 
ATOM     33  C   UNL     1      -0.831  11.798  22.413  0.00  0.00    +0.000 A 
ATOM     34  C   UNL     1      -1.882  11.695  23.334  0.00  0.00    +0.000 A 
ATOM     35  C   UNL     1      -2.545  12.838  23.781  0.00  0.00    +0.000 A 
ATOM     36  C   UNL     1      -2.142  14.090  23.328  0.00  0.00    +0.000 A 
ATOM     37  C   UNL     1      -1.092  14.191  22.413  0.00  0.00    +0.000 A 
ENDBRANCH  31  32
ENDBRANCH  30  31
ENDBRANCH  12  30
TORSDOF 8
ENDMDL
MODEL 9
REMARK VINA RESULT:      -7.4      2.764      4.400
REMARK  Name = 
REMARK  9 active torsions:
REMARK  status: ('A' for Active; 'I' for Inactive)
REMARK    1  A    between atoms: C_2  and  C_3
REMARK    2  A    between atoms: C_2  and  C_4
REMARK    3  A    between atoms: C_7  and  C_8
REMARK    4  A    between atoms: C_8  and  N_9
REMARK    5  A    between atoms: N_17  and  C_18
REMARK    6  A    between atoms: C_18  and  C_19
REMARK    7  A    between atoms: N_27  and  C_28
REMARK    8  A    between atoms: C_28  and  C_29
REMARK    9  A    between atoms: C_29  and  C_30
REMARK                            x       y       z     vdW  Elec       q    Type
REMARK                         _______ _______ _______ _____ _____    ______ ____
ROOT
ATOM      1  N   UNL     1       0.601   9.226  20.394  0.00  0.00    +0.000 NA
ATOM      2  C   UNL     1      -0.353   9.971  21.190  0.00  0.00    +0.000 C 
ATOM      3  C   UNL     1       0.044  11.395  21.506  0.00  0.00    +0.000 C 
ATOM      4  C   UNL     1       0.569  12.156  20.290  0.00  0.00    +0.000 C 
ATOM      5  C   UNL     1       1.567  11.368  19.430  0.00  0.00    +0.000 C 
ATOM      6  C   UNL     1       1.283   9.877  19.293  0.00  0.00    +0.000 C 
ATOM      7  C   UNL     1       1.379  13.366  20.820  0.00  0.00    +0.000 C 
ATOM      8  O   UNL     1       2.405  13.284  21.476  0.00  0.00    +0.000 OA
ATOM      9  N   UNL     1       0.804  14.522  20.392  0.00  0.00    +0.000 N 
ATOM     10  C   UNL     1      -0.331  14.269  19.701  0.00  0.00    +0.000 C 
ATOM     11  O   UNL     1      -1.057  15.119  19.199  0.00  0.00    +0.000 OA
ATOM     12  N   UNL     1      -0.490  12.888  19.564  0.00  0.00    +0.000 N 
ENDROOT
BRANCH   1  13
ATOM     13  C   UNL     1       1.300   8.149  21.085  0.00  0.00    +0.000 C 
BRANCH  13  17
ATOM     14  C   UNL     1       2.364   4.978  18.172  0.00  0.00    +0.000 C 
ATOM     15  C   UNL     1       3.107   6.337  18.104  0.00  0.00    +0.000 C 
ATOM     16  C   UNL     1       2.522   7.395  19.005  0.00  0.00    +0.000 C 
ATOM     17  C   UNL     1       1.816   7.095  20.111  0.00  0.00    +0.000 C 
ATOM     18  C   UNL     1       1.569   5.657  20.505  0.00  0.00    +0.000 C 
ATOM     19  C   UNL     1       2.197   4.574  19.636  0.00  0.00    +0.000 C 
BRANCH  14  21
ATOM     20  C   UNL     1       4.162   3.909  16.747  0.00  0.00    +0.000 C 
ATOM     21  C   UNL     1       3.032   3.796  17.467  0.00  0.00    +0.000 C 
ATOM     22  C   UNL     1       2.418   2.440  17.718  0.00  0.00    +0.000 C 
ENDBRANCH  14  21
ENDBRANCH  13  17
ENDBRANCH   1  13
BRANCH   9  23
ATOM     23  C   UNL     1       1.467  15.810  20.435  0.00  0.00    +0.000 C 
BRANCH  23  24
ATOM     24  C   UNL     1       2.701  15.866  19.593  0.00  0.00    +0.000 A 
ATOM     25  C   UNL     1       2.645  15.639  18.216  0.00  0.00    +0.000 A 
ATOM     26  C   UNL     1       3.821  15.579  17.478  0.00  0.00    +0.000 A 
ATOM     27  C   UNL     1       5.019  15.785  18.143  0.00  0.00    +0.000 A 
ATOM     28  N   UNL     1       5.108  16.063  19.461  0.00  0.00    +0.000 NA
ATOM     29  C   UNL     1       3.951  16.087  20.159  0.00  0.00    +0.000 A 
ENDBRANCH  23  24
ENDBRANCH   9  23
BRANCH  12  30
ATOM     30  C   UNL     1      -1.278  12.373  18.445  0.00  0.00    +0.000 C 
BRANCH  30  31
ATOM     31  C   UNL     1      -2.530  11.537  18.738  0.00  0.00    +0.000 C 
BRANCH  31  32
ATOM     32  C   UNL     1      -3.743  12.132  19.411  0.00  0.00    +0.000 A 
ATOM     33  C   UNL     1      -3.667  12.863  20.599  0.00  0.00    +0.000 A 
ATOM     34  C   UNL     1      -4.814  13.451  21.147  0.00  0.00    +0.000 A 
ATOM     35  C   UNL     1      -6.047  13.326  20.506  0.00  0.00    +0.000 A 
ATOM     36  C   UNL     1      -6.131  12.635  19.302  0.00  0.00    +0.000 A 
ATOM     37  C   UNL     1      -4.986  12.053  18.755  0.00  0.00    +0.000 A 
ENDBRANCH  31  32
ENDBRANCH  30  31
ENDBRANCH  12  30
TORSDOF 8
ENDMDL
