MODEL 1
REMARK VINA RESULT:      -6.1      0.000      0.000
REMARK  Name = 
REMARK  10 active torsions:
REMARK  status: ('A' for Active; 'I' for Inactive)
REMARK    1  A    between atoms: C_2  and  C_3
REMARK    2  A    between atoms: C_2  and  C_16
REMARK    3  A    between atoms: C_3  and  O_4
REMARK    4  A    between atoms: O_4  and  C_5
REMARK    5  A    between atoms: C_5  and  C_7
REMARK    6  A    between atoms: C_10  and  N_11
REMARK    7  A    between atoms: N_11  and  C_12
REMARK    8  A    between atoms: N_11  and  C_13
REMARK    9  A    between atoms: C_16  and  O_18
REMARK   10  A    between atoms: O_18  and  C_19
REMARK                            x       y       z     vdW  Elec       q    Type
REMARK                         _______ _______ _______ _____ _____    ______ ____
ROOT
ATOM      1  C   UNL     1       5.179   4.521  18.998  0.00  0.00    +0.000 C 
ATOM      2  O   UNL     1       4.654   5.473  19.557  0.00  0.00    +0.000 OA
ENDROOT
BRANCH   1   3
ATOM      3  C   UNL     1       5.650   4.574  17.585  0.00  0.00    +0.000 A 
ATOM      4  C   UNL     1       4.713   4.384  16.568  0.00  0.00    +0.000 A 
ATOM      5  C   UNL     1       5.108   4.385  15.221  0.00  0.00    +0.000 A 
ATOM      6  C   UNL     1       6.442   4.581  14.825  0.00  0.00    +0.000 A 
ATOM      7  C   UNL     1       7.361   4.787  15.869  0.00  0.00    +0.000 A 
ATOM      8  C   UNL     1       6.982   4.783  17.226  0.00  0.00    +0.000 A 
BRANCH   6   9
ATOM      9  N   UNL     1       6.820   4.522  13.492  0.00  0.00    +0.000 N 
ATOM     10  C   UNL     1       7.989   5.242  12.988  0.00  0.00    +0.000 C 
ATOM     11  C   UNL     1       6.271   3.539  12.563  0.00  0.00    +0.000 C 
ENDBRANCH   6   9
ENDBRANCH   1   3
BRANCH   1  12
ATOM     12  O   UNL     1       5.399   3.302  19.546  0.00  0.00    +0.000 OA
BRANCH  12  13
ATOM     13  C   UNL     1       4.262   2.654  20.158  0.00  0.00    +0.000 C 
BRANCH  13  15
ATOM     14  C   UNL     1       3.649   1.150  18.214  0.00  0.00    +0.000 C 
ATOM     15  C   UNL     1       3.328   2.100  19.113  0.00  0.00    +0.000 C 
BRANCH  15  16
ATOM     16  C   UNL     1       1.941   2.642  19.044  0.00  0.00    +0.000 C 
ATOM     17  O   UNL     1       1.336   2.844  17.997  0.00  0.00    +0.000 OA
BRANCH  16  18
ATOM     18  O   UNL     1       1.442   2.874  20.284  0.00  0.00    +0.000 OA
ATOM     19  C   UNL     1       0.934   4.201  20.453  0.00  0.00    +0.000 C 
ENDBRANCH  16  18
ENDBRANCH  15  16
ENDBRANCH  13  15
ENDBRANCH  12  13
ENDBRANCH   1  12
TORSDOF 7
ENDMDL
MODEL 2
REMARK VINA RESULT:      -6.1      3.943      6.847
REMARK  Name = 
REMARK  10 active torsions:
REMARK  status: ('A' for Active; 'I' for Inactive)
REMARK    1  A    between atoms: C_2  and  C_3
REMARK    2  A    between atoms: C_2  and  C_16
REMARK    3  A    between atoms: C_3  and  O_4
REMARK    4  A    between atoms: O_4  and  C_5
REMARK    5  A    between atoms: C_5  and  C_7
REMARK    6  A    between atoms: C_10  and  N_11
REMARK    7  A    between atoms: N_11  and  C_12
REMARK    8  A    between atoms: N_11  and  C_13
REMARK    9  A    between atoms: C_16  and  O_18
REMARK   10  A    between atoms: O_18  and  C_19
REMARK                            x       y       z     vdW  Elec       q    Type
REMARK                         _______ _______ _______ _____ _____    ______ ____
ROOT
ATOM      1  C   UNL     1       6.816   4.575  15.119  0.00  0.00    +0.000 C 
ATOM      2  O   UNL     1       7.674   5.436  14.989  0.00  0.00    +0.000 OA
ENDROOT
BRANCH   1   3
ATOM      3  C   UNL     1       5.989   4.438  16.351  0.00  0.00    +0.000 A 
ATOM      4  C   UNL     1       4.620   4.207  16.206  0.00  0.00    +0.000 A 
ATOM      5  C   UNL     1       3.788   4.110  17.333  0.00  0.00    +0.000 A 
ATOM      6  C   UNL     1       4.275   4.229  18.645  0.00  0.00    +0.000 A 
ATOM      7  C   UNL     1       5.660   4.445  18.761  0.00  0.00    +0.000 A 
ATOM      8  C   UNL     1       6.508   4.552  17.641  0.00  0.00    +0.000 A 
BRANCH   6   9
ATOM      9  N   UNL     1       3.427   4.187  19.741  0.00  0.00    +0.000 N 
ATOM     10  C   UNL     1       2.567   5.315  20.096  0.00  0.00    +0.000 C 
ATOM     11  C   UNL     1       3.114   2.947  20.445  0.00  0.00    +0.000 C 
ENDBRANCH   6   9
ENDBRANCH   1   3
BRANCH   1  12
ATOM     12  O   UNL     1       6.497   3.629  14.203  0.00  0.00    +0.000 OA
BRANCH  12  13
ATOM     13  C   UNL     1       6.514   4.038  12.817  0.00  0.00    +0.000 C 
BRANCH  13  15
ATOM     14  C   UNL     1       4.403   3.193  11.703  0.00  0.00    +0.000 C 
ATOM     15  C   UNL     1       5.721   3.086  11.962  0.00  0.00    +0.000 C 
BRANCH  15  16
ATOM     16  C   UNL     1       6.425   1.920  11.357  0.00  0.00    +0.000 C 
ATOM     17  O   UNL     1       7.612   1.920  11.050  0.00  0.00    +0.000 OA
BRANCH  16  18
ATOM     18  O   UNL     1       5.585   0.867  11.199  0.00  0.00    +0.000 OA
ATOM     19  C   UNL     1       6.239  -0.402  11.299  0.00  0.00    +0.000 C 
ENDBRANCH  16  18
ENDBRANCH  15  16
ENDBRANCH  13  15
ENDBRANCH  12  13
ENDBRANCH   1  12
TORSDOF 7
ENDMDL
MODEL 3
REMARK VINA RESULT:      -6.0      4.554      6.920
REMARK  Name = 
REMARK  10 active torsions:
REMARK  status: ('A' for Active; 'I' for Inactive)
REMARK    1  A    between atoms: C_2  and  C_3
REMARK    2  A    between atoms: C_2  and  C_16
REMARK    3  A    between atoms: C_3  and  O_4
REMARK    4  A    between atoms: O_4  and  C_5
REMARK    5  A    between atoms: C_5  and  C_7
REMARK    6  A    between atoms: C_10  and  N_11
REMARK    7  A    between atoms: N_11  and  C_12
REMARK    8  A    between atoms: N_11  and  C_13
REMARK    9  A    between atoms: C_16  and  O_18
REMARK   10  A    between atoms: O_18  and  C_19
REMARK                            x       y       z     vdW  Elec       q    Type
REMARK                         _______ _______ _______ _____ _____    ______ ____
ROOT
ATOM      1  C   UNL     1       3.262   5.769  18.865  0.00  0.00    +0.000 C 
ATOM      2  O   UNL     1       3.846   5.276  19.819  0.00  0.00    +0.000 OA
ENDROOT
BRANCH   1   3
ATOM      3  C   UNL     1       2.540   7.071  18.946  0.00  0.00    +0.000 A 
ATOM      4  C   UNL     1       1.988   7.445  20.171  0.00  0.00    +0.000 A 
ATOM      5  C   UNL     1       1.264   8.642  20.294  0.00  0.00    +0.000 A 
ATOM      6  C   UNL     1       1.065   9.519  19.215  0.00  0.00    +0.000 A 
ATOM      7  C   UNL     1       1.648   9.125  17.997  0.00  0.00    +0.000 A 
ATOM      8  C   UNL     1       2.370   7.924  17.855  0.00  0.00    +0.000 A 
BRANCH   6   9
ATOM      9  N   UNL     1       0.300  10.668  19.345  0.00  0.00    +0.000 N 
ATOM     10  C   UNL     1       0.727  11.790  20.180  0.00  0.00    +0.000 C 
ATOM     11  C   UNL     1      -0.824  10.967  18.462  0.00  0.00    +0.000 C 
ENDBRANCH   6   9
ENDBRANCH   1   3
BRANCH   1  12
ATOM     12  O   UNL     1       3.165   5.227  17.627  0.00  0.00    +0.000 OA
BRANCH  12  13
ATOM     13  C   UNL     1       4.230   4.336  17.226  0.00  0.00    +0.000 C 
BRANCH  13  15
ATOM     14  C   UNL     1       5.308   6.131  15.801  0.00  0.00    +0.000 C 
ATOM     15  C   UNL     1       5.399   5.107  16.672  0.00  0.00    +0.000 C 
BRANCH  15  16
ATOM     16  C   UNL     1       6.773   4.714  17.096  0.00  0.00    +0.000 C 
ATOM     17  O   UNL     1       7.713   4.568  16.323  0.00  0.00    +0.000 OA
BRANCH  16  18
ATOM     18  O   UNL     1       6.843   4.548  18.440  0.00  0.00    +0.000 OA
ATOM     19  C   UNL     1       7.385   5.681  19.126  0.00  0.00    +0.000 C 
ENDBRANCH  16  18
ENDBRANCH  15  16
ENDBRANCH  13  15
ENDBRANCH  12  13
ENDBRANCH   1  12
TORSDOF 7
ENDMDL
MODEL 4
REMARK VINA RESULT:      -6.0      0.959      1.971
REMARK  Name = 
REMARK  10 active torsions:
REMARK  status: ('A' for Active; 'I' for Inactive)
REMARK    1  A    between atoms: C_2  and  C_3
REMARK    2  A    between atoms: C_2  and  C_16
REMARK    3  A    between atoms: C_3  and  O_4
REMARK    4  A    between atoms: O_4  and  C_5
REMARK    5  A    between atoms: C_5  and  C_7
REMARK    6  A    between atoms: C_10  and  N_11
REMARK    7  A    between atoms: N_11  and  C_12
REMARK    8  A    between atoms: N_11  and  C_13
REMARK    9  A    between atoms: C_16  and  O_18
REMARK   10  A    between atoms: O_18  and  C_19
REMARK                            x       y       z     vdW  Elec       q    Type
REMARK                         _______ _______ _______ _____ _____    ______ ____
ROOT
ATOM      1  C   UNL     1       5.105   4.339  18.961  0.00  0.00    +0.000 C 
ATOM      2  O   UNL     1       5.191   3.313  19.619  0.00  0.00    +0.000 OA
ENDROOT
BRANCH   1   3
ATOM      3  C   UNL     1       5.595   4.440  17.556  0.00  0.00    +0.000 A 
ATOM      4  C   UNL     1       4.691   4.190  16.522  0.00  0.00    +0.000 A 
ATOM      5  C   UNL     1       5.108   4.232  15.182  0.00  0.00    +0.000 A 
ATOM      6  C   UNL     1       6.429   4.532  14.811  0.00  0.00    +0.000 A 
ATOM      7  C   UNL     1       7.313   4.796  15.872  0.00  0.00    +0.000 A 
ATOM      8  C   UNL     1       6.913   4.751  17.222  0.00  0.00    +0.000 A 
BRANCH   6   9
ATOM      9  N   UNL     1       6.832   4.513  13.484  0.00  0.00    +0.000 N 
ATOM     10  C   UNL     1       7.964   5.309  13.010  0.00  0.00    +0.000 C 
ATOM     11  C   UNL     1       6.360   3.510  12.534  0.00  0.00    +0.000 C 
ENDBRANCH   6   9
ENDBRANCH   1   3
BRANCH   1  12
ATOM     12  O   UNL     1       4.584   5.514  19.387  0.00  0.00    +0.000 OA
BRANCH  12  13
ATOM     13  C   UNL     1       3.278   5.865  18.877  0.00  0.00    +0.000 C 
BRANCH  13  15
ATOM     14  C   UNL     1       1.853   4.901  20.735  0.00  0.00    +0.000 C 
ATOM     15  C   UNL     1       2.216   4.957  19.439  0.00  0.00    +0.000 C 
BRANCH  15  16
ATOM     16  C   UNL     1       1.509   4.031  18.509  0.00  0.00    +0.000 C 
ATOM     17  O   UNL     1       1.181   4.327  17.366  0.00  0.00    +0.000 OA
BRANCH  16  18
ATOM     18  O   UNL     1       1.284   2.827  19.093  0.00  0.00    +0.000 OA
ATOM     19  C   UNL     1       2.176   1.802  18.643  0.00  0.00    +0.000 C 
ENDBRANCH  16  18
ENDBRANCH  15  16
ENDBRANCH  13  15
ENDBRANCH  12  13
ENDBRANCH   1  12
TORSDOF 7
ENDMDL
MODEL 5
REMARK VINA RESULT:      -6.0      1.289      1.973
REMARK  Name = 
REMARK  10 active torsions:
REMARK  status: ('A' for Active; 'I' for Inactive)
REMARK    1  A    between atoms: C_2  and  C_3
REMARK    2  A    between atoms: C_2  and  C_16
REMARK    3  A    between atoms: C_3  and  O_4
REMARK    4  A    between atoms: O_4  and  C_5
REMARK    5  A    between atoms: C_5  and  C_7
REMARK    6  A    between atoms: C_10  and  N_11
REMARK    7  A    between atoms: N_11  and  C_12
REMARK    8  A    between atoms: N_11  and  C_13
REMARK    9  A    between atoms: C_16  and  O_18
REMARK   10  A    between atoms: O_18  and  C_19
REMARK                            x       y       z     vdW  Elec       q    Type
REMARK                         _______ _______ _______ _____ _____    ______ ____
ROOT
ATOM      1  C   UNL     1       5.841   4.697  18.969  0.00  0.00    +0.000 C 
ATOM      2  O   UNL     1       6.601   5.231  19.764  0.00  0.00    +0.000 OA
ENDROOT
BRANCH   1   3
ATOM      3  C   UNL     1       6.093   4.678  17.500  0.00  0.00    +0.000 A 
ATOM      4  C   UNL     1       5.085   4.195  16.664  0.00  0.00    +0.000 A 
ATOM      5  C   UNL     1       5.283   4.117  15.276  0.00  0.00    +0.000 A 
ATOM      6  C   UNL     1       6.480   4.520  14.660  0.00  0.00    +0.000 A 
ATOM      7  C   UNL     1       7.470   5.018  15.525  0.00  0.00    +0.000 A 
ATOM      8  C   UNL     1       7.290   5.096  16.920  0.00  0.00    +0.000 A 
BRANCH   6   9
ATOM      9  N   UNL     1       6.675   4.382  13.294  0.00  0.00    +0.000 N 
ATOM     10  C   UNL     1       7.735   5.103  12.589  0.00  0.00    +0.000 C 
ATOM     11  C   UNL     1       6.046   3.321  12.513  0.00  0.00    +0.000 C 
ENDBRANCH   6   9
ENDBRANCH   1   3
BRANCH   1  12
ATOM     12  O   UNL     1       4.681   4.071  19.279  0.00  0.00    +0.000 OA
BRANCH  12  13
ATOM     13  C   UNL     1       3.661   4.875  19.914  0.00  0.00    +0.000 C 
BRANCH  13  15
ATOM     14  C   UNL     1       2.274   6.077  18.170  0.00  0.00    +0.000 C 
ATOM     15  C   UNL     1       2.467   5.044  19.012  0.00  0.00    +0.000 C 
BRANCH  15  16
ATOM     16  C   UNL     1       1.398   4.006  19.049  0.00  0.00    +0.000 C 
ATOM     17  O   UNL     1       0.659   3.818  20.009  0.00  0.00    +0.000 OA
BRANCH  16  18
ATOM     18  O   UNL     1       1.350   3.309  17.886  0.00  0.00    +0.000 OA
ATOM     19  C   UNL     1       2.230   2.181  17.863  0.00  0.00    +0.000 C 
ENDBRANCH  16  18
ENDBRANCH  15  16
ENDBRANCH  13  15
ENDBRANCH  12  13
ENDBRANCH   1  12
TORSDOF 7
ENDMDL
MODEL 6
REMARK VINA RESULT:      -6.0      3.789      6.681
REMARK  Name = 
REMARK  10 active torsions:
REMARK  status: ('A' for Active; 'I' for Inactive)
REMARK    1  A    between atoms: C_2  and  C_3
REMARK    2  A    between atoms: C_2  and  C_16
REMARK    3  A    between atoms: C_3  and  O_4
REMARK    4  A    between atoms: O_4  and  C_5
REMARK    5  A    between atoms: C_5  and  C_7
REMARK    6  A    between atoms: C_10  and  N_11
REMARK    7  A    between atoms: N_11  and  C_12
REMARK    8  A    between atoms: N_11  and  C_13
REMARK    9  A    between atoms: C_16  and  O_18
REMARK   10  A    between atoms: O_18  and  C_19
REMARK                            x       y       z     vdW  Elec       q    Type
REMARK                         _______ _______ _______ _____ _____    ______ ____
ROOT
ATOM      1  C   UNL     1       4.425   4.001  18.157  0.00  0.00    +0.000 C 
ATOM      2  O   UNL     1       3.982   3.150  17.400  0.00  0.00    +0.000 OA
ENDROOT
BRANCH   1   3
ATOM      3  C   UNL     1       3.607   5.144  18.654  0.00  0.00    +0.000 A 
ATOM      4  C   UNL     1       3.561   6.307  17.884  0.00  0.00    +0.000 A 
ATOM      5  C   UNL     1       2.838   7.428  18.324  0.00  0.00    +0.000 A 
ATOM      6  C   UNL     1       2.126   7.440  19.535  0.00  0.00    +0.000 A 
ATOM      7  C   UNL     1       2.176   6.249  20.280  0.00  0.00    +0.000 A 
ATOM      8  C   UNL     1       2.902   5.119  19.857  0.00  0.00    +0.000 A 
BRANCH   6   9
ATOM      9  N   UNL     1       1.465   8.576  19.976  0.00  0.00    +0.000 N 
ATOM     10  C   UNL     1       1.062   9.641  19.059  0.00  0.00    +0.000 C 
ATOM     11  C   UNL     1       0.877   8.675  21.309  0.00  0.00    +0.000 C 
ENDBRANCH   6   9
ENDBRANCH   1   3
BRANCH   1  12
ATOM     12  O   UNL     1       5.689   4.053  18.641  0.00  0.00    +0.000 OA
BRANCH  12  13
ATOM     13  C   UNL     1       6.691   4.626  17.771  0.00  0.00    +0.000 C 
BRANCH  13  15
ATOM     14  C   UNL     1       8.021   5.665  19.659  0.00  0.00    +0.000 C 
ATOM     15  C   UNL     1       7.422   5.751  18.455  0.00  0.00    +0.000 C 
BRANCH  15  16
ATOM     16  C   UNL     1       7.489   7.074  17.771  0.00  0.00    +0.000 C 
ATOM     17  O   UNL     1       6.840   7.362  16.772  0.00  0.00    +0.000 OA
BRANCH  16  18
ATOM     18  O   UNL     1       8.352   7.909  18.401  0.00  0.00    +0.000 OA
ATOM     19  C   UNL     1       8.245   9.269  17.969  0.00  0.00    +0.000 C 
ENDBRANCH  16  18
ENDBRANCH  15  16
ENDBRANCH  13  15
ENDBRANCH  12  13
ENDBRANCH   1  12
TORSDOF 7
ENDMDL
MODEL 7
REMARK VINA RESULT:      -5.9      3.704      6.613
REMARK  Name = 
REMARK  10 active torsions:
REMARK  status: ('A' for Active; 'I' for Inactive)
REMARK    1  A    between atoms: C_2  and  C_3
REMARK    2  A    between atoms: C_2  and  C_16
REMARK    3  A    between atoms: C_3  and  O_4
REMARK    4  A    between atoms: O_4  and  C_5
REMARK    5  A    between atoms: C_5  and  C_7
REMARK    6  A    between atoms: C_10  and  N_11
REMARK    7  A    between atoms: N_11  and  C_12
REMARK    8  A    between atoms: N_11  and  C_13
REMARK    9  A    between atoms: C_16  and  O_18
REMARK   10  A    between atoms: O_18  and  C_19
REMARK                            x       y       z     vdW  Elec       q    Type
REMARK                         _______ _______ _______ _____ _____    ______ ____
ROOT
ATOM      1  C   UNL     1       3.620   3.998  18.417  0.00  0.00    +0.000 C 
ATOM      2  O   UNL     1       3.924   3.104  19.194  0.00  0.00    +0.000 OA
ENDROOT
BRANCH   1   3
ATOM      3  C   UNL     1       3.054   5.302  18.867  0.00  0.00    +0.000 A 
ATOM      4  C   UNL     1       2.440   5.358  20.119  0.00  0.00    +0.000 A 
ATOM      5  C   UNL     1       1.855   6.550  20.576  0.00  0.00    +0.000 A 
ATOM      6  C   UNL     1       1.862   7.733  19.819  0.00  0.00    +0.000 A 
ATOM      7  C   UNL     1       2.503   7.651  18.570  0.00  0.00    +0.000 A 
ATOM      8  C   UNL     1       3.088   6.462  18.094  0.00  0.00    +0.000 A 
BRANCH   6   9
ATOM      9  N   UNL     1       1.230   8.884  20.265  0.00  0.00    +0.000 N 
ATOM     10  C   UNL     1       0.624   9.840  19.339  0.00  0.00    +0.000 C 
ATOM     11  C   UNL     1       0.873   9.092  21.665  0.00  0.00    +0.000 C 
ENDBRANCH   6   9
ENDBRANCH   1   3
BRANCH   1  12
ATOM     12  O   UNL     1       3.731   3.948  17.068  0.00  0.00    +0.000 OA
BRANCH  12  13
ATOM     13  C   UNL     1       5.033   3.609  16.538  0.00  0.00    +0.000 C 
BRANCH  13  15
ATOM     14  C   UNL     1       5.516   5.686  15.173  0.00  0.00    +0.000 C 
ATOM     15  C   UNL     1       5.813   4.848  16.185  0.00  0.00    +0.000 C 
BRANCH  15  16
ATOM     16  C   UNL     1       7.017   5.183  16.996  0.00  0.00    +0.000 C 
ATOM     17  O   UNL     1       7.457   4.476  17.895  0.00  0.00    +0.000 OA
BRANCH  16  18
ATOM     18  O   UNL     1       7.559   6.364  16.604  0.00  0.00    +0.000 OA
ATOM     19  C   UNL     1       7.617   7.338  17.651  0.00  0.00    +0.000 C 
ENDBRANCH  16  18
ENDBRANCH  15  16
ENDBRANCH  13  15
ENDBRANCH  12  13
ENDBRANCH   1  12
TORSDOF 7
ENDMDL
MODEL 8
REMARK VINA RESULT:      -5.9      4.340      6.825
REMARK  Name = 
REMARK  10 active torsions:
REMARK  status: ('A' for Active; 'I' for Inactive)
REMARK    1  A    between atoms: C_2  and  C_3
REMARK    2  A    between atoms: C_2  and  C_16
REMARK    3  A    between atoms: C_3  and  O_4
REMARK    4  A    between atoms: O_4  and  C_5
REMARK    5  A    between atoms: C_5  and  C_7
REMARK    6  A    between atoms: C_10  and  N_11
REMARK    7  A    between atoms: N_11  and  C_12
REMARK    8  A    between atoms: N_11  and  C_13
REMARK    9  A    between atoms: C_16  and  O_18
REMARK   10  A    between atoms: O_18  and  C_19
REMARK                            x       y       z     vdW  Elec       q    Type
REMARK                         _______ _______ _______ _____ _____    ______ ____
ROOT
ATOM      1  C   UNL     1       3.670   5.366  18.734  0.00  0.00    +0.000 C 
ATOM      2  O   UNL     1       4.150   4.798  19.703  0.00  0.00    +0.000 OA
ENDROOT
BRANCH   1   3
ATOM      3  C   UNL     1       2.892   6.633  18.845  0.00  0.00    +0.000 A 
ATOM      4  C   UNL     1       2.849   7.482  17.738  0.00  0.00    +0.000 A 
ATOM      5  C   UNL     1       2.165   8.706  17.800  0.00  0.00    +0.000 A 
ATOM      6  C   UNL     1       1.489   9.136  18.954  0.00  0.00    +0.000 A 
ATOM      7  C   UNL     1       1.535   8.253  20.048  0.00  0.00    +0.000 A 
ATOM      8  C   UNL     1       2.223   7.025  20.005  0.00  0.00    +0.000 A 
BRANCH   6   9
ATOM      9  N   UNL     1       0.867  10.374  19.013  0.00  0.00    +0.000 N 
ATOM     10  C   UNL     1      -0.455  10.546  19.614  0.00  0.00    +0.000 C 
ATOM     11  C   UNL     1       1.575  11.622  18.747  0.00  0.00    +0.000 C 
ENDBRANCH   6   9
ENDBRANCH   1   3
BRANCH   1  12
ATOM     12  O   UNL     1       3.749   4.948  17.448  0.00  0.00    +0.000 OA
BRANCH  12  13
ATOM     13  C   UNL     1       4.896   4.140  17.101  0.00  0.00    +0.000 C 
BRANCH  13  15
ATOM     14  C   UNL     1       5.558   5.311  14.956  0.00  0.00    +0.000 C 
ATOM     15  C   UNL     1       5.841   4.898  16.207  0.00  0.00    +0.000 C 
BRANCH  15  16
ATOM     16  C   UNL     1       7.204   5.215  16.720  0.00  0.00    +0.000 C 
ATOM     17  O   UNL     1       7.909   4.420  17.331  0.00  0.00    +0.000 OA
BRANCH  16  18
ATOM     18  O   UNL     1       7.557   6.490  16.419  0.00  0.00    +0.000 OA
ATOM     19  C   UNL     1       7.530   7.370  17.547  0.00  0.00    +0.000 C 
ENDBRANCH  16  18
ENDBRANCH  15  16
ENDBRANCH  13  15
ENDBRANCH  12  13
ENDBRANCH   1  12
TORSDOF 7
ENDMDL
MODEL 9
REMARK VINA RESULT:      -5.9      1.173      1.471
REMARK  Name = 
REMARK  10 active torsions:
REMARK  status: ('A' for Active; 'I' for Inactive)
REMARK    1  A    between atoms: C_2  and  C_3
REMARK    2  A    between atoms: C_2  and  C_16
REMARK    3  A    between atoms: C_3  and  O_4
REMARK    4  A    between atoms: O_4  and  C_5
REMARK    5  A    between atoms: C_5  and  C_7
REMARK    6  A    between atoms: C_10  and  N_11
REMARK    7  A    between atoms: N_11  and  C_12
REMARK    8  A    between atoms: N_11  and  C_13
REMARK    9  A    between atoms: C_16  and  O_18
REMARK   10  A    between atoms: O_18  and  C_19
REMARK                            x       y       z     vdW  Elec       q    Type
REMARK                         _______ _______ _______ _____ _____    ______ ____
ROOT
ATOM      1  C   UNL     1       5.547   5.009  18.945  0.00  0.00    +0.000 C 
ATOM      2  O   UNL     1       6.292   5.469  19.797  0.00  0.00    +0.000 OA
ENDROOT
BRANCH   1   3
ATOM      3  C   UNL     1       5.924   4.921  17.505  0.00  0.00    +0.000 A 
ATOM      4  C   UNL     1       4.932   5.138  16.548  0.00  0.00    +0.000 A 
ATOM      5  C   UNL     1       5.222   5.029  15.178  0.00  0.00    +0.000 A 
ATOM      6  C   UNL     1       6.504   4.709  14.701  0.00  0.00    +0.000 A 
ATOM      7  C   UNL     1       7.487   4.512  15.687  0.00  0.00    +0.000 A 
ATOM      8  C   UNL     1       7.211   4.611  17.065  0.00  0.00    +0.000 A 
BRANCH   6   9
ATOM      9  N   UNL     1       6.756   4.551  13.347  0.00  0.00    +0.000 N 
ATOM     10  C   UNL     1       7.838   5.268  12.673  0.00  0.00    +0.000 C 
ATOM     11  C   UNL     1       6.166   3.472  12.559  0.00  0.00    +0.000 C 
ENDBRANCH   6   9
ENDBRANCH   1   3
BRANCH   1  12
ATOM     12  O   UNL     1       4.297   4.532  19.157  0.00  0.00    +0.000 OA
BRANCH  12  13
ATOM     13  C   UNL     1       4.192   3.146  19.552  0.00  0.00    +0.000 C 
BRANCH  13  15
ATOM     14  C   UNL     1       1.992   2.020  18.997  0.00  0.00    +0.000 C 
ATOM     15  C   UNL     1       2.759   2.766  19.817  0.00  0.00    +0.000 C 
BRANCH  15  16
ATOM     16  C   UNL     1       2.116   3.253  21.070  0.00  0.00    +0.000 C 
ATOM     17  O   UNL     1       2.456   2.905  22.195  0.00  0.00    +0.000 OA
BRANCH  16  18
ATOM     18  O   UNL     1       1.116   4.129  20.799  0.00  0.00    +0.000 OA
ATOM     19  C   UNL     1       1.551   5.492  20.754  0.00  0.00    +0.000 C 
ENDBRANCH  16  18
ENDBRANCH  15  16
ENDBRANCH  13  15
ENDBRANCH  12  13
ENDBRANCH   1  12
TORSDOF 7
ENDMDL
