MODEL 1
REMARK VINA RESULT:      -6.7      0.000      0.000
REMARK  Name = 
REMARK  5 active torsions:
REMARK  status: ('A' for Active; 'I' for Inactive)
REMARK    1  A    between atoms: C_1  and  C_2
REMARK    2  A    between atoms: C_2  and  C_3
REMARK    3  A    between atoms: C_2  and  C_11
REMARK    4  A    between atoms: C_3  and  C_5
REMARK    5  A    between atoms: C_11  and  C_13
REMARK                            x       y       z     vdW  Elec       q    Type
REMARK                         _______ _______ _______ _____ _____    ______ ____
ROOT
ATOM      1  C   UNL     1       6.861   5.466  18.762  0.00  0.00    +0.000 C 
ATOM      2  C   UNL     1       6.121   4.963  17.524  0.00  0.00    +0.000 C 
ENDROOT
BRANCH   2   3
ATOM      3  C   UNL     1       4.670   5.405  17.595  0.00  0.00    +0.000 C 
ATOM      4  O   UNL     1       4.374   6.592  17.476  0.00  0.00    +0.000 OA
BRANCH   3   5
ATOM      5  C   UNL     1       3.587   4.409  17.837  0.00  0.00    +0.000 A 
ATOM      6  C   UNL     1       3.880   3.054  17.628  0.00  0.00    +0.000 A 
ATOM      7  C   UNL     1       2.911   2.076  17.862  0.00  0.00    +0.000 A 
ATOM      8  C   UNL     1       1.648   2.445  18.317  0.00  0.00    +0.000 A 
ATOM      9  C   UNL     1       1.354   3.789  18.544  0.00  0.00    +0.000 A 
ATOM     10  C   UNL     1       2.319   4.773  18.306  0.00  0.00    +0.000 A 
ENDBRANCH   3   5
ENDBRANCH   2   3
BRANCH   2  11
ATOM     11  C   UNL     1       6.769   5.466  16.238  0.00  0.00    +0.000 C 
ATOM     12  O   UNL     1       7.614   6.371  16.246  0.00  0.00    +0.000 OA
BRANCH  11  13
ATOM     13  C   UNL     1       6.387   4.710  14.971  0.00  0.00    +0.000 C 
ATOM     14  F   UNL     1       6.355   3.358  15.156  0.00  0.00    +0.000 F 
ATOM     15  F   UNL     1       5.177   5.067  14.469  0.00  0.00    +0.000 F 
ATOM     16  F   UNL     1       7.298   4.912  13.976  0.00  0.00    +0.000 F 
ENDBRANCH  11  13
ENDBRANCH   2  11
TORSDOF 4
ENDMDL
MODEL 2
REMARK VINA RESULT:      -6.6      2.343      2.773
REMARK  Name = 
REMARK  5 active torsions:
REMARK  status: ('A' for Active; 'I' for Inactive)
REMARK    1  A    between atoms: C_1  and  C_2
REMARK    2  A    between atoms: C_2  and  C_3
REMARK    3  A    between atoms: C_2  and  C_11
REMARK    4  A    between atoms: C_3  and  C_5
REMARK    5  A    between atoms: C_11  and  C_13
REMARK                            x       y       z     vdW  Elec       q    Type
REMARK                         _______ _______ _______ _____ _____    ______ ____
ROOT
ATOM      1  C   UNL     1       5.005   6.665  15.608  0.00  0.00    +0.000 C 
ATOM      2  C   UNL     1       5.470   5.874  16.829  0.00  0.00    +0.000 C 
ENDROOT
BRANCH   2   3
ATOM      3  C   UNL     1       5.060   4.421  16.670  0.00  0.00    +0.000 C 
ATOM      4  O   UNL     1       5.752   3.647  16.010  0.00  0.00    +0.000 OA
BRANCH   3   5
ATOM      5  C   UNL     1       3.801   3.917  17.289  0.00  0.00    +0.000 A 
ATOM      6  C   UNL     1       3.696   2.542  17.541  0.00  0.00    +0.000 A 
ATOM      7  C   UNL     1       2.549   2.018  18.140  0.00  0.00    +0.000 A 
ATOM      8  C   UNL     1       1.505   2.866  18.503  0.00  0.00    +0.000 A 
ATOM      9  C   UNL     1       1.609   4.237  18.270  0.00  0.00    +0.000 A 
ATOM     10  C   UNL     1       2.753   4.766  17.665  0.00  0.00    +0.000 A 
ENDBRANCH   3   5
ENDBRANCH   2   3
BRANCH   2  11
ATOM     11  C   UNL     1       6.978   5.984  17.030  0.00  0.00    +0.000 C 
ATOM     12  O   UNL     1       7.718   6.458  16.158  0.00  0.00    +0.000 OA
BRANCH  11  13
ATOM     13  C   UNL     1       7.489   5.574  18.407  0.00  0.00    +0.000 C 
ATOM     14  F   UNL     1       6.485   5.449  19.323  0.00  0.00    +0.000 F 
ATOM     15  F   UNL     1       8.170   4.400  18.407  0.00  0.00    +0.000 F 
ATOM     16  F   UNL     1       8.330   6.513  18.926  0.00  0.00    +0.000 F 
ENDBRANCH  11  13
ENDBRANCH   2  11
TORSDOF 4
ENDMDL
MODEL 3
REMARK VINA RESULT:      -6.6      0.317      1.521
REMARK  Name = 
REMARK  5 active torsions:
REMARK  status: ('A' for Active; 'I' for Inactive)
REMARK    1  A    between atoms: C_1  and  C_2
REMARK    2  A    between atoms: C_2  and  C_3
REMARK    3  A    between atoms: C_2  and  C_11
REMARK    4  A    between atoms: C_3  and  C_5
REMARK    5  A    between atoms: C_11  and  C_13
REMARK                            x       y       z     vdW  Elec       q    Type
REMARK                         _______ _______ _______ _____ _____    ______ ____
ROOT
ATOM      1  C   UNL     1       6.699   5.546  18.950  0.00  0.00    +0.000 C 
ATOM      2  C   UNL     1       6.010   5.019  17.694  0.00  0.00    +0.000 C 
ENDROOT
BRANCH   2   3
ATOM      3  C   UNL     1       4.552   5.442  17.708  0.00  0.00    +0.000 C 
ATOM      4  O   UNL     1       4.242   6.616  17.514  0.00  0.00    +0.000 OA
BRANCH   3   5
ATOM      5  C   UNL     1       3.477   4.445  17.982  0.00  0.00    +0.000 A 
ATOM      6  C   UNL     1       2.387   4.852  18.765  0.00  0.00    +0.000 A 
ATOM      7  C   UNL     1       1.341   3.968  19.035  0.00  0.00    +0.000 A 
ATOM      8  C   UNL     1       1.371   2.676  18.514  0.00  0.00    +0.000 A 
ATOM      9  C   UNL     1       2.444   2.269  17.721  0.00  0.00    +0.000 A 
ATOM     10  C   UNL     1       3.497   3.150  17.453  0.00  0.00    +0.000 A 
ENDBRANCH   3   5
ENDBRANCH   2   3
BRANCH   2  11
ATOM     11  C   UNL     1       6.697   5.515  16.425  0.00  0.00    +0.000 C 
ATOM     12  O   UNL     1       7.516   6.442  16.449  0.00  0.00    +0.000 OA
BRANCH  11  13
ATOM     13  C   UNL     1       6.387   4.725  15.159  0.00  0.00    +0.000 C 
ATOM     14  F   UNL     1       7.362   4.848  14.211  0.00  0.00    +0.000 F 
ATOM     15  F   UNL     1       6.215   3.396  15.375  0.00  0.00    +0.000 F 
ATOM     16  F   UNL     1       5.248   5.174  14.558  0.00  0.00    +0.000 F 
ENDBRANCH  11  13
ENDBRANCH   2  11
TORSDOF 4
ENDMDL
MODEL 4
REMARK VINA RESULT:      -6.6      2.324      2.918
REMARK  Name = 
REMARK  5 active torsions:
REMARK  status: ('A' for Active; 'I' for Inactive)
REMARK    1  A    between atoms: C_1  and  C_2
REMARK    2  A    between atoms: C_2  and  C_3
REMARK    3  A    between atoms: C_2  and  C_11
REMARK    4  A    between atoms: C_3  and  C_5
REMARK    5  A    between atoms: C_11  and  C_13
REMARK                            x       y       z     vdW  Elec       q    Type
REMARK                         _______ _______ _______ _____ _____    ______ ____
ROOT
ATOM      1  C   UNL     1       5.323   4.097  15.745  0.00  0.00    +0.000 C 
ATOM      2  C   UNL     1       5.606   4.965  16.969  0.00  0.00    +0.000 C 
ENDROOT
BRANCH   2   3
ATOM      3  C   UNL     1       5.184   4.216  18.221  0.00  0.00    +0.000 C 
ATOM      4  O   UNL     1       5.987   4.024  19.132  0.00  0.00    +0.000 OA
BRANCH   3   5
ATOM      5  C   UNL     1       3.799   3.679  18.351  0.00  0.00    +0.000 A 
ATOM      6  C   UNL     1       2.730   4.570  18.182  0.00  0.00    +0.000 A 
ATOM      7  C   UNL     1       1.412   4.118  18.271  0.00  0.00    +0.000 A 
ATOM      8  C   UNL     1       1.154   2.771  18.516  0.00  0.00    +0.000 A 
ATOM      9  C   UNL     1       2.213   1.876  18.668  0.00  0.00    +0.000 A 
ATOM     10  C   UNL     1       3.535   2.325  18.586  0.00  0.00    +0.000 A 
ENDBRANCH   3   5
ENDBRANCH   2   3
BRANCH   2  11
ATOM     11  C   UNL     1       7.077   5.358  17.052  0.00  0.00    +0.000 C 
ATOM     12  O   UNL     1       7.976   4.597  16.674  0.00  0.00    +0.000 OA
BRANCH  11  13
ATOM     13  C   UNL     1       7.351   6.780  17.530  0.00  0.00    +0.000 C 
ATOM     14  F   UNL     1       7.973   6.815  18.744  0.00  0.00    +0.000 F 
ATOM     15  F   UNL     1       8.117   7.503  16.674  0.00  0.00    +0.000 F 
ATOM     16  F   UNL     1       6.193   7.479  17.703  0.00  0.00    +0.000 F 
ENDBRANCH  11  13
ENDBRANCH   2  11
TORSDOF 4
ENDMDL
MODEL 5
REMARK VINA RESULT:      -6.6      1.371      2.175
REMARK  Name = 
REMARK  5 active torsions:
REMARK  status: ('A' for Active; 'I' for Inactive)
REMARK    1  A    between atoms: C_1  and  C_2
REMARK    2  A    between atoms: C_2  and  C_3
REMARK    3  A    between atoms: C_2  and  C_11
REMARK    4  A    between atoms: C_3  and  C_5
REMARK    5  A    between atoms: C_11  and  C_13
REMARK                            x       y       z     vdW  Elec       q    Type
REMARK                         _______ _______ _______ _____ _____    ______ ____
ROOT
ATOM      1  C   UNL     1       7.209   6.958  17.393  0.00  0.00    +0.000 C 
ATOM      2  C   UNL     1       6.788   5.577  16.895  0.00  0.00    +0.000 C 
ENDROOT
BRANCH   2   3
ATOM      3  C   UNL     1       6.020   4.862  17.992  0.00  0.00    +0.000 C 
ATOM      4  O   UNL     1       6.612   4.394  18.963  0.00  0.00    +0.000 OA
BRANCH   3   5
ATOM      5  C   UNL     1       4.542   4.691  17.894  0.00  0.00    +0.000 A 
ATOM      6  C   UNL     1       3.729   5.745  18.334  0.00  0.00    +0.000 A 
ATOM      7  C   UNL     1       2.338   5.650  18.245  0.00  0.00    +0.000 A 
ATOM      8  C   UNL     1       1.753   4.507  17.704  0.00  0.00    +0.000 A 
ATOM      9  C   UNL     1       2.557   3.462  17.249  0.00  0.00    +0.000 A 
ATOM     10  C   UNL     1       3.949   3.550  17.342  0.00  0.00    +0.000 A 
ENDBRANCH   3   5
ENDBRANCH   2   3
BRANCH   2  11
ATOM     11  C   UNL     1       5.944   5.671  15.627  0.00  0.00    +0.000 C 
ATOM     12  O   UNL     1       5.221   6.648  15.398  0.00  0.00    +0.000 OA
BRANCH  11  13
ATOM     13  C   UNL     1       6.136   4.537  14.625  0.00  0.00    +0.000 C 
ATOM     14  F   UNL     1       4.995   4.247  13.935  0.00  0.00    +0.000 F 
ATOM     15  F   UNL     1       7.102   4.784  13.704  0.00  0.00    +0.000 F 
ATOM     16  F   UNL     1       6.480   3.374  15.249  0.00  0.00    +0.000 F 
ENDBRANCH  11  13
ENDBRANCH   2  11
TORSDOF 4
ENDMDL
MODEL 6
REMARK VINA RESULT:      -6.5      2.468      3.130
REMARK  Name = 
REMARK  5 active torsions:
REMARK  status: ('A' for Active; 'I' for Inactive)
REMARK    1  A    between atoms: C_1  and  C_2
REMARK    2  A    between atoms: C_2  and  C_3
REMARK    3  A    between atoms: C_2  and  C_11
REMARK    4  A    between atoms: C_3  and  C_5
REMARK    5  A    between atoms: C_11  and  C_13
REMARK                            x       y       z     vdW  Elec       q    Type
REMARK                         _______ _______ _______ _____ _____    ______ ____
ROOT
ATOM      1  C   UNL     1       4.219   7.113  17.010  0.00  0.00    +0.000 C 
ATOM      2  C   UNL     1       5.015   6.143  17.882  0.00  0.00    +0.000 C 
ENDROOT
BRANCH   2   3
ATOM      3  C   UNL     1       4.383   4.766  17.803  0.00  0.00    +0.000 C 
ATOM      4  O   UNL     1       4.819   3.924  17.020  0.00  0.00    +0.000 OA
BRANCH   3   5
ATOM      5  C   UNL     1       3.207   4.422  18.653  0.00  0.00    +0.000 A 
ATOM      6  C   UNL     1       3.107   5.028  19.913  0.00  0.00    +0.000 A 
ATOM      7  C   UNL     1       2.015   4.761  20.742  0.00  0.00    +0.000 A 
ATOM      8  C   UNL     1       1.011   3.897  20.312  0.00  0.00    +0.000 A 
ATOM      9  C   UNL     1       1.096   3.303  19.053  0.00  0.00    +0.000 A 
ATOM     10  C   UNL     1       2.190   3.563  18.222  0.00  0.00    +0.000 A 
ENDBRANCH   3   5
ENDBRANCH   2   3
BRANCH   2  11
ATOM     11  C   UNL     1       6.480   6.083  17.463  0.00  0.00    +0.000 C 
ATOM     12  O   UNL     1       6.845   6.404  16.325  0.00  0.00    +0.000 OA
BRANCH  11  13
ATOM     13  C   UNL     1       7.464   5.708  18.566  0.00  0.00    +0.000 C 
ATOM     14  F   UNL     1       8.174   4.579  18.274  0.00  0.00    +0.000 F 
ATOM     15  F   UNL     1       8.368   6.681  18.844  0.00  0.00    +0.000 F 
ATOM     16  F   UNL     1       6.818   5.429  19.735  0.00  0.00    +0.000 F 
ENDBRANCH  11  13
ENDBRANCH   2  11
TORSDOF 4
ENDMDL
MODEL 7
REMARK VINA RESULT:      -6.5      0.876      1.741
REMARK  Name = 
REMARK  5 active torsions:
REMARK  status: ('A' for Active; 'I' for Inactive)
REMARK    1  A    between atoms: C_1  and  C_2
REMARK    2  A    between atoms: C_2  and  C_3
REMARK    3  A    between atoms: C_2  and  C_11
REMARK    4  A    between atoms: C_3  and  C_5
REMARK    5  A    between atoms: C_11  and  C_13
REMARK                            x       y       z     vdW  Elec       q    Type
REMARK                         _______ _______ _______ _____ _____    ______ ____
ROOT
ATOM      1  C   UNL     1       6.656   5.506  19.040  0.00  0.00    +0.000 C 
ATOM      2  C   UNL     1       5.875   5.147  17.778  0.00  0.00    +0.000 C 
ENDROOT
BRANCH   2   3
ATOM      3  C   UNL     1       4.512   5.812  17.827  0.00  0.00    +0.000 C 
ATOM      4  O   UNL     1       4.356   6.949  17.385  0.00  0.00    +0.000 OA
BRANCH   3   5
ATOM      5  C   UNL     1       3.347   5.108  18.437  0.00  0.00    +0.000 A 
ATOM      6  C   UNL     1       3.014   5.415  19.764  0.00  0.00    +0.000 A 
ATOM      7  C   UNL     1       1.919   4.803  20.378  0.00  0.00    +0.000 A 
ATOM      8  C   UNL     1       1.143   3.891  19.666  0.00  0.00    +0.000 A 
ATOM      9  C   UNL     1       1.458   3.593  18.341  0.00  0.00    +0.000 A 
ATOM     10  C   UNL     1       2.557   4.199  17.723  0.00  0.00    +0.000 A 
ENDBRANCH   3   5
ENDBRANCH   2   3
BRANCH   2  11
ATOM     11  C   UNL     1       6.625   5.560  16.515  0.00  0.00    +0.000 C 
ATOM     12  O   UNL     1       7.487   6.448  16.532  0.00  0.00    +0.000 OA
BRANCH  11  13
ATOM     13  C   UNL     1       6.317   4.736  15.270  0.00  0.00    +0.000 C 
ATOM     14  F   UNL     1       5.208   5.179  14.609  0.00  0.00    +0.000 F 
ATOM     15  F   UNL     1       7.331   4.715  14.367  0.00  0.00    +0.000 F 
ATOM     16  F   UNL     1       6.049   3.437  15.586  0.00  0.00    +0.000 F 
ENDBRANCH  11  13
ENDBRANCH   2  11
TORSDOF 4
ENDMDL
MODEL 8
REMARK VINA RESULT:      -6.4      1.121      1.186
REMARK  Name = 
REMARK  5 active torsions:
REMARK  status: ('A' for Active; 'I' for Inactive)
REMARK    1  A    between atoms: C_1  and  C_2
REMARK    2  A    between atoms: C_2  and  C_3
REMARK    3  A    between atoms: C_2  and  C_11
REMARK    4  A    between atoms: C_3  and  C_5
REMARK    5  A    between atoms: C_11  and  C_13
REMARK                            x       y       z     vdW  Elec       q    Type
REMARK                         _______ _______ _______ _____ _____    ______ ____
ROOT
ATOM      1  C   UNL     1       7.527   6.429  17.819  0.00  0.00    +0.000 C 
ATOM      2  C   UNL     1       6.544   5.332  17.417  0.00  0.00    +0.000 C 
ENDROOT
BRANCH   2   3
ATOM      3  C   UNL     1       5.487   5.186  18.497  0.00  0.00    +0.000 C 
ATOM      4  O   UNL     1       5.684   5.632  19.626  0.00  0.00    +0.000 OA
BRANCH   3   5
ATOM      5  C   UNL     1       4.207   4.476  18.213  0.00  0.00    +0.000 A 
ATOM      6  C   UNL     1       4.211   3.074  18.246  0.00  0.00    +0.000 A 
ATOM      7  C   UNL     1       3.036   2.358  18.011  0.00  0.00    +0.000 A 
ATOM      8  C   UNL     1       1.847   3.038  17.754  0.00  0.00    +0.000 A 
ATOM      9  C   UNL     1       1.832   4.432  17.736  0.00  0.00    +0.000 A 
ATOM     10  C   UNL     1       3.008   5.154  17.965  0.00  0.00    +0.000 A 
ENDBRANCH   3   5
ENDBRANCH   2   3
BRANCH   2  11
ATOM     11  C   UNL     1       5.892   5.627  16.069  0.00  0.00    +0.000 C 
ATOM     12  O   UNL     1       5.363   6.719  15.828  0.00  0.00    +0.000 OA
BRANCH  11  13
ATOM     13  C   UNL     1       6.033   4.532  15.018  0.00  0.00    +0.000 C 
ATOM     14  F   UNL     1       6.056   3.281  15.563  0.00  0.00    +0.000 F 
ATOM     15  F   UNL     1       5.043   4.538  14.089  0.00  0.00    +0.000 F 
ATOM     16  F   UNL     1       7.209   4.645  14.336  0.00  0.00    +0.000 F 
ENDBRANCH  11  13
ENDBRANCH   2  11
TORSDOF 4
ENDMDL
MODEL 9
REMARK VINA RESULT:      -6.4      1.478      2.112
REMARK  Name = 
REMARK  5 active torsions:
REMARK  status: ('A' for Active; 'I' for Inactive)
REMARK    1  A    between atoms: C_1  and  C_2
REMARK    2  A    between atoms: C_2  and  C_3
REMARK    3  A    between atoms: C_2  and  C_11
REMARK    4  A    between atoms: C_3  and  C_5
REMARK    5  A    between atoms: C_11  and  C_13
REMARK                            x       y       z     vdW  Elec       q    Type
REMARK                         _______ _______ _______ _____ _____    ______ ____
ROOT
ATOM      1  C   UNL     1       7.404   4.541  16.937  0.00  0.00    +0.000 C 
ATOM      2  C   UNL     1       6.328   4.505  15.854  0.00  0.00    +0.000 C 
ENDROOT
BRANCH   2   3
ATOM      3  C   UNL     1       5.248   5.517  16.187  0.00  0.00    +0.000 C 
ATOM      4  O   UNL     1       5.315   6.666  15.754  0.00  0.00    +0.000 OA
BRANCH   3   5
ATOM      5  C   UNL     1       4.104   5.141  17.067  0.00  0.00    +0.000 A 
ATOM      6  C   UNL     1       3.524   6.145  17.857  0.00  0.00    +0.000 A 
ATOM      7  C   UNL     1       2.436   5.855  18.682  0.00  0.00    +0.000 A 
ATOM      8  C   UNL     1       1.911   4.565  18.713  0.00  0.00    +0.000 A 
ATOM      9  C   UNL     1       2.472   3.566  17.917  0.00  0.00    +0.000 A 
ATOM     10  C   UNL     1       3.565   3.850  17.094  0.00  0.00    +0.000 A 
ENDBRANCH   3   5
ENDBRANCH   2   3
BRANCH   2  11
ATOM     11  C   UNL     1       6.912   4.784  14.472  0.00  0.00    +0.000 C 
ATOM     12  O   UNL     1       7.887   5.530  14.316  0.00  0.00    +0.000 OA
BRANCH  11  13
ATOM     13  C   UNL     1       6.283   4.002  13.324  0.00  0.00    +0.000 C 
ATOM     14  F   UNL     1       6.437   2.653  13.462  0.00  0.00    +0.000 F 
ATOM     15  F   UNL     1       4.955   4.233  13.171  0.00  0.00    +0.000 F 
ATOM     16  F   UNL     1       6.872   4.307  12.132  0.00  0.00    +0.000 F 
ENDBRANCH  11  13
ENDBRANCH   2  11
TORSDOF 4
ENDMDL
