MODEL 1
REMARK VINA RESULT:      -8.6      0.000      0.000
REMARK  Name = 
REMARK  7 active torsions:
REMARK  status: ('A' for Active; 'I' for Inactive)
REMARK    1  A    between atoms: C_2  and  O_3
REMARK    2  A    between atoms: C_2  and  C_4
REMARK    3  A    between atoms: C_8  and  C_9
REMARK    4  A    between atoms: N_11  and  C_12
REMARK    5  A    between atoms: C_12  and  C_13
REMARK    6  A    between atoms: C_13  and  C_14
REMARK    7  A    between atoms: C_14  and  N_15
REMARK                            x       y       z     vdW  Elec       q    Type
REMARK                         _______ _______ _______ _____ _____    ______ ____
ROOT
ATOM      1  C   UNL     1       6.594   6.858  17.452  0.00  0.00    +0.000 C 
ENDROOT
BRANCH   1   4
ATOM      2  C   UNL     1       6.178   5.275  15.576  0.00  0.00    +0.000 C 
ATOM      3  O   UNL     1       5.316   4.651  16.185  0.00  0.00    +0.000 OA
ATOM      4  N   UNL     1       6.856   6.354  16.106  0.00  0.00    +0.000 N 
ATOM      5  H   UNL     1       7.628   6.761  15.594  0.00  0.00    +0.000 HD
BRANCH   2  10
ATOM      6  C   UNL     1       6.065   3.438  12.268  0.00  0.00    +0.000 A 
ATOM      7  C   UNL     1       7.153   3.998  11.587  0.00  0.00    +0.000 A 
ATOM      8  C   UNL     1       7.923   4.991  12.197  0.00  0.00    +0.000 A 
ATOM      9  C   UNL     1       7.619   5.420  13.493  0.00  0.00    +0.000 A 
ATOM     10  C   UNL     1       6.551   4.844  14.194  0.00  0.00    +0.000 A 
ATOM     11  C   UNL     1       5.774   3.850  13.577  0.00  0.00    +0.000 A 
BRANCH   6  13
ATOM     12  O   UNL     1       5.719   1.270  11.361  0.00  0.00    +0.000 OA
ATOM     13  C   UNL     1       5.279   2.390  11.575  0.00  0.00    +0.000 C 
BRANCH  13  14
ATOM     14  O   UNL     1       4.063   2.797  11.160  0.00  0.00    +0.000 OA
ATOM     15  H   UNL     1       3.441   3.054  11.865  0.00  0.00    +0.000 HD
ENDBRANCH  13  14
ENDBRANCH   6  13
ENDBRANCH   2  10
ENDBRANCH   1   4
BRANCH   1  16
ATOM     16  C   UNL     1       7.772   6.607  18.390  0.00  0.00    +0.000 C 
BRANCH  16  17
ATOM     17  C   UNL     1       7.436   5.661  19.559  0.00  0.00    +0.000 C 
BRANCH  17  18
ATOM     18  N   UNL     1       6.559   4.619  19.051  0.00  0.00    +0.000 N 
ATOM     19  C   UNL     1       5.310   4.357  19.485  0.00  0.00    +0.000 A 
ATOM     20  N   UNL     1       4.780   3.158  19.491  0.00  0.00    +0.000 NA
ATOM     21  C   UNL     1       3.452   3.335  19.778  0.00  0.00    +0.000 A 
ATOM     22  C   UNL     1       2.422   2.385  19.844  0.00  0.00    +0.000 A 
ATOM     23  C   UNL     1       1.115   2.824  20.085  0.00  0.00    +0.000 A 
ATOM     24  C   UNL     1       0.845   4.183  20.267  0.00  0.00    +0.000 A 
ATOM     25  C   UNL     1       1.867   5.145  20.231  0.00  0.00    +0.000 A 
ATOM     26  C   UNL     1       3.163   4.680  19.984  0.00  0.00    +0.000 A 
ATOM     27  N   UNL     1       4.387   5.304  19.855  0.00  0.00    +0.000 N 
ATOM     28  H   UNL     1       7.054   3.749  18.857  0.00  0.00    +0.000 HD
ATOM     29  H   UNL     1       4.554   6.294  19.920  0.00  0.00    +0.000 HD
ENDBRANCH  17  18
ENDBRANCH  16  17
ENDBRANCH   1  16
TORSDOF 7
ENDMDL
MODEL 2
REMARK VINA RESULT:      -8.2      4.355      7.991
REMARK  Name = 
REMARK  7 active torsions:
REMARK  status: ('A' for Active; 'I' for Inactive)
REMARK    1  A    between atoms: C_2  and  O_3
REMARK    2  A    between atoms: C_2  and  C_4
REMARK    3  A    between atoms: C_8  and  C_9
REMARK    4  A    between atoms: N_11  and  C_12
REMARK    5  A    between atoms: C_12  and  C_13
REMARK    6  A    between atoms: C_13  and  C_14
REMARK    7  A    between atoms: C_14  and  N_15
REMARK                            x       y       z     vdW  Elec       q    Type
REMARK                         _______ _______ _______ _____ _____    ______ ____
ROOT
ATOM      1  C   UNL     1       1.305   2.561  19.636  0.00  0.00    +0.000 C 
ENDROOT
BRANCH   1   4
ATOM      2  C   UNL     1       1.982   4.888  20.209  0.00  0.00    +0.000 C 
ATOM      3  O   UNL     1       2.600   4.549  21.212  0.00  0.00    +0.000 OA
ATOM      4  N   UNL     1       1.318   4.000  19.385  0.00  0.00    +0.000 N 
ATOM      5  H   UNL     1       0.740   4.351  18.634  0.00  0.00    +0.000 HD
BRANCH   2  10
ATOM      6  C   UNL     1       1.361   8.605  20.551  0.00  0.00    +0.000 A 
ATOM      7  C   UNL     1       1.756   9.084  19.296  0.00  0.00    +0.000 A 
ATOM      8  C   UNL     1       2.244   8.198  18.333  0.00  0.00    +0.000 A 
ATOM      9  C   UNL     1       2.326   6.830  18.613  0.00  0.00    +0.000 A 
ATOM     10  C   UNL     1       1.903   6.338  19.856  0.00  0.00    +0.000 A 
ATOM     11  C   UNL     1       1.420   7.231  20.825  0.00  0.00    +0.000 A 
BRANCH   6  13
ATOM     12  O   UNL     1       1.117  10.780  21.478  0.00  0.00    +0.000 OA
ATOM     13  C   UNL     1       0.853   9.588  21.539  0.00  0.00    +0.000 C 
BRANCH  13  14
ATOM     14  O   UNL     1       0.123   9.044  22.533  0.00  0.00    +0.000 OA
ATOM     15  H   UNL     1      -0.160   8.122  22.391  0.00  0.00    +0.000 HD
ENDBRANCH  13  14
ENDBRANCH   6  13
ENDBRANCH   2  10
ENDBRANCH   1   4
BRANCH   1  16
ATOM     16  C   UNL     1       2.013   1.786  18.526  0.00  0.00    +0.000 C 
BRANCH  16  17
ATOM     17  C   UNL     1       3.547   1.772  18.668  0.00  0.00    +0.000 C 
BRANCH  17  18
ATOM     18  N   UNL     1       4.096   2.645  17.643  0.00  0.00    +0.000 N 
ATOM     19  C   UNL     1       4.818   3.763  17.862  0.00  0.00    +0.000 A 
ATOM     20  N   UNL     1       4.797   4.808  17.070  0.00  0.00    +0.000 NA
ATOM     21  C   UNL     1       5.813   5.623  17.496  0.00  0.00    +0.000 A 
ATOM     22  C   UNL     1       6.263   6.837  16.957  0.00  0.00    +0.000 A 
ATOM     23  C   UNL     1       7.381   7.454  17.530  0.00  0.00    +0.000 A 
ATOM     24  C   UNL     1       8.028   6.877  18.625  0.00  0.00    +0.000 A 
ATOM     25  C   UNL     1       7.574   5.675  19.195  0.00  0.00    +0.000 A 
ATOM     26  C   UNL     1       6.458   5.077  18.600  0.00  0.00    +0.000 A 
ATOM     27  N   UNL     1       5.757   3.916  18.853  0.00  0.00    +0.000 N 
ATOM     28  H   UNL     1       3.455   2.787  16.863  0.00  0.00    +0.000 HD
ATOM     29  H   UNL     1       5.962   3.247  19.576  0.00  0.00    +0.000 HD
ENDBRANCH  17  18
ENDBRANCH  16  17
ENDBRANCH   1  16
TORSDOF 7
ENDMDL
MODEL 3
REMARK VINA RESULT:      -8.0      3.177      5.929
REMARK  Name = 
REMARK  7 active torsions:
REMARK  status: ('A' for Active; 'I' for Inactive)
REMARK    1  A    between atoms: C_2  and  O_3
REMARK    2  A    between atoms: C_2  and  C_4
REMARK    3  A    between atoms: C_8  and  C_9
REMARK    4  A    between atoms: N_11  and  C_12
REMARK    5  A    between atoms: C_12  and  C_13
REMARK    6  A    between atoms: C_13  and  C_14
REMARK    7  A    between atoms: C_14  and  N_15
REMARK                            x       y       z     vdW  Elec       q    Type
REMARK                         _______ _______ _______ _____ _____    ______ ____
ROOT
ATOM      1  C   UNL     1       2.222   2.257  19.415  0.00  0.00    +0.000 C 
ENDROOT
BRANCH   1   4
ATOM      2  C   UNL     1       3.569   3.579  17.791  0.00  0.00    +0.000 C 
ATOM      3  O   UNL     1       2.607   3.831  17.073  0.00  0.00    +0.000 OA
ATOM      4  N   UNL     1       3.483   2.821  18.942  0.00  0.00    +0.000 N 
ATOM      5  H   UNL     1       4.328   2.561  19.434  0.00  0.00    +0.000 HD
BRANCH   2  10
ATOM      6  C   UNL     1       6.947   5.266  18.051  0.00  0.00    +0.000 A 
ATOM      7  C   UNL     1       7.485   5.039  16.779  0.00  0.00    +0.000 A 
ATOM      8  C   UNL     1       6.755   4.318  15.831  0.00  0.00    +0.000 A 
ATOM      9  C   UNL     1       5.481   3.835  16.143  0.00  0.00    +0.000 A 
ATOM     10  C   UNL     1       4.922   4.085  17.403  0.00  0.00    +0.000 A 
ATOM     11  C   UNL     1       5.659   4.803  18.358  0.00  0.00    +0.000 A 
BRANCH   6  13
ATOM     12  O   UNL     1       8.209   7.146  18.775  0.00  0.00    +0.000 OA
ATOM     13  C   UNL     1       7.763   6.034  19.022  0.00  0.00    +0.000 C 
BRANCH  13  14
ATOM     14  O   UNL     1       8.013   5.378  20.173  0.00  0.00    +0.000 OA
ATOM     15  H   UNL     1       7.423   4.625  20.365  0.00  0.00    +0.000 HD
ENDBRANCH  13  14
ENDBRANCH   6  13
ENDBRANCH   2  10
ENDBRANCH   1   4
BRANCH   1  16
ATOM     16  C   UNL     1       1.937   2.642  20.865  0.00  0.00    +0.000 C 
BRANCH  16  17
ATOM     17  C   UNL     1       2.624   3.951  21.300  0.00  0.00    +0.000 C 
BRANCH  17  18
ATOM     18  N   UNL     1       1.636   5.015  21.233  0.00  0.00    +0.000 N 
ATOM     19  C   UNL     1       1.797   6.204  20.618  0.00  0.00    +0.000 A 
ATOM     20  N   UNL     1       1.235   7.315  21.027  0.00  0.00    +0.000 NA
ATOM     21  C   UNL     1       1.448   8.233  20.032  0.00  0.00    +0.000 A 
ATOM     22  C   UNL     1       1.001   9.559  19.935  0.00  0.00    +0.000 A 
ATOM     23  C   UNL     1       1.287  10.283  18.772  0.00  0.00    +0.000 A 
ATOM     24  C   UNL     1       2.014   9.698  17.733  0.00  0.00    +0.000 A 
ATOM     25  C   UNL     1       2.492   8.380  17.823  0.00  0.00    +0.000 A 
ATOM     26  C   UNL     1       2.188   7.678  18.994  0.00  0.00    +0.000 A 
ATOM     27  N   UNL     1       2.455   6.395  19.428  0.00  0.00    +0.000 N 
ATOM     28  H   UNL     1       1.131   5.138  22.110  0.00  0.00    +0.000 HD
ATOM     29  H   UNL     1       2.957   5.691  18.914  0.00  0.00    +0.000 HD
ENDBRANCH  17  18
ENDBRANCH  16  17
ENDBRANCH   1  16
TORSDOF 7
ENDMDL
MODEL 4
REMARK VINA RESULT:      -7.8      3.812      7.010
REMARK  Name = 
REMARK  7 active torsions:
REMARK  status: ('A' for Active; 'I' for Inactive)
REMARK    1  A    between atoms: C_2  and  O_3
REMARK    2  A    between atoms: C_2  and  C_4
REMARK    3  A    between atoms: C_8  and  C_9
REMARK    4  A    between atoms: N_11  and  C_12
REMARK    5  A    between atoms: C_12  and  C_13
REMARK    6  A    between atoms: C_13  and  C_14
REMARK    7  A    between atoms: C_14  and  N_15
REMARK                            x       y       z     vdW  Elec       q    Type
REMARK                         _______ _______ _______ _____ _____    ______ ____
ROOT
ATOM      1  C   UNL     1       4.988   6.585  16.494  0.00  0.00    +0.000 C 
ENDROOT
BRANCH   1   4
ATOM      2  C   UNL     1       2.976   7.223  17.813  0.00  0.00    +0.000 C 
ATOM      3  O   UNL     1       2.520   6.085  17.824  0.00  0.00    +0.000 OA
ATOM      4  N   UNL     1       4.160   7.565  17.192  0.00  0.00    +0.000 N 
ATOM      5  H   UNL     1       4.430   8.538  17.128  0.00  0.00    +0.000 HD
BRANCH   2  10
ATOM      6  C   UNL     1       1.083   9.139  20.473  0.00  0.00    +0.000 A 
ATOM      7  C   UNL     1       0.799  10.343  19.818  0.00  0.00    +0.000 A 
ATOM      8  C   UNL     1       1.236  10.546  18.507  0.00  0.00    +0.000 A 
ATOM      9  C   UNL     1       1.947   9.543  17.841  0.00  0.00    +0.000 A 
ATOM     10  C   UNL     1       2.209   8.322  18.477  0.00  0.00    +0.000 A 
ATOM     11  C   UNL     1       1.775   8.123  19.797  0.00  0.00    +0.000 A 
BRANCH   6  13
ATOM     12  O   UNL     1      -0.513   8.539  22.129  0.00  0.00    +0.000 OA
ATOM     13  C   UNL     1       0.598   8.976  21.864  0.00  0.00    +0.000 C 
BRANCH  13  14
ATOM     14  O   UNL     1       1.467   9.400  22.804  0.00  0.00    +0.000 OA
ATOM     15  H   UNL     1       1.710  10.343  22.759  0.00  0.00    +0.000 HD
ENDBRANCH  13  14
ENDBRANCH   6  13
ENDBRANCH   2  10
ENDBRANCH   1   4
BRANCH   1  16
ATOM     16  C   UNL     1       6.228   6.212  17.304  0.00  0.00    +0.000 C 
BRANCH  16  17
ATOM     17  C   UNL     1       6.675   4.750  17.105  0.00  0.00    +0.000 C 
BRANCH  17  18
ATOM     18  N   UNL     1       6.299   4.004  18.294  0.00  0.00    +0.000 N 
ATOM     19  C   UNL     1       5.040   3.810  18.738  0.00  0.00    +0.000 A 
ATOM     20  N   UNL     1       4.728   3.695  20.007  0.00  0.00    +0.000 NA
ATOM     21  C   UNL     1       3.421   3.286  20.036  0.00  0.00    +0.000 A 
ATOM     22  C   UNL     1       2.618   2.955  21.137  0.00  0.00    +0.000 A 
ATOM     23  C   UNL     1       1.319   2.486  20.907  0.00  0.00    +0.000 A 
ATOM     24  C   UNL     1       0.830   2.360  19.605  0.00  0.00    +0.000 A 
ATOM     25  C   UNL     1       1.610   2.713  18.491  0.00  0.00    +0.000 A 
ATOM     26  C   UNL     1       2.906   3.174  18.749  0.00  0.00    +0.000 A 
ATOM     27  N   UNL     1       3.947   3.580  17.940  0.00  0.00    +0.000 N 
ATOM     28  H   UNL     1       6.927   4.172  19.079  0.00  0.00    +0.000 HD
ATOM     29  H   UNL     1       3.938   3.606  16.934  0.00  0.00    +0.000 HD
ENDBRANCH  17  18
ENDBRANCH  16  17
ENDBRANCH   1  16
TORSDOF 7
ENDMDL
MODEL 5
REMARK VINA RESULT:      -7.8      4.862      7.472
REMARK  Name = 
REMARK  7 active torsions:
REMARK  status: ('A' for Active; 'I' for Inactive)
REMARK    1  A    between atoms: C_2  and  O_3
REMARK    2  A    between atoms: C_2  and  C_4
REMARK    3  A    between atoms: C_8  and  C_9
REMARK    4  A    between atoms: N_11  and  C_12
REMARK    5  A    between atoms: C_12  and  C_13
REMARK    6  A    between atoms: C_13  and  C_14
REMARK    7  A    between atoms: C_14  and  N_15
REMARK                            x       y       z     vdW  Elec       q    Type
REMARK                         _______ _______ _______ _____ _____    ______ ____
ROOT
ATOM      1  C   UNL     1       7.767   7.122  17.968  0.00  0.00    +0.000 C 
ENDROOT
BRANCH   1   4
ATOM      2  C   UNL     1       8.321   9.542  18.159  0.00  0.00    +0.000 C 
ATOM      3  O   UNL     1       7.460   9.887  17.356  0.00  0.00    +0.000 OA
ATOM      4  N   UNL     1       8.549   8.228  18.515  0.00  0.00    +0.000 N 
ATOM      5  H   UNL     1       9.341   7.999  19.101  0.00  0.00    +0.000 HD
BRANCH   2  10
ATOM      6  C   UNL     1      10.541  12.591  18.479  0.00  0.00    +0.000 A 
ATOM      7  C   UNL     1      10.835  12.595  19.847  0.00  0.00    +0.000 A 
ATOM      8  C   UNL     1      10.298  11.610  20.680  0.00  0.00    +0.000 A 
ATOM      9  C   UNL     1       9.477  10.611  20.148  0.00  0.00    +0.000 A 
ATOM     10  C   UNL     1       9.202  10.581  18.775  0.00  0.00    +0.000 A 
ATOM     11  C   UNL     1       9.737  11.576  17.940  0.00  0.00    +0.000 A 
BRANCH   6  13
ATOM     12  O   UNL     1      12.331  13.726  17.405  0.00  0.00    +0.000 OA
ATOM     13  C   UNL     1      11.133  13.660  17.639  0.00  0.00    +0.000 C 
BRANCH  13  14
ATOM     14  O   UNL     1      10.245  14.575  17.204  0.00  0.00    +0.000 OA
ATOM     15  H   UNL     1       9.544  14.236  16.617  0.00  0.00    +0.000 HD
ENDBRANCH  13  14
ENDBRANCH   6  13
ENDBRANCH   2  10
ENDBRANCH   1   4
BRANCH   1  16
ATOM     16  C   UNL     1       7.672   5.956  18.949  0.00  0.00    +0.000 C 
BRANCH  16  17
ATOM     17  C   UNL     1       7.545   4.583  18.262  0.00  0.00    +0.000 C 
BRANCH  17  18
ATOM     18  N   UNL     1       6.239   4.521  17.628  0.00  0.00    +0.000 N 
ATOM     19  C   UNL     1       5.102   4.080  18.204  0.00  0.00    +0.000 A 
ATOM     20  N   UNL     1       4.140   3.480  17.545  0.00  0.00    +0.000 NA
ATOM     21  C   UNL     1       3.084   3.396  18.415  0.00  0.00    +0.000 A 
ATOM     22  C   UNL     1       1.791   2.900  18.198  0.00  0.00    +0.000 A 
ATOM     23  C   UNL     1       0.852   2.991  19.232  0.00  0.00    +0.000 A 
ATOM     24  C   UNL     1       1.202   3.555  20.461  0.00  0.00    +0.000 A 
ATOM     25  C   UNL     1       2.500   4.032  20.706  0.00  0.00    +0.000 A 
ATOM     26  C   UNL     1       3.417   3.934  19.654  0.00  0.00    +0.000 A 
ATOM     27  N   UNL     1       4.738   4.304  19.509  0.00  0.00    +0.000 N 
ATOM     28  H   UNL     1       6.286   4.209  16.659  0.00  0.00    +0.000 HD
ATOM     29  H   UNL     1       5.305   4.754  20.208  0.00  0.00    +0.000 HD
ENDBRANCH  17  18
ENDBRANCH  16  17
ENDBRANCH   1  16
TORSDOF 7
ENDMDL
MODEL 6
REMARK VINA RESULT:      -7.8      4.185      7.050
REMARK  Name = 
REMARK  7 active torsions:
REMARK  status: ('A' for Active; 'I' for Inactive)
REMARK    1  A    between atoms: C_2  and  O_3
REMARK    2  A    between atoms: C_2  and  C_4
REMARK    3  A    between atoms: C_8  and  C_9
REMARK    4  A    between atoms: N_11  and  C_12
REMARK    5  A    between atoms: C_12  and  C_13
REMARK    6  A    between atoms: C_13  and  C_14
REMARK    7  A    between atoms: C_14  and  N_15
REMARK                            x       y       z     vdW  Elec       q    Type
REMARK                         _______ _______ _______ _____ _____    ______ ____
ROOT
ATOM      1  C   UNL     1       7.080   6.213  16.798  0.00  0.00    +0.000 C 
ENDROOT
BRANCH   1   4
ATOM      2  C   UNL     1       8.157   8.016  18.136  0.00  0.00    +0.000 C 
ATOM      3  O   UNL     1       8.514   7.254  19.028  0.00  0.00    +0.000 OA
ATOM      4  N   UNL     1       7.454   7.608  17.020  0.00  0.00    +0.000 N 
ATOM      5  H   UNL     1       7.097   8.298  16.373  0.00  0.00    +0.000 HD
BRANCH   2  10
ATOM      6  C   UNL     1       9.718  11.235  19.371  0.00  0.00    +0.000 A 
ATOM      7  C   UNL     1       9.126  12.187  18.533  0.00  0.00    +0.000 A 
ATOM      8  C   UNL     1       8.222  11.783  17.547  0.00  0.00    +0.000 A 
ATOM      9  C   UNL     1       7.897  10.431  17.403  0.00  0.00    +0.000 A 
ATOM     10  C   UNL     1       8.462   9.475  18.257  0.00  0.00    +0.000 A 
ATOM     11  C   UNL     1       9.375   9.881  19.243  0.00  0.00    +0.000 A 
BRANCH   6  13
ATOM     12  O   UNL     1      11.860  11.890  20.167  0.00  0.00    +0.000 OA
ATOM     13  C   UNL     1      10.672  11.716  20.399  0.00  0.00    +0.000 C 
BRANCH  13  14
ATOM     14  O   UNL     1      10.126  11.892  21.619  0.00  0.00    +0.000 OA
ATOM     15  H   UNL     1       9.639  11.127  21.977  0.00  0.00    +0.000 HD
ENDBRANCH  13  14
ENDBRANCH   6  13
ENDBRANCH   2  10
ENDBRANCH   1   4
BRANCH   1  16
ATOM     16  C   UNL     1       5.667   6.088  16.234  0.00  0.00    +0.000 C 
BRANCH  16  17
ATOM     17  C   UNL     1       5.349   4.688  15.676  0.00  0.00    +0.000 C 
BRANCH  17  18
ATOM     18  N   UNL     1       5.326   3.758  16.793  0.00  0.00    +0.000 N 
ATOM     19  C   UNL     1       4.417   3.743  17.790  0.00  0.00    +0.000 A 
ATOM     20  N   UNL     1       4.691   3.370  19.017  0.00  0.00    +0.000 NA
ATOM     21  C   UNL     1       3.484   3.274  19.658  0.00  0.00    +0.000 A 
ATOM     22  C   UNL     1       3.205   2.853  20.967  0.00  0.00    +0.000 A 
ATOM     23  C   UNL     1       1.869   2.769  21.376  0.00  0.00    +0.000 A 
ATOM     24  C   UNL     1       0.835   3.107  20.499  0.00  0.00    +0.000 A 
ATOM     25  C   UNL     1       1.097   3.556  19.194  0.00  0.00    +0.000 A 
ATOM     26  C   UNL     1       2.441   3.627  18.810  0.00  0.00    +0.000 A 
ATOM     27  N   UNL     1       3.075   3.987  17.638  0.00  0.00    +0.000 N 
ATOM     28  H   UNL     1       6.257   3.565  17.163  0.00  0.00    +0.000 HD
ATOM     29  H   UNL     1       2.623   4.279  16.788  0.00  0.00    +0.000 HD
ENDBRANCH  17  18
ENDBRANCH  16  17
ENDBRANCH   1  16
TORSDOF 7
ENDMDL
MODEL 7
REMARK VINA RESULT:      -7.8      2.660      4.801
REMARK  Name = 
REMARK  7 active torsions:
REMARK  status: ('A' for Active; 'I' for Inactive)
REMARK    1  A    between atoms: C_2  and  O_3
REMARK    2  A    between atoms: C_2  and  C_4
REMARK    3  A    between atoms: C_8  and  C_9
REMARK    4  A    between atoms: N_11  and  C_12
REMARK    5  A    between atoms: C_12  and  C_13
REMARK    6  A    between atoms: C_13  and  C_14
REMARK    7  A    between atoms: C_14  and  N_15
REMARK                            x       y       z     vdW  Elec       q    Type
REMARK                         _______ _______ _______ _____ _____    ______ ____
ROOT
ATOM      1  C   UNL     1       3.161   1.594  18.906  0.00  0.00    +0.000 C 
ENDROOT
BRANCH   1   4
ATOM      2  C   UNL     1       3.919   3.437  17.415  0.00  0.00    +0.000 C 
ATOM      3  O   UNL     1       2.822   3.570  16.884  0.00  0.00    +0.000 OA
ATOM      4  N   UNL     1       4.183   2.505  18.399  0.00  0.00    +0.000 N 
ATOM      5  H   UNL     1       5.132   2.374  18.723  0.00  0.00    +0.000 HD
BRANCH   2  10
ATOM      6  C   UNL     1       6.575   4.950  15.182  0.00  0.00    +0.000 A 
ATOM      7  C   UNL     1       7.160   5.901  16.027  0.00  0.00    +0.000 A 
ATOM      8  C   UNL     1       6.681   6.067  17.328  0.00  0.00    +0.000 A 
ATOM      9  C   UNL     1       5.627   5.275  17.796  0.00  0.00    +0.000 A 
ATOM     10  C   UNL     1       5.056   4.300  16.968  0.00  0.00    +0.000 A 
ATOM     11  C   UNL     1       5.534   4.139  15.657  0.00  0.00    +0.000 A 
BRANCH   6  13
ATOM     12  O   UNL     1       6.719   3.970  13.021  0.00  0.00    +0.000 OA
ATOM     13  C   UNL     1       7.119   4.816  13.809  0.00  0.00    +0.000 C 
BRANCH  13  14
ATOM     14  O   UNL     1       8.122   5.671  13.528  0.00  0.00    +0.000 OA
ATOM     15  H   UNL     1       8.183   6.454  14.105  0.00  0.00    +0.000 HD
ENDBRANCH  13  14
ENDBRANCH   6  13
ENDBRANCH   2  10
ENDBRANCH   1   4
BRANCH   1  16
ATOM     16  C   UNL     1       2.109   2.326  19.736  0.00  0.00    +0.000 C 
BRANCH  16  17
ATOM     17  C   UNL     1       2.709   3.313  20.756  0.00  0.00    +0.000 C 
BRANCH  17  18
ATOM     18  N   UNL     1       1.777   4.419  20.906  0.00  0.00    +0.000 N 
ATOM     19  C   UNL     1       1.929   5.655  20.389  0.00  0.00    +0.000 A 
ATOM     20  N   UNL     1       1.475   6.743  20.964  0.00  0.00    +0.000 NA
ATOM     21  C   UNL     1       1.621   7.744  20.040  0.00  0.00    +0.000 A 
ATOM     22  C   UNL     1       1.236   9.090  20.120  0.00  0.00    +0.000 A 
ATOM     23  C   UNL     1       1.425   9.913  19.004  0.00  0.00    +0.000 A 
ATOM     24  C   UNL     1       1.996   9.403  17.835  0.00  0.00    +0.000 A 
ATOM     25  C   UNL     1       2.412   8.065  17.745  0.00  0.00    +0.000 A 
ATOM     26  C   UNL     1       2.208   7.264  18.874  0.00  0.00    +0.000 A 
ATOM     27  N   UNL     1       2.455   5.935  19.152  0.00  0.00    +0.000 N 
ATOM     28  H   UNL     1       1.383   4.476  21.845  0.00  0.00    +0.000 HD
ATOM     29  H   UNL     1       2.857   5.264  18.519  0.00  0.00    +0.000 HD
ENDBRANCH  17  18
ENDBRANCH  16  17
ENDBRANCH   1  16
TORSDOF 7
ENDMDL
MODEL 8
REMARK VINA RESULT:      -7.7      3.876      8.062
REMARK  Name = 
REMARK  7 active torsions:
REMARK  status: ('A' for Active; 'I' for Inactive)
REMARK    1  A    between atoms: C_2  and  O_3
REMARK    2  A    between atoms: C_2  and  C_4
REMARK    3  A    between atoms: C_8  and  C_9
REMARK    4  A    between atoms: N_11  and  C_12
REMARK    5  A    between atoms: C_12  and  C_13
REMARK    6  A    between atoms: C_13  and  C_14
REMARK    7  A    between atoms: C_14  and  N_15
REMARK                            x       y       z     vdW  Elec       q    Type
REMARK                         _______ _______ _______ _____ _____    ______ ____
ROOT
ATOM      1  C   UNL     1       1.676   3.573  20.816  0.00  0.00    +0.000 C 
ENDROOT
BRANCH   1   4
ATOM      2  C   UNL     1       2.434   5.820  20.057  0.00  0.00    +0.000 C 
ATOM      3  O   UNL     1       3.623   5.523  20.096  0.00  0.00    +0.000 OA
ATOM      4  N   UNL     1       1.418   4.946  20.391  0.00  0.00    +0.000 N 
ATOM      5  H   UNL     1       0.465   5.282  20.440  0.00  0.00    +0.000 HD
BRANCH   2  10
ATOM      6  C   UNL     1       1.108   9.356  20.309  0.00  0.00    +0.000 A 
ATOM      7  C   UNL     1       1.305   9.835  19.009  0.00  0.00    +0.000 A 
ATOM      8  C   UNL     1       1.887   9.012  18.042  0.00  0.00    +0.000 A 
ATOM      9  C   UNL     1       2.262   7.704  18.366  0.00  0.00    +0.000 A 
ATOM     10  C   UNL     1       2.040   7.206  19.657  0.00  0.00    +0.000 A 
ATOM     11  C   UNL     1       1.461   8.036  20.629  0.00  0.00    +0.000 A 
BRANCH   6  13
ATOM     12  O   UNL     1       0.846  11.432  21.437  0.00  0.00    +0.000 OA
ATOM     13  C   UNL     1       0.488  10.271  21.298  0.00  0.00    +0.000 C 
BRANCH  13  14
ATOM     14  O   UNL     1      -0.463   9.696  22.061  0.00  0.00    +0.000 OA
ATOM     15  H   UNL     1      -0.710   8.786  21.812  0.00  0.00    +0.000 HD
ENDBRANCH  13  14
ENDBRANCH   6  13
ENDBRANCH   2  10
ENDBRANCH   1   4
BRANCH   1  16
ATOM     16  C   UNL     1       1.174   2.559  19.790  0.00  0.00    +0.000 C 
BRANCH  16  17
ATOM     17  C   UNL     1       2.291   1.676  19.201  0.00  0.00    +0.000 C 
BRANCH  17  18
ATOM     18  N   UNL     1       2.695   2.256  17.931  0.00  0.00    +0.000 N 
ATOM     19  C   UNL     1       3.612   3.231  17.765  0.00  0.00    +0.000 A 
ATOM     20  N   UNL     1       3.555   4.126  16.809  0.00  0.00    +0.000 NA
ATOM     21  C   UNL     1       4.758   4.782  16.835  0.00  0.00    +0.000 A 
ATOM     22  C   UNL     1       5.241   5.787  15.984  0.00  0.00    +0.000 A 
ATOM     23  C   UNL     1       6.547   6.254  16.168  0.00  0.00    +0.000 A 
ATOM     24  C   UNL     1       7.350   5.736  17.187  0.00  0.00    +0.000 A 
ATOM     25  C   UNL     1       6.874   4.748  18.065  0.00  0.00    +0.000 A 
ATOM     26  C   UNL     1       5.566   4.296  17.856  0.00  0.00    +0.000 A 
ATOM     27  N   UNL     1       4.780   3.348  18.478  0.00  0.00    +0.000 N 
ATOM     28  H   UNL     1       1.910   2.400  17.297  0.00  0.00    +0.000 HD
ATOM     29  H   UNL     1       5.054   2.771  19.255  0.00  0.00    +0.000 HD
ENDBRANCH  17  18
ENDBRANCH  16  17
ENDBRANCH   1  16
TORSDOF 7
ENDMDL
MODEL 9
REMARK VINA RESULT:      -7.7      4.053      8.006
REMARK  Name = 
REMARK  7 active torsions:
REMARK  status: ('A' for Active; 'I' for Inactive)
REMARK    1  A    between atoms: C_2  and  O_3
REMARK    2  A    between atoms: C_2  and  C_4
REMARK    3  A    between atoms: C_8  and  C_9
REMARK    4  A    between atoms: N_11  and  C_12
REMARK    5  A    between atoms: C_12  and  C_13
REMARK    6  A    between atoms: C_13  and  C_14
REMARK    7  A    between atoms: C_14  and  N_15
REMARK                            x       y       z     vdW  Elec       q    Type
REMARK                         _______ _______ _______ _____ _____    ______ ____
ROOT
ATOM      1  C   UNL     1       1.507   3.454  20.394  0.00  0.00    +0.000 C 
ENDROOT
BRANCH   1   4
ATOM      2  C   UNL     1       2.037   5.886  20.337  0.00  0.00    +0.000 C 
ATOM      3  O   UNL     1       3.219   5.706  20.063  0.00  0.00    +0.000 OA
ATOM      4  N   UNL     1       1.132   4.860  20.522  0.00  0.00    +0.000 N 
ATOM      5  H   UNL     1       0.198   5.069  20.849  0.00  0.00    +0.000 HD
BRANCH   2  10
ATOM      6  C   UNL     1       1.167   9.483  19.544  0.00  0.00    +0.000 A 
ATOM      7  C   UNL     1       0.582   9.912  20.741  0.00  0.00    +0.000 A 
ATOM      8  C   UNL     1       0.452   9.026  21.812  0.00  0.00    +0.000 A 
ATOM      9  C   UNL     1       0.918   7.712  21.698  0.00  0.00    +0.000 A 
ATOM     10  C   UNL     1       1.533   7.283  20.514  0.00  0.00    +0.000 A 
ATOM     11  C   UNL     1       1.657   8.173  19.436  0.00  0.00    +0.000 A 
BRANCH   6  13
ATOM     12  O   UNL     1       0.709  11.545  18.454  0.00  0.00    +0.000 OA
ATOM     13  C   UNL     1       1.278  10.463  18.437  0.00  0.00    +0.000 C 
BRANCH  13  14
ATOM     14  O   UNL     1       2.015  10.034  17.393  0.00  0.00    +0.000 OA
ATOM     15  H   UNL     1       2.751   9.434  17.615  0.00  0.00    +0.000 HD
ENDBRANCH  13  14
ENDBRANCH   6  13
ENDBRANCH   2  10
ENDBRANCH   1   4
BRANCH   1  16
ATOM     16  C   UNL     1       1.586   3.019  18.933  0.00  0.00    +0.000 C 
BRANCH  16  17
ATOM     17  C   UNL     1       2.762   2.068  18.637  0.00  0.00    +0.000 C 
BRANCH  17  18
ATOM     18  N   UNL     1       3.595   2.694  17.623  0.00  0.00    +0.000 N 
ATOM     19  C   UNL     1       4.438   3.728  17.821  0.00  0.00    +0.000 A 
ATOM     20  N   UNL     1       4.704   4.633  16.910  0.00  0.00    +0.000 NA
ATOM     21  C   UNL     1       5.753   5.364  17.402  0.00  0.00    +0.000 A 
ATOM     22  C   UNL     1       6.466   6.411  16.800  0.00  0.00    +0.000 A 
ATOM     23  C   UNL     1       7.561   6.958  17.479  0.00  0.00    +0.000 A 
ATOM     24  C   UNL     1       7.929   6.476  18.737  0.00  0.00    +0.000 A 
ATOM     25  C   UNL     1       7.211   5.446  19.367  0.00  0.00    +0.000 A 
ATOM     26  C   UNL     1       6.124   4.914  18.664  0.00  0.00    +0.000 A 
ATOM     27  N   UNL     1       5.220   3.908  18.936  0.00  0.00    +0.000 N 
ATOM     28  H   UNL     1       3.116   2.797  16.729  0.00  0.00    +0.000 HD
ATOM     29  H   UNL     1       5.202   3.337  19.764  0.00  0.00    +0.000 HD
ENDBRANCH  17  18
ENDBRANCH  16  17
ENDBRANCH   1  16
TORSDOF 7
ENDMDL
