MODEL 1
REMARK VINA RESULT:      -6.9      0.000      0.000
REMARK  Name = 
REMARK  4 active torsions:
REMARK  status: ('A' for Active; 'I' for Inactive)
REMARK    1  A    between atoms: C_1  and  C_2
REMARK    2  A    between atoms: C_2  and  C_4
REMARK    3  A    between atoms: C_7  and  N_8
REMARK    4  A    between atoms: C_9  and  C_11
REMARK                            x       y       z     vdW  Elec       q    Type
REMARK                         _______ _______ _______ _____ _____    ______ ____
ROOT
ATOM      1  N   UNL     1       2.792   7.408  18.706  0.00  0.00    +0.000 N 
ATOM      2  C   UNL     1       2.088   8.537  18.332  0.00  0.00    +0.000 C 
ATOM      3  O   UNL     1       2.083   9.035  17.212  0.00  0.00    +0.000 OA
ATOM      4  H   UNL     1       2.587   7.023  19.618  0.00  0.00    +0.000 HD
ENDROOT
BRANCH   2   5
ATOM      5  C   UNL     1       1.262   9.104  19.377  0.00  0.00    +0.000 A 
ATOM      6  C   UNL     1       1.083   8.782  20.717  0.00  0.00    +0.000 A 
ATOM      7  C   UNL     1       0.114   9.666  21.242  0.00  0.00    +0.000 A 
ATOM      8 BR   UNL     1      -0.482   9.587  23.018  0.00  0.00    +0.000 Br
ATOM      9  C   UNL     1      -0.267  10.517  20.242  0.00  0.00    +0.000 A 
ATOM     10 BR   UNL     1      -1.521  11.890  20.328  0.00  0.00    +0.000 Br
ATOM     11  N   UNL     1       0.443  10.190  19.123  0.00  0.00    +0.000 N 
ATOM     12  H   UNL     1       0.378  10.649  18.223  0.00  0.00    +0.000 HD
ENDBRANCH   2   5
BRANCH   1  16
ATOM     13  C   UNL     1       5.484   5.188  16.326  0.00  0.00    +0.000 A 
ATOM     14  C   UNL     1       4.371   4.555  16.884  0.00  0.00    +0.000 A 
ATOM     15  C   UNL     1       3.463   5.278  17.661  0.00  0.00    +0.000 A 
ATOM     16  C   UNL     1       3.650   6.642  17.892  0.00  0.00    +0.000 A 
ATOM     17  C   UNL     1       4.740   7.286  17.297  0.00  0.00    +0.000 A 
ATOM     18  C   UNL     1       5.658   6.562  16.527  0.00  0.00    +0.000 A 
BRANCH  13  20
ATOM     19  C   UNL     1       6.078   3.863  14.195  0.00  0.00    +0.000 C 
ATOM     20  C   UNL     1       6.492   4.429  15.529  0.00  0.00    +0.000 C 
ATOM     21  O   UNL     1       7.632   4.280  15.964  0.00  0.00    +0.000 OA
ENDBRANCH  13  20
ENDBRANCH   1  16
TORSDOF 3
ENDMDL
MODEL 2
REMARK VINA RESULT:      -6.7      0.645      1.491
REMARK  Name = 
REMARK  4 active torsions:
REMARK  status: ('A' for Active; 'I' for Inactive)
REMARK    1  A    between atoms: C_1  and  C_2
REMARK    2  A    between atoms: C_2  and  C_4
REMARK    3  A    between atoms: C_7  and  N_8
REMARK    4  A    between atoms: C_9  and  C_11
REMARK                            x       y       z     vdW  Elec       q    Type
REMARK                         _______ _______ _______ _____ _____    ______ ____
ROOT
ATOM      1  N   UNL     1       2.624   7.652  18.740  0.00  0.00    +0.000 N 
ATOM      2  C   UNL     1       1.963   8.779  18.290  0.00  0.00    +0.000 C 
ATOM      3  O   UNL     1       2.022   9.234  17.154  0.00  0.00    +0.000 OA
ATOM      4  H   UNL     1       2.367   7.305  19.653  0.00  0.00    +0.000 HD
ENDROOT
BRANCH   2   5
ATOM      5  C   UNL     1       1.097   9.399  19.272  0.00  0.00    +0.000 A 
ATOM      6  C   UNL     1       0.179  10.439  19.198  0.00  0.00    +0.000 A 
ATOM      7  C   UNL     1      -0.349  10.634  20.494  0.00  0.00    +0.000 A 
ATOM      8 BR   UNL     1      -1.608  11.966  20.891  0.00  0.00    +0.000 Br
ATOM      9  C   UNL     1       0.225   9.714  21.327  0.00  0.00    +0.000 A 
ATOM     10 BR   UNL     1      -0.066   9.489  23.151  0.00  0.00    +0.000 Br
ATOM     11  N   UNL     1       1.081   8.955  20.582  0.00  0.00    +0.000 N 
ATOM     12  H   UNL     1       1.647   8.189  20.926  0.00  0.00    +0.000 HD
ENDBRANCH   2   5
BRANCH   1  16
ATOM     13  C   UNL     1       5.385   5.292  16.584  0.00  0.00    +0.000 A 
ATOM     14  C   UNL     1       4.205   4.715  17.059  0.00  0.00    +0.000 A 
ATOM     15  C   UNL     1       3.274   5.484  17.760  0.00  0.00    +0.000 A 
ATOM     16  C   UNL     1       3.505   6.841  17.997  0.00  0.00    +0.000 A 
ATOM     17  C   UNL     1       4.666   7.430  17.484  0.00  0.00    +0.000 A 
ATOM     18  C   UNL     1       5.606   6.658  16.790  0.00  0.00    +0.000 A 
BRANCH  13  20
ATOM     19  C   UNL     1       6.046   3.842  14.555  0.00  0.00    +0.000 C 
ATOM     20  C   UNL     1       6.415   4.481  15.870  0.00  0.00    +0.000 C 
ATOM     21  O   UNL     1       7.536   4.349  16.356  0.00  0.00    +0.000 OA
ENDBRANCH  13  20
ENDBRANCH   1  16
TORSDOF 3
ENDMDL
MODEL 3
REMARK VINA RESULT:      -6.5      0.352      1.158
REMARK  Name = 
REMARK  4 active torsions:
REMARK  status: ('A' for Active; 'I' for Inactive)
REMARK    1  A    between atoms: C_1  and  C_2
REMARK    2  A    between atoms: C_2  and  C_4
REMARK    3  A    between atoms: C_7  and  N_8
REMARK    4  A    between atoms: C_9  and  C_11
REMARK                            x       y       z     vdW  Elec       q    Type
REMARK                         _______ _______ _______ _____ _____    ______ ____
ROOT
ATOM      1  N   UNL     1       2.730   7.472  18.737  0.00  0.00    +0.000 N 
ATOM      2  C   UNL     1       2.022   8.600  18.369  0.00  0.00    +0.000 C 
ATOM      3  O   UNL     1       2.001   9.094  17.248  0.00  0.00    +0.000 OA
ATOM      4  H   UNL     1       2.537   7.090  19.653  0.00  0.00    +0.000 HD
ENDROOT
BRANCH   2   5
ATOM      5  C   UNL     1       1.210   9.171  19.424  0.00  0.00    +0.000 A 
ATOM      6  C   UNL     1       1.034   8.840  20.762  0.00  0.00    +0.000 A 
ATOM      7  C   UNL     1       0.082   9.735  21.301  0.00  0.00    +0.000 A 
ATOM      8 BR   UNL     1      -0.504   9.650  23.080  0.00  0.00    +0.000 Br
ATOM      9  C   UNL     1      -0.291  10.600  20.310  0.00  0.00    +0.000 A 
ATOM     10 BR   UNL     1      -1.523  11.992  20.415  0.00  0.00    +0.000 Br
ATOM     11  N   UNL     1       0.408  10.272  19.184  0.00  0.00    +0.000 N 
ATOM     12  H   UNL     1       0.344  10.740  18.289  0.00  0.00    +0.000 HD
ENDBRANCH   2   5
BRANCH   1  16
ATOM     13  C   UNL     1       5.139   5.092  16.213  0.00  0.00    +0.000 A 
ATOM     14  C   UNL     1       5.452   6.440  16.397  0.00  0.00    +0.000 A 
ATOM     15  C   UNL     1       4.675   7.238  17.240  0.00  0.00    +0.000 A 
ATOM     16  C   UNL     1       3.575   6.703  17.914  0.00  0.00    +0.000 A 
ATOM     17  C   UNL     1       3.287   5.341  17.765  0.00  0.00    +0.000 A 
ATOM     18  C   UNL     1       4.057   4.543  16.912  0.00  0.00    +0.000 A 
BRANCH  13  20
ATOM     19  C   UNL     1       5.424   4.044  13.874  0.00  0.00    +0.000 C 
ATOM     20  C   UNL     1       5.926   4.229  15.284  0.00  0.00    +0.000 C 
ATOM     21  O   UNL     1       6.960   3.691  15.673  0.00  0.00    +0.000 OA
ENDBRANCH  13  20
ENDBRANCH   1  16
TORSDOF 3
ENDMDL
MODEL 4
REMARK VINA RESULT:      -6.4      0.737      1.890
REMARK  Name = 
REMARK  4 active torsions:
REMARK  status: ('A' for Active; 'I' for Inactive)
REMARK    1  A    between atoms: C_1  and  C_2
REMARK    2  A    between atoms: C_2  and  C_4
REMARK    3  A    between atoms: C_7  and  N_8
REMARK    4  A    between atoms: C_9  and  C_11
REMARK                            x       y       z     vdW  Elec       q    Type
REMARK                         _______ _______ _______ _____ _____    ______ ____
ROOT
ATOM      1  N   UNL     1       2.504   7.746  18.730  0.00  0.00    +0.000 N 
ATOM      2  C   UNL     1       1.901   8.917  18.311  0.00  0.00    +0.000 C 
ATOM      3  O   UNL     1       2.025   9.426  17.203  0.00  0.00    +0.000 OA
ATOM      4  H   UNL     1       2.195   7.363  19.613  0.00  0.00    +0.000 HD
ENDROOT
BRANCH   2   5
ATOM      5  C   UNL     1       1.016   9.519  19.287  0.00  0.00    +0.000 A 
ATOM      6  C   UNL     1       0.096  10.557  19.213  0.00  0.00    +0.000 A 
ATOM      7  C   UNL     1      -0.456  10.731  20.502  0.00  0.00    +0.000 A 
ATOM      8 BR   UNL     1      -1.727  12.051  20.897  0.00  0.00    +0.000 Br
ATOM      9  C   UNL     1       0.107   9.800  21.331  0.00  0.00    +0.000 A 
ATOM     10 BR   UNL     1      -0.215   9.547  23.147  0.00  0.00    +0.000 Br
ATOM     11  N   UNL     1       0.978   9.055  20.590  0.00  0.00    +0.000 N 
ATOM     12  H   UNL     1       1.542   8.287  20.933  0.00  0.00    +0.000 HD
ENDBRANCH   2   5
BRANCH   1  16
ATOM     13  C   UNL     1       5.030   5.255  16.438  0.00  0.00    +0.000 A 
ATOM     14  C   UNL     1       5.328   6.613  16.564  0.00  0.00    +0.000 A 
ATOM     15  C   UNL     1       4.512   7.448  17.330  0.00  0.00    +0.000 A 
ATOM     16  C   UNL     1       3.387   6.941  17.984  0.00  0.00    +0.000 A 
ATOM     17  C   UNL     1       3.113   5.572  17.895  0.00  0.00    +0.000 A 
ATOM     18  C   UNL     1       3.922   4.735  17.118  0.00  0.00    +0.000 A 
BRANCH  13  20
ATOM     19  C   UNL     1       5.417   4.085  14.172  0.00  0.00    +0.000 C 
ATOM     20  C   UNL     1       5.860   4.351  15.589  0.00  0.00    +0.000 C 
ATOM     21  O   UNL     1       6.881   3.843  16.049  0.00  0.00    +0.000 OA
ENDBRANCH  13  20
ENDBRANCH   1  16
TORSDOF 3
ENDMDL
MODEL 5
REMARK VINA RESULT:      -6.4      1.268      1.276
REMARK  Name = 
REMARK  4 active torsions:
REMARK  status: ('A' for Active; 'I' for Inactive)
REMARK    1  A    between atoms: C_1  and  C_2
REMARK    2  A    between atoms: C_2  and  C_4
REMARK    3  A    between atoms: C_7  and  N_8
REMARK    4  A    between atoms: C_9  and  C_11
REMARK                            x       y       z     vdW  Elec       q    Type
REMARK                         _______ _______ _______ _____ _____    ______ ____
ROOT
ATOM      1  N   UNL     1       2.873   7.553  18.597  0.00  0.00    +0.000 N 
ATOM      2  C   UNL     1       2.192   7.196  19.746  0.00  0.00    +0.000 C 
ATOM      3  O   UNL     1       2.271   6.113  20.314  0.00  0.00    +0.000 OA
ATOM      4  H   UNL     1       2.831   8.525  18.325  0.00  0.00    +0.000 HD
ENDROOT
BRANCH   2   5
ATOM      5  C   UNL     1       1.377   8.250  20.312  0.00  0.00    +0.000 A 
ATOM      6  C   UNL     1       0.883   8.478  21.591  0.00  0.00    +0.000 A 
ATOM      7  C   UNL     1       0.111   9.661  21.546  0.00  0.00    +0.000 A 
ATOM      8 BR   UNL     1      -0.789  10.348  23.040  0.00  0.00    +0.000 Br
ATOM      9  C   UNL     1       0.157  10.145  20.268  0.00  0.00    +0.000 A 
ATOM     10 BR   UNL     1      -0.677  11.668  19.595  0.00  0.00    +0.000 Br
ATOM     11  N   UNL     1       0.939   9.305  19.531  0.00  0.00    +0.000 N 
ATOM     12  H   UNL     1       1.160   9.409  18.548  0.00  0.00    +0.000 HD
ENDBRANCH   2   5
BRANCH   1  16
ATOM     13  C   UNL     1       5.594   5.242  16.340  0.00  0.00    +0.000 A 
ATOM     14  C   UNL     1       5.014   4.700  17.488  0.00  0.00    +0.000 A 
ATOM     15  C   UNL     1       4.100   5.444  18.238  0.00  0.00    +0.000 A 
ATOM     16  C   UNL     1       3.751   6.740  17.853  0.00  0.00    +0.000 A 
ATOM     17  C   UNL     1       4.298   7.268  16.678  0.00  0.00    +0.000 A 
ATOM     18  C   UNL     1       5.223   6.529  15.931  0.00  0.00    +0.000 A 
BRANCH  13  20
ATOM     19  C   UNL     1       6.176   3.853  14.246  0.00  0.00    +0.000 C 
ATOM     20  C   UNL     1       6.606   4.484  15.546  0.00  0.00    +0.000 C 
ATOM     21  O   UNL     1       7.760   4.387  15.956  0.00  0.00    +0.000 OA
ENDBRANCH  13  20
ENDBRANCH   1  16
TORSDOF 3
ENDMDL
MODEL 6
REMARK VINA RESULT:      -6.4      2.645      3.383
REMARK  Name = 
REMARK  4 active torsions:
REMARK  status: ('A' for Active; 'I' for Inactive)
REMARK    1  A    between atoms: C_1  and  C_2
REMARK    2  A    between atoms: C_2  and  C_4
REMARK    3  A    between atoms: C_7  and  N_8
REMARK    4  A    between atoms: C_9  and  C_11
REMARK                            x       y       z     vdW  Elec       q    Type
REMARK                         _______ _______ _______ _____ _____    ______ ____
ROOT
ATOM      1  N   UNL     1       1.925   7.910  19.464  0.00  0.00    +0.000 N 
ATOM      2  C   UNL     1       1.870   8.809  18.416  0.00  0.00    +0.000 C 
ATOM      3  O   UNL     1       2.309   8.616  17.288  0.00  0.00    +0.000 OA
ATOM      4  H   UNL     1       1.392   8.139  20.291  0.00  0.00    +0.000 HD
ENDROOT
BRANCH   2   5
ATOM      5  C   UNL     1       1.175  10.042  18.719  0.00  0.00    +0.000 A 
ATOM      6  C   UNL     1      -0.077  10.312  19.258  0.00  0.00    +0.000 A 
ATOM      7  C   UNL     1      -0.234  11.716  19.290  0.00  0.00    +0.000 A 
ATOM      8 BR   UNL     1      -1.794  12.552  19.910  0.00  0.00    +0.000 Br
ATOM      9  C   UNL     1       0.910  12.280  18.799  0.00  0.00    +0.000 A 
ATOM     10 BR   UNL     1       1.289  14.090  18.585  0.00  0.00    +0.000 Br
ATOM     11  N   UNL     1       1.768  11.269  18.476  0.00  0.00    +0.000 N 
ATOM     12  H   UNL     1       2.698  11.380  18.091  0.00  0.00    +0.000 HD
ENDBRANCH   2   5
BRANCH   1  16
ATOM     13  C   UNL     1       3.550   4.011  19.421  0.00  0.00    +0.000 A 
ATOM     14  C   UNL     1       4.088   4.994  18.588  0.00  0.00    +0.000 A 
ATOM     15  C   UNL     1       3.573   6.292  18.600  0.00  0.00    +0.000 A 
ATOM     16  C   UNL     1       2.514   6.630  19.445  0.00  0.00    +0.000 A 
ATOM     17  C   UNL     1       2.003   5.658  20.313  0.00  0.00    +0.000 A 
ATOM     18  C   UNL     1       2.510   4.354  20.294  0.00  0.00    +0.000 A 
BRANCH  13  20
ATOM     19  C   UNL     1       3.482   1.656  18.372  0.00  0.00    +0.000 C 
ATOM     20  C   UNL     1       4.053   2.606  19.395  0.00  0.00    +0.000 C 
ATOM     21  O   UNL     1       4.914   2.247  20.194  0.00  0.00    +0.000 OA
ENDBRANCH  13  20
ENDBRANCH   1  16
TORSDOF 3
ENDMDL
MODEL 7
REMARK VINA RESULT:      -6.3      2.799      3.350
REMARK  Name = 
REMARK  4 active torsions:
REMARK  status: ('A' for Active; 'I' for Inactive)
REMARK    1  A    between atoms: C_1  and  C_2
REMARK    2  A    between atoms: C_2  and  C_4
REMARK    3  A    between atoms: C_7  and  N_8
REMARK    4  A    between atoms: C_9  and  C_11
REMARK                            x       y       z     vdW  Elec       q    Type
REMARK                         _______ _______ _______ _____ _____    ______ ____
ROOT
ATOM      1  N   UNL     1       1.694   7.250  20.582  0.00  0.00    +0.000 N 
ATOM      2  C   UNL     1       1.609   8.325  19.717  0.00  0.00    +0.000 C 
ATOM      3  O   UNL     1       2.074   8.367  18.585  0.00  0.00    +0.000 OA
ATOM      4  H   UNL     1       1.137   7.296  21.424  0.00  0.00    +0.000 HD
ENDROOT
BRANCH   2   5
ATOM      5  C   UNL     1       0.845   9.445  20.227  0.00  0.00    +0.000 A 
ATOM      6  C   UNL     1       0.298   9.726  21.472  0.00  0.00    +0.000 A 
ATOM      7  C   UNL     1      -0.378  10.963  21.373  0.00  0.00    +0.000 A 
ATOM      8 BR   UNL     1      -1.307  11.735  22.807  0.00  0.00    +0.000 Br
ATOM      9  C   UNL     1      -0.222  11.427  20.096  0.00  0.00    +0.000 A 
ATOM     10 BR   UNL     1      -0.897  13.000  19.364  0.00  0.00    +0.000 Br
ATOM     11  N   UNL     1       0.535  10.521  19.412  0.00  0.00    +0.000 N 
ATOM     12  H   UNL     1       0.819  10.595  18.444  0.00  0.00    +0.000 HD
ENDBRANCH   2   5
BRANCH   1  16
ATOM     13  C   UNL     1       3.521   3.515  19.839  0.00  0.00    +0.000 A 
ATOM     14  C   UNL     1       4.104   4.681  19.339  0.00  0.00    +0.000 A 
ATOM     15  C   UNL     1       3.521   5.926  19.588  0.00  0.00    +0.000 A 
ATOM     16  C   UNL     1       2.350   6.027  20.341  0.00  0.00    +0.000 A 
ATOM     17  C   UNL     1       1.789   4.863  20.880  0.00  0.00    +0.000 A 
ATOM     18  C   UNL     1       2.365   3.614  20.622  0.00  0.00    +0.000 A 
BRANCH  13  20
ATOM     19  C   UNL     1       3.547   1.384  18.387  0.00  0.00    +0.000 C 
ATOM     20  C   UNL     1       4.098   2.169  19.550  0.00  0.00    +0.000 C 
ATOM     21  O   UNL     1       5.004   1.726  20.252  0.00  0.00    +0.000 OA
ENDBRANCH  13  20
ENDBRANCH   1  16
TORSDOF 3
ENDMDL
MODEL 8
REMARK VINA RESULT:      -6.3      4.287      8.687
REMARK  Name = 
REMARK  4 active torsions:
REMARK  status: ('A' for Active; 'I' for Inactive)
REMARK    1  A    between atoms: C_1  and  C_2
REMARK    2  A    between atoms: C_2  and  C_4
REMARK    3  A    between atoms: C_7  and  N_8
REMARK    4  A    between atoms: C_9  and  C_11
REMARK                            x       y       z     vdW  Elec       q    Type
REMARK                         _______ _______ _______ _____ _____    ______ ____
ROOT
ATOM      1  N   UNL     1       1.004   8.106  21.135  0.00  0.00    +0.000 N 
ATOM      2  C   UNL     1       1.730   7.897  19.977  0.00  0.00    +0.000 C 
ATOM      3  O   UNL     1       1.988   8.749  19.135  0.00  0.00    +0.000 OA
ATOM      4  H   UNL     1       0.996   7.355  21.811  0.00  0.00    +0.000 HD
ENDROOT
BRANCH   2   5
ATOM      5  C   UNL     1       2.251   6.554  19.830  0.00  0.00    +0.000 A 
ATOM      6  C   UNL     1       3.003   5.937  18.838  0.00  0.00    +0.000 A 
ATOM      7  C   UNL     1       3.188   4.590  19.218  0.00  0.00    +0.000 A 
ATOM      8 BR   UNL     1       4.120   3.351  18.163  0.00  0.00    +0.000 Br
ATOM      9  C   UNL     1       2.577   4.405  20.428  0.00  0.00    +0.000 A 
ATOM     10 BR   UNL     1       2.473   2.837  21.426  0.00  0.00    +0.000 Br
ATOM     11  N   UNL     1       2.031   5.598  20.805  0.00  0.00    +0.000 N 
ATOM     12  H   UNL     1       1.517   5.771  21.660  0.00  0.00    +0.000 HD
ENDBRANCH   2   5
BRANCH   1  16
ATOM     13  C   UNL     1      -0.765  11.684  22.516  0.00  0.00    +0.000 A 
ATOM     14  C   UNL     1       0.026  11.703  21.365  0.00  0.00    +0.000 A 
ATOM     15  C   UNL     1       0.606  10.527  20.886  0.00  0.00    +0.000 A 
ATOM     16  C   UNL     1       0.405   9.313  21.546  0.00  0.00    +0.000 A 
ATOM     17  C   UNL     1      -0.424   9.284  22.673  0.00  0.00    +0.000 A 
ATOM     18  C   UNL     1      -0.997  10.464  23.162  0.00  0.00    +0.000 A 
BRANCH  13  20
ATOM     19  C   UNL     1      -2.852  13.128  22.977  0.00  0.00    +0.000 C 
ATOM     20  C   UNL     1      -1.359  12.934  23.074  0.00  0.00    +0.000 C 
ATOM     21  O   UNL     1      -0.636  13.777  23.599  0.00  0.00    +0.000 OA
ENDBRANCH  13  20
ENDBRANCH   1  16
TORSDOF 3
ENDMDL
MODEL 9
REMARK VINA RESULT:      -6.3      2.817      3.229
REMARK  Name = 
REMARK  4 active torsions:
REMARK  status: ('A' for Active; 'I' for Inactive)
REMARK    1  A    between atoms: C_1  and  C_2
REMARK    2  A    between atoms: C_2  and  C_4
REMARK    3  A    between atoms: C_7  and  N_8
REMARK    4  A    between atoms: C_9  and  C_11
REMARK                            x       y       z     vdW  Elec       q    Type
REMARK                         _______ _______ _______ _____ _____    ______ ____
ROOT
ATOM      1  N   UNL     1       1.756   7.428  20.435  0.00  0.00    +0.000 N 
ATOM      2  C   UNL     1       1.611   8.431  19.495  0.00  0.00    +0.000 C 
ATOM      3  O   UNL     1       1.884   8.337  18.304  0.00  0.00    +0.000 OA
ATOM      4  H   UNL     1       1.351   7.593  21.346  0.00  0.00    +0.000 HD
ENDROOT
BRANCH   2   5
ATOM      5  C   UNL     1       1.030   9.655  20.009  0.00  0.00    +0.000 A 
ATOM      6  C   UNL     1       0.353   9.957  21.183  0.00  0.00    +0.000 A 
ATOM      7  C   UNL     1      -0.015  11.320  21.125  0.00  0.00    +0.000 A 
ATOM      8 BR   UNL     1      -0.987  12.173  22.483  0.00  0.00    +0.000 Br
ATOM      9  C   UNL     1       0.451  11.832  19.946  0.00  0.00    +0.000 A 
ATOM     10 BR   UNL     1       0.263  13.570  19.304  0.00  0.00    +0.000 Br
ATOM     11  N   UNL     1       1.101  10.831  19.284  0.00  0.00    +0.000 N 
ATOM     12  H   UNL     1       1.554  10.913  18.383  0.00  0.00    +0.000 HD
ENDBRANCH   2   5
BRANCH   1  16
ATOM     13  C   UNL     1       3.431   3.604  19.792  0.00  0.00    +0.000 A 
ATOM     14  C   UNL     1       2.223   3.723  20.484  0.00  0.00    +0.000 A 
ATOM     15  C   UNL     1       1.648   4.978  20.692  0.00  0.00    +0.000 A 
ATOM     16  C   UNL     1       2.267   6.134  20.212  0.00  0.00    +0.000 A 
ATOM     17  C   UNL     1       3.453   6.013  19.480  0.00  0.00    +0.000 A 
ATOM     18  C   UNL     1       4.038   4.757  19.280  0.00  0.00    +0.000 A 
BRANCH  13  20
ATOM     19  C   UNL     1       3.614   1.400  18.464  0.00  0.00    +0.000 C 
ATOM     20  C   UNL     1       4.089   2.279  19.595  0.00  0.00    +0.000 C 
ATOM     21  O   UNL     1       4.996   1.927  20.344  0.00  0.00    +0.000 OA
ENDBRANCH  13  20
ENDBRANCH   1  16
TORSDOF 3
ENDMDL
