MODEL 1
REMARK VINA RESULT:      -7.8      0.000      0.000
REMARK  Name = 
REMARK  10 active torsions:
REMARK  status: ('A' for Active; 'I' for Inactive)
REMARK    1  A    between atoms: C_1  and  O_2
REMARK    2  A    between atoms: O_2  and  C_3
REMARK    3  A    between atoms: C_5  and  C_6
REMARK    4  A    between atoms: C_7  and  C_8
REMARK    5  A    between atoms: C_8  and  C_10
REMARK    6  A    between atoms: C_13  and  N_14
REMARK    7  A    between atoms: C_22  and  O_23
REMARK    8  A    between atoms: O_23  and  C_24
REMARK    9  A    between atoms: C_25  and  O_26
REMARK   10  A    between atoms: O_26  and  C_27
REMARK                            x       y       z     vdW  Elec       q    Type
REMARK                         _______ _______ _______ _____ _____    ______ ____
ROOT
ATOM      1  C   UNL     1       8.405   9.094  17.799  0.00  0.00    +0.000 C 
ATOM      2  C   UNL     1       8.143   7.875  18.289  0.00  0.00    +0.000 C 
ENDROOT
BRANCH   1   5
ATOM      3  C   UNL     1      10.078  12.391  18.491  0.00  0.00    +0.000 A 
ATOM      4  C   UNL     1       9.649  11.218  17.845  0.00  0.00    +0.000 A 
ATOM      5  C   UNL     1       9.039  10.184  18.551  0.00  0.00    +0.000 A 
ATOM      6  C   UNL     1       8.940  10.299  19.936  0.00  0.00    +0.000 A 
ATOM      7  C   UNL     1       9.434  11.425  20.619  0.00  0.00    +0.000 A 
ATOM      8  C   UNL     1      10.008  12.495  19.898  0.00  0.00    +0.000 A 
BRANCH   3  10
ATOM      9  C   UNL     1      11.835  13.141  17.081  0.00  0.00    +0.000 C 
ATOM     10  O   UNL     1      10.603  13.420  17.751  0.00  0.00    +0.000 OA
ENDBRANCH   3  10
BRANCH   7  11
ATOM     11  O   UNL     1       9.234  11.302  21.973  0.00  0.00    +0.000 OA
ATOM     12  C   UNL     1       8.043  11.802  22.558  0.00  0.00    +0.000 C 
ENDBRANCH   7  11
BRANCH   8  13
ATOM     13  O   UNL     1      10.466  13.548  20.645  0.00  0.00    +0.000 OA
ATOM     14  C   UNL     1       9.675  14.712  20.815  0.00  0.00    +0.000 C 
ENDBRANCH   8  13
ENDBRANCH   1   5
BRANCH   2  15
ATOM     15  C   UNL     1       7.404   6.905  17.436  0.00  0.00    +0.000 C 
ATOM     16  O   UNL     1       7.728   6.682  16.274  0.00  0.00    +0.000 OA
BRANCH  15  17
ATOM     17  C   UNL     1       6.215   6.236  18.018  0.00  0.00    +0.000 A 
ATOM     18  C   UNL     1       4.950   6.574  17.523  0.00  0.00    +0.000 A 
ATOM     19  C   UNL     1       3.805   5.932  18.005  0.00  0.00    +0.000 A 
ATOM     20  C   UNL     1       3.922   4.940  18.989  0.00  0.00    +0.000 A 
ATOM     21  C   UNL     1       5.189   4.604  19.486  0.00  0.00    +0.000 A 
ATOM     22  C   UNL     1       6.333   5.244  18.996  0.00  0.00    +0.000 A 
BRANCH  20  23
ATOM     23  N   UNL     1       2.778   4.265  19.486  0.00  0.00    +0.000 N 
ATOM     24  C   UNL     1       2.509   2.918  19.509  0.00  0.00    +0.000 A 
ATOM     25  N   UNL     1       1.322   2.693  20.024  0.00  0.00    +0.000 NA
ATOM     26  C   UNL     1       0.887   3.947  20.326  0.00  0.00    +0.000 A 
ATOM     27  N   UNL     1       1.734   4.934  20.034  0.00  0.00    +0.000 NA
ENDBRANCH  20  23
ENDBRANCH  15  17
ENDBRANCH   2  15
TORSDOF 7
ENDMDL
MODEL 2
REMARK VINA RESULT:      -7.7      0.464      1.040
REMARK  Name = 
REMARK  10 active torsions:
REMARK  status: ('A' for Active; 'I' for Inactive)
REMARK    1  A    between atoms: C_1  and  O_2
REMARK    2  A    between atoms: O_2  and  C_3
REMARK    3  A    between atoms: C_5  and  C_6
REMARK    4  A    between atoms: C_7  and  C_8
REMARK    5  A    between atoms: C_8  and  C_10
REMARK    6  A    between atoms: C_13  and  N_14
REMARK    7  A    between atoms: C_22  and  O_23
REMARK    8  A    between atoms: O_23  and  C_24
REMARK    9  A    between atoms: C_25  and  O_26
REMARK   10  A    between atoms: O_26  and  C_27
REMARK                            x       y       z     vdW  Elec       q    Type
REMARK                         _______ _______ _______ _____ _____    ______ ____
ROOT
ATOM      1  C   UNL     1       8.689   8.790  18.257  0.00  0.00    +0.000 C 
ATOM      2  C   UNL     1       7.455   8.525  17.809  0.00  0.00    +0.000 C 
ENDROOT
BRANCH   1   5
ATOM      3  C   UNL     1       9.749  12.399  18.282  0.00  0.00    +0.000 A 
ATOM      4  C   UNL     1       9.523  11.074  17.870  0.00  0.00    +0.000 A 
ATOM      5  C   UNL     1       9.136  10.090  18.776  0.00  0.00    +0.000 A 
ATOM      6  C   UNL     1       9.061  10.427  20.125  0.00  0.00    +0.000 A 
ATOM      7  C   UNL     1       9.362  11.723  20.578  0.00  0.00    +0.000 A 
ATOM      8  C   UNL     1       9.706  12.734  19.654  0.00  0.00    +0.000 A 
BRANCH   3  10
ATOM      9  C   UNL     1      11.415  13.395  16.913  0.00  0.00    +0.000 C 
ATOM     10  O   UNL     1      10.054  13.358  17.350  0.00  0.00    +0.000 OA
ENDBRANCH   3  10
BRANCH   7  11
ATOM     11  O   UNL     1       9.230  11.807  21.943  0.00  0.00    +0.000 OA
ATOM     12  C   UNL     1       8.009  12.251  22.509  0.00  0.00    +0.000 C 
ENDBRANCH   7  11
BRANCH   8  13
ATOM     13  O   UNL     1       9.987  13.966  20.184  0.00  0.00    +0.000 OA
ATOM     14  C   UNL     1       9.037  15.015  20.117  0.00  0.00    +0.000 C 
ENDBRANCH   8  13
ENDBRANCH   1   5
BRANCH   2  15
ATOM     15  C   UNL     1       7.179   7.187  17.220  0.00  0.00    +0.000 C 
ATOM     16  O   UNL     1       7.858   6.724  16.310  0.00  0.00    +0.000 OA
BRANCH  15  17
ATOM     17  C   UNL     1       6.011   6.431  17.736  0.00  0.00    +0.000 A 
ATOM     18  C   UNL     1       6.225   5.471  18.732  0.00  0.00    +0.000 A 
ATOM     19  C   UNL     1       5.147   4.772  19.285  0.00  0.00    +0.000 A 
ATOM     20  C   UNL     1       3.843   5.034  18.843  0.00  0.00    +0.000 A 
ATOM     21  C   UNL     1       3.630   5.994  17.844  0.00  0.00    +0.000 A 
ATOM     22  C   UNL     1       4.710   6.696  17.298  0.00  0.00    +0.000 A 
BRANCH  20  23
ATOM     23  N   UNL     1       2.732   4.347  19.397  0.00  0.00    +0.000 N 
ATOM     24  C   UNL     1       2.418   3.012  19.327  0.00  0.00    +0.000 A 
ATOM     25  N   UNL     1       1.283   2.772  19.944  0.00  0.00    +0.000 NA
ATOM     26  C   UNL     1       0.928   4.004  20.402  0.00  0.00    +0.000 A 
ATOM     27  N   UNL     1       1.776   4.990  20.112  0.00  0.00    +0.000 NA
ENDBRANCH  20  23
ENDBRANCH  15  17
ENDBRANCH   2  15
TORSDOF 7
ENDMDL
MODEL 3
REMARK VINA RESULT:      -7.6      0.757      2.702
REMARK  Name = 
REMARK  10 active torsions:
REMARK  status: ('A' for Active; 'I' for Inactive)
REMARK    1  A    between atoms: C_1  and  O_2
REMARK    2  A    between atoms: O_2  and  C_3
REMARK    3  A    between atoms: C_5  and  C_6
REMARK    4  A    between atoms: C_7  and  C_8
REMARK    5  A    between atoms: C_8  and  C_10
REMARK    6  A    between atoms: C_13  and  N_14
REMARK    7  A    between atoms: C_22  and  O_23
REMARK    8  A    between atoms: O_23  and  C_24
REMARK    9  A    between atoms: C_25  and  O_26
REMARK   10  A    between atoms: O_26  and  C_27
REMARK                            x       y       z     vdW  Elec       q    Type
REMARK                         _______ _______ _______ _____ _____    ______ ____
ROOT
ATOM      1  C   UNL     1       8.641   9.034  18.172  0.00  0.00    +0.000 C 
ATOM      2  C   UNL     1       7.418   8.685  17.752  0.00  0.00    +0.000 C 
ENDROOT
BRANCH   1   5
ATOM      3  C   UNL     1       9.717  11.824  20.454  0.00  0.00    +0.000 A 
ATOM      4  C   UNL     1       9.145  10.632  19.976  0.00  0.00    +0.000 A 
ATOM      5  C   UNL     1       9.027  10.381  18.611  0.00  0.00    +0.000 A 
ATOM      6  C   UNL     1       9.411  11.381  17.721  0.00  0.00    +0.000 A 
ATOM      7  C   UNL     1       9.911  12.616  18.171  0.00  0.00    +0.000 A 
ATOM      8  C   UNL     1      10.077  12.852  19.554  0.00  0.00    +0.000 A 
BRANCH   3  10
ATOM      9  C   UNL     1       8.767  12.542  22.508  0.00  0.00    +0.000 C 
ATOM     10  O   UNL     1       9.887  12.002  21.804  0.00  0.00    +0.000 OA
ENDBRANCH   3  10
BRANCH   7  11
ATOM     11  O   UNL     1      10.207  13.440  17.112  0.00  0.00    +0.000 OA
ATOM     12  C   UNL     1      11.495  13.395  16.522  0.00  0.00    +0.000 C 
ENDBRANCH   7  11
BRANCH   8  13
ATOM     13  O   UNL     1      10.565  14.083  19.902  0.00  0.00    +0.000 OA
ATOM     14  C   UNL     1      11.962  14.319  19.953  0.00  0.00    +0.000 C 
ENDBRANCH   8  13
ENDBRANCH   1   5
BRANCH   2  15
ATOM     15  C   UNL     1       7.204   7.303  17.243  0.00  0.00    +0.000 C 
ATOM     16  O   UNL     1       7.950   6.792  16.414  0.00  0.00    +0.000 OA
BRANCH  15  17
ATOM     17  C   UNL     1       6.016   6.561  17.732  0.00  0.00    +0.000 A 
ATOM     18  C   UNL     1       6.200   5.579  18.712  0.00  0.00    +0.000 A 
ATOM     19  C   UNL     1       5.103   4.890  19.240  0.00  0.00    +0.000 A 
ATOM     20  C   UNL     1       3.809   5.187  18.790  0.00  0.00    +0.000 A 
ATOM     21  C   UNL     1       3.626   6.169  17.807  0.00  0.00    +0.000 A 
ATOM     22  C   UNL     1       4.726   6.860  17.285  0.00  0.00    +0.000 A 
BRANCH  20  23
ATOM     23  N   UNL     1       2.679   4.512  19.318  0.00  0.00    +0.000 N 
ATOM     24  C   UNL     1       2.045   3.387  18.850  0.00  0.00    +0.000 A 
ATOM     25  N   UNL     1       1.011   3.092  19.605  0.00  0.00    +0.000 NA
ATOM     26  C   UNL     1       1.049   4.067  20.554  0.00  0.00    +0.000 A 
ATOM     27  N   UNL     1       2.046   4.943  20.437  0.00  0.00    +0.000 NA
ENDBRANCH  20  23
ENDBRANCH  15  17
ENDBRANCH   2  15
TORSDOF 7
ENDMDL
MODEL 4
REMARK VINA RESULT:      -7.6      6.275      9.571
REMARK  Name = 
REMARK  10 active torsions:
REMARK  status: ('A' for Active; 'I' for Inactive)
REMARK    1  A    between atoms: C_1  and  O_2
REMARK    2  A    between atoms: O_2  and  C_3
REMARK    3  A    between atoms: C_5  and  C_6
REMARK    4  A    between atoms: C_7  and  C_8
REMARK    5  A    between atoms: C_8  and  C_10
REMARK    6  A    between atoms: C_13  and  N_14
REMARK    7  A    between atoms: C_22  and  O_23
REMARK    8  A    between atoms: O_23  and  C_24
REMARK    9  A    between atoms: C_25  and  O_26
REMARK   10  A    between atoms: O_26  and  C_27
REMARK                            x       y       z     vdW  Elec       q    Type
REMARK                         _______ _______ _______ _____ _____    ______ ____
ROOT
ATOM      1  C   UNL     1       2.609   7.772  17.783  0.00  0.00    +0.000 C 
ATOM      2  C   UNL     1       1.731   8.420  18.561  0.00  0.00    +0.000 C 
ENDROOT
BRANCH   1   5
ATOM      3  C   UNL     1       4.888   4.956  18.791  0.00  0.00    +0.000 A 
ATOM      4  C   UNL     1       4.422   6.206  18.349  0.00  0.00    +0.000 A 
ATOM      5  C   UNL     1       3.085   6.402  18.011  0.00  0.00    +0.000 A 
ATOM      6  C   UNL     1       2.230   5.303  18.036  0.00  0.00    +0.000 A 
ATOM      7  C   UNL     1       2.686   4.023  18.395  0.00  0.00    +0.000 A 
ATOM      8  C   UNL     1       4.030   3.833  18.785  0.00  0.00    +0.000 A 
BRANCH   3  10
ATOM      9  C   UNL     1       7.173   5.411  18.331  0.00  0.00    +0.000 C 
ATOM     10  O   UNL     1       6.194   4.820  19.189  0.00  0.00    +0.000 OA
ENDBRANCH   3  10
BRANCH   7  11
ATOM     11  O   UNL     1       1.666   3.104  18.331  0.00  0.00    +0.000 OA
ATOM     12  C   UNL     1       0.803   2.930  19.443  0.00  0.00    +0.000 C 
ENDBRANCH   7  11
BRANCH   8  13
ATOM     13  O   UNL     1       4.387   2.553  19.114  0.00  0.00    +0.000 OA
ATOM     14  C   UNL     1       4.330   2.108  20.459  0.00  0.00    +0.000 C 
ENDBRANCH   8  13
ENDBRANCH   1   5
BRANCH   2  15
ATOM     15  C   UNL     1       1.419   9.843  18.258  0.00  0.00    +0.000 C 
ATOM     16  O   UNL     1       2.299  10.674  18.062  0.00  0.00    +0.000 OA
BRANCH  15  17
ATOM     17  C   UNL     1      -0.007  10.252  18.247  0.00  0.00    +0.000 A 
ATOM     18  C   UNL     1      -0.399  11.325  19.057  0.00  0.00    +0.000 A 
ATOM     19  C   UNL     1      -1.721  11.780  19.039  0.00  0.00    +0.000 A 
ATOM     20  C   UNL     1      -2.662  11.160  18.205  0.00  0.00    +0.000 A 
ATOM     21  C   UNL     1      -2.269  10.084  17.396  0.00  0.00    +0.000 A 
ATOM     22  C   UNL     1      -0.943   9.637  17.412  0.00  0.00    +0.000 A 
BRANCH  20  23
ATOM     23  N   UNL     1      -4.007  11.610  18.159  0.00  0.00    +0.000 N 
ATOM     24  C   UNL     1      -4.894  11.584  17.110  0.00  0.00    +0.000 A 
ATOM     25  N   UNL     1      -6.038  12.126  17.460  0.00  0.00    +0.000 NA
ATOM     26  C   UNL     1      -5.820  12.468  18.759  0.00  0.00    +0.000 A 
ATOM     27  N   UNL     1      -4.613  12.166  19.238  0.00  0.00    +0.000 NA
ENDBRANCH  20  23
ENDBRANCH  15  17
ENDBRANCH   2  15
TORSDOF 7
ENDMDL
MODEL 5
REMARK VINA RESULT:      -7.6      6.662      9.907
REMARK  Name = 
REMARK  10 active torsions:
REMARK  status: ('A' for Active; 'I' for Inactive)
REMARK    1  A    between atoms: C_1  and  O_2
REMARK    2  A    between atoms: O_2  and  C_3
REMARK    3  A    between atoms: C_5  and  C_6
REMARK    4  A    between atoms: C_7  and  C_8
REMARK    5  A    between atoms: C_8  and  C_10
REMARK    6  A    between atoms: C_13  and  N_14
REMARK    7  A    between atoms: C_22  and  O_23
REMARK    8  A    between atoms: O_23  and  C_24
REMARK    9  A    between atoms: C_25  and  O_26
REMARK   10  A    between atoms: O_26  and  C_27
REMARK                            x       y       z     vdW  Elec       q    Type
REMARK                         _______ _______ _______ _____ _____    ______ ____
ROOT
ATOM      1  C   UNL     1       2.251   8.499  18.084  0.00  0.00    +0.000 C 
ATOM      2  C   UNL     1       1.386   9.121  18.895  0.00  0.00    +0.000 C 
ENDROOT
BRANCH   1   5
ATOM      3  C   UNL     1       2.817   5.134  19.667  0.00  0.00    +0.000 A 
ATOM      4  C   UNL     1       2.455   6.479  19.477  0.00  0.00    +0.000 A 
ATOM      5  C   UNL     1       2.848   7.182  18.341  0.00  0.00    +0.000 A 
ATOM      6  C   UNL     1       3.688   6.546  17.429  0.00  0.00    +0.000 A 
ATOM      7  C   UNL     1       4.133   5.228  17.633  0.00  0.00    +0.000 A 
ATOM      8  C   UNL     1       3.696   4.499  18.760  0.00  0.00    +0.000 A 
BRANCH   3  10
ATOM      9  C   UNL     1       1.095   3.785  20.589  0.00  0.00    +0.000 C 
ATOM     10  O   UNL     1       2.347   4.452  20.761  0.00  0.00    +0.000 OA
ENDBRANCH   3  10
BRANCH   7  11
ATOM     11  O   UNL     1       4.958   4.827  16.610  0.00  0.00    +0.000 OA
ATOM     12  C   UNL     1       6.306   5.265  16.578  0.00  0.00    +0.000 C 
ENDBRANCH   7  11
BRANCH   8  13
ATOM     13  O   UNL     1       4.183   3.225  18.881  0.00  0.00    +0.000 OA
ATOM     14  C   UNL     1       3.499   2.130  18.295  0.00  0.00    +0.000 C 
ENDBRANCH   8  13
ENDBRANCH   1   5
BRANCH   2  15
ATOM     15  C   UNL     1       0.944  10.499  18.548  0.00  0.00    +0.000 C 
ATOM     16  O   UNL     1       1.737  11.426  18.429  0.00  0.00    +0.000 OA
BRANCH  15  17
ATOM     17  C   UNL     1      -0.512  10.741  18.394  0.00  0.00    +0.000 A 
ATOM     18  C   UNL     1      -1.256   9.852  17.608  0.00  0.00    +0.000 A 
ATOM     19  C   UNL     1      -2.639  10.011  17.477  0.00  0.00    +0.000 A 
ATOM     20  C   UNL     1      -3.289  11.063  18.138  0.00  0.00    +0.000 A 
ATOM     21  C   UNL     1      -2.542  11.954  18.922  0.00  0.00    +0.000 A 
ATOM     22  C   UNL     1      -1.159  11.788  19.056  0.00  0.00    +0.000 A 
BRANCH  20  23
ATOM     23  N   UNL     1      -4.692  11.238  18.031  0.00  0.00    +0.000 N 
ATOM     24  C   UNL     1      -5.395  12.211  17.362  0.00  0.00    +0.000 A 
ATOM     25  N   UNL     1      -6.687  12.045  17.531  0.00  0.00    +0.000 NA
ATOM     26  C   UNL     1      -6.744  10.932  18.312  0.00  0.00    +0.000 A 
ATOM     27  N   UNL     1      -5.567  10.394  18.632  0.00  0.00    +0.000 NA
ENDBRANCH  20  23
ENDBRANCH  15  17
ENDBRANCH   2  15
TORSDOF 7
ENDMDL
MODEL 6
REMARK VINA RESULT:      -7.6      6.533      9.579
REMARK  Name = 
REMARK  10 active torsions:
REMARK  status: ('A' for Active; 'I' for Inactive)
REMARK    1  A    between atoms: C_1  and  O_2
REMARK    2  A    between atoms: O_2  and  C_3
REMARK    3  A    between atoms: C_5  and  C_6
REMARK    4  A    between atoms: C_7  and  C_8
REMARK    5  A    between atoms: C_8  and  C_10
REMARK    6  A    between atoms: C_13  and  N_14
REMARK    7  A    between atoms: C_22  and  O_23
REMARK    8  A    between atoms: O_23  and  C_24
REMARK    9  A    between atoms: C_25  and  O_26
REMARK   10  A    between atoms: O_26  and  C_27
REMARK                            x       y       z     vdW  Elec       q    Type
REMARK                         _______ _______ _______ _____ _____    ______ ____
ROOT
ATOM      1  C   UNL     1       2.887   7.762  17.774  0.00  0.00    +0.000 C 
ATOM      2  C   UNL     1       1.746   8.314  18.205  0.00  0.00    +0.000 C 
ENDROOT
BRANCH   1   5
ATOM      3  C   UNL     1       4.997   4.749  18.563  0.00  0.00    +0.000 A 
ATOM      4  C   UNL     1       4.602   6.039  18.168  0.00  0.00    +0.000 A 
ATOM      5  C   UNL     1       3.262   6.353  17.955  0.00  0.00    +0.000 A 
ATOM      6  C   UNL     1       2.320   5.332  18.057  0.00  0.00    +0.000 A 
ATOM      7  C   UNL     1       2.695   4.014  18.370  0.00  0.00    +0.000 A 
ATOM      8  C   UNL     1       4.047   3.705  18.635  0.00  0.00    +0.000 A 
BRANCH   3  10
ATOM      9  C   UNL     1       7.232   4.713  17.762  0.00  0.00    +0.000 C 
ATOM     10  O   UNL     1       6.317   4.498  18.839  0.00  0.00    +0.000 OA
ENDBRANCH   3  10
BRANCH   7  11
ATOM     11  O   UNL     1       1.597   3.188  18.400  0.00  0.00    +0.000 OA
ATOM     12  C   UNL     1       0.908   2.974  19.620  0.00  0.00    +0.000 C 
ENDBRANCH   7  11
BRANCH   8  13
ATOM     13  O   UNL     1       4.321   2.396  18.928  0.00  0.00    +0.000 OA
ATOM     14  C   UNL     1       4.486   1.974  20.271  0.00  0.00    +0.000 C 
ENDBRANCH   8  13
ENDBRANCH   1   5
BRANCH   2  15
ATOM     15  C   UNL     1       1.551   9.780  18.036  0.00  0.00    +0.000 C 
ATOM     16  O   UNL     1       2.450  10.515  17.643  0.00  0.00    +0.000 OA
BRANCH  15  17
ATOM     17  C   UNL     1       0.232  10.350  18.405  0.00  0.00    +0.000 A 
ATOM     18  C   UNL     1       0.188  11.344  19.389  0.00  0.00    +0.000 A 
ATOM     19  C   UNL     1      -1.027  11.948  19.733  0.00  0.00    +0.000 A 
ATOM     20  C   UNL     1      -2.208  11.558  19.087  0.00  0.00    +0.000 A 
ATOM     21  C   UNL     1      -2.163  10.560  18.103  0.00  0.00    +0.000 A 
ATOM     22  C   UNL     1      -0.945   9.963  17.758  0.00  0.00    +0.000 A 
BRANCH  20  23
ATOM     23  N   UNL     1      -3.450  12.163  19.408  0.00  0.00    +0.000 N 
ATOM     24  C   UNL     1      -3.759  13.009  20.445  0.00  0.00    +0.000 A 
ATOM     25  N   UNL     1      -5.033  13.328  20.418  0.00  0.00    +0.000 NA
ATOM     26  C   UNL     1      -5.483  12.658  19.322  0.00  0.00    +0.000 A 
ATOM     27  N   UNL     1      -4.564  11.950  18.665  0.00  0.00    +0.000 NA
ENDBRANCH  20  23
ENDBRANCH  15  17
ENDBRANCH   2  15
TORSDOF 7
ENDMDL
MODEL 7
REMARK VINA RESULT:      -7.5      6.720      9.808
REMARK  Name = 
REMARK  10 active torsions:
REMARK  status: ('A' for Active; 'I' for Inactive)
REMARK    1  A    between atoms: C_1  and  O_2
REMARK    2  A    between atoms: O_2  and  C_3
REMARK    3  A    between atoms: C_5  and  C_6
REMARK    4  A    between atoms: C_7  and  C_8
REMARK    5  A    between atoms: C_8  and  C_10
REMARK    6  A    between atoms: C_13  and  N_14
REMARK    7  A    between atoms: C_22  and  O_23
REMARK    8  A    between atoms: O_23  and  C_24
REMARK    9  A    between atoms: C_25  and  O_26
REMARK   10  A    between atoms: O_26  and  C_27
REMARK                            x       y       z     vdW  Elec       q    Type
REMARK                         _______ _______ _______ _____ _____    ______ ____
ROOT
ATOM      1  C   UNL     1       1.971   8.355  18.956  0.00  0.00    +0.000 C 
ATOM      2  C   UNL     1       1.146   8.928  18.069  0.00  0.00    +0.000 C 
ENDROOT
BRANCH   1   5
ATOM      3  C   UNL     1       3.964   5.387  17.787  0.00  0.00    +0.000 A 
ATOM      4  C   UNL     1       3.284   6.617  17.808  0.00  0.00    +0.000 A 
ATOM      5  C   UNL     1       2.466   6.975  18.877  0.00  0.00    +0.000 A 
ATOM      6  C   UNL     1       2.262   6.044  19.892  0.00  0.00    +0.000 A 
ATOM      7  C   UNL     1       2.864   4.773  19.858  0.00  0.00    +0.000 A 
ATOM      8  C   UNL     1       3.733   4.429  18.800  0.00  0.00    +0.000 A 
BRANCH   3  10
ATOM      9  C   UNL     1       6.209   5.339  17.013  0.00  0.00    +0.000 C 
ATOM     10  O   UNL     1       4.823   5.103  16.756  0.00  0.00    +0.000 OA
ENDBRANCH   3  10
BRANCH   7  11
ATOM     11  O   UNL     1       2.504   4.032  20.958  0.00  0.00    +0.000 OA
ATOM     12  C   UNL     1       1.269   3.336  20.967  0.00  0.00    +0.000 C 
ENDBRANCH   7  11
BRANCH   8  13
ATOM     13  O   UNL     1       4.271   3.171  18.846  0.00  0.00    +0.000 OA
ATOM     14  C   UNL     1       3.584   2.069  18.277  0.00  0.00    +0.000 C 
ENDBRANCH   8  13
ENDBRANCH   1   5
BRANCH   2  15
ATOM     15  C   UNL     1       0.651  10.305  18.337  0.00  0.00    +0.000 C 
ATOM     16  O   UNL     1       1.404  11.216  18.662  0.00  0.00    +0.000 OA
BRANCH  15  17
ATOM     17  C   UNL     1      -0.811  10.544  18.248  0.00  0.00    +0.000 A 
ATOM     18  C   UNL     1      -1.385  11.488  19.108  0.00  0.00    +0.000 A 
ATOM     19  C   UNL     1      -2.750  11.784  19.024  0.00  0.00    +0.000 A 
ATOM     20  C   UNL     1      -3.549  11.136  18.072  0.00  0.00    +0.000 A 
ATOM     21  C   UNL     1      -2.973  10.190  17.213  0.00  0.00    +0.000 A 
ATOM     22  C   UNL     1      -1.606   9.900  17.296  0.00  0.00    +0.000 A 
BRANCH  20  23
ATOM     23  N   UNL     1      -4.932  11.428  17.958  0.00  0.00    +0.000 N 
ATOM     24  C   UNL     1      -5.558  12.364  17.171  0.00  0.00    +0.000 A 
ATOM     25  N   UNL     1      -6.855  12.347  17.376  0.00  0.00    +0.000 NA
ATOM     26  C   UNL     1      -6.996  11.360  18.303  0.00  0.00    +0.000 A 
ATOM     27  N   UNL     1      -5.867  10.760  18.679  0.00  0.00    +0.000 NA
ENDBRANCH  20  23
ENDBRANCH  15  17
ENDBRANCH   2  15
TORSDOF 7
ENDMDL
MODEL 8
REMARK VINA RESULT:      -7.5      6.671      9.769
REMARK  Name = 
REMARK  10 active torsions:
REMARK  status: ('A' for Active; 'I' for Inactive)
REMARK    1  A    between atoms: C_1  and  O_2
REMARK    2  A    between atoms: O_2  and  C_3
REMARK    3  A    between atoms: C_5  and  C_6
REMARK    4  A    between atoms: C_7  and  C_8
REMARK    5  A    between atoms: C_8  and  C_10
REMARK    6  A    between atoms: C_13  and  N_14
REMARK    7  A    between atoms: C_22  and  O_23
REMARK    8  A    between atoms: O_23  and  C_24
REMARK    9  A    between atoms: C_25  and  O_26
REMARK   10  A    between atoms: O_26  and  C_27
REMARK                            x       y       z     vdW  Elec       q    Type
REMARK                         _______ _______ _______ _____ _____    ______ ____
ROOT
ATOM      1  C   UNL     1       2.060   8.400  18.854  0.00  0.00    +0.000 C 
ATOM      2  C   UNL     1       1.116   8.957  18.083  0.00  0.00    +0.000 C 
ENDROOT
BRANCH   1   5
ATOM      3  C   UNL     1       3.944   5.395  17.604  0.00  0.00    +0.000 A 
ATOM      4  C   UNL     1       3.295   6.640  17.654  0.00  0.00    +0.000 A 
ATOM      5  C   UNL     1       2.519   7.009  18.750  0.00  0.00    +0.000 A 
ATOM      6  C   UNL     1       2.325   6.076  19.766  0.00  0.00    +0.000 A 
ATOM      7  C   UNL     1       2.895   4.792  19.705  0.00  0.00    +0.000 A 
ATOM      8  C   UNL     1       3.723   4.435  18.618  0.00  0.00    +0.000 A 
BRANCH   3  10
ATOM      9  C   UNL     1       6.038   5.745  16.539  0.00  0.00    +0.000 C 
ATOM     10  O   UNL     1       4.763   5.097  16.544  0.00  0.00    +0.000 OA
ENDBRANCH   3  10
BRANCH   7  11
ATOM     11  O   UNL     1       2.552   4.052  20.811  0.00  0.00    +0.000 OA
ATOM     12  C   UNL     1       1.298   3.394  20.859  0.00  0.00    +0.000 C 
ENDBRANCH   7  11
BRANCH   8  13
ATOM     13  O   UNL     1       4.231   3.164  18.639  0.00  0.00    +0.000 OA
ATOM     14  C   UNL     1       3.485   2.078  18.117  0.00  0.00    +0.000 C 
ENDBRANCH   8  13
ENDBRANCH   1   5
BRANCH   2  15
ATOM     15  C   UNL     1       0.685  10.352  18.373  0.00  0.00    +0.000 C 
ATOM     16  O   UNL     1       1.478  11.216  18.732  0.00  0.00    +0.000 OA
BRANCH  15  17
ATOM     17  C   UNL     1      -0.760  10.667  18.263  0.00  0.00    +0.000 A 
ATOM     18  C   UNL     1      -1.553   9.876  17.422  0.00  0.00    +0.000 A 
ATOM     19  C   UNL     1      -2.930  10.103  17.327  0.00  0.00    +0.000 A 
ATOM     20  C   UNL     1      -3.523  11.127  18.080  0.00  0.00    +0.000 A 
ATOM     21  C   UNL     1      -2.728  11.919  18.919  0.00  0.00    +0.000 A 
ATOM     22  C   UNL     1      -1.351  11.685  19.016  0.00  0.00    +0.000 A 
BRANCH  20  23
ATOM     23  N   UNL     1      -4.918  11.369  18.011  0.00  0.00    +0.000 N 
ATOM     24  C   UNL     1      -5.944  10.711  18.646  0.00  0.00    +0.000 A 
ATOM     25  N   UNL     1      -7.104  11.218  18.295  0.00  0.00    +0.000 NA
ATOM     26  C   UNL     1      -6.747  12.214  17.438  0.00  0.00    +0.000 A 
ATOM     27  N   UNL     1      -5.437  12.359  17.241  0.00  0.00    +0.000 NA
ENDBRANCH  20  23
ENDBRANCH  15  17
ENDBRANCH   2  15
TORSDOF 7
ENDMDL
MODEL 9
REMARK VINA RESULT:      -7.5      6.681     10.034
REMARK  Name = 
REMARK  10 active torsions:
REMARK  status: ('A' for Active; 'I' for Inactive)
REMARK    1  A    between atoms: C_1  and  O_2
REMARK    2  A    between atoms: O_2  and  C_3
REMARK    3  A    between atoms: C_5  and  C_6
REMARK    4  A    between atoms: C_7  and  C_8
REMARK    5  A    between atoms: C_8  and  C_10
REMARK    6  A    between atoms: C_13  and  N_14
REMARK    7  A    between atoms: C_22  and  O_23
REMARK    8  A    between atoms: O_23  and  C_24
REMARK    9  A    between atoms: C_25  and  O_26
REMARK   10  A    between atoms: O_26  and  C_27
REMARK                            x       y       z     vdW  Elec       q    Type
REMARK                         _______ _______ _______ _____ _____    ______ ____
ROOT
ATOM      1  C   UNL     1       2.635   7.896  18.181  0.00  0.00    +0.000 C 
ATOM      2  C   UNL     1       1.438   8.416  17.877  0.00  0.00    +0.000 C 
ENDROOT
BRANCH   1   5
ATOM      3  C   UNL     1       2.170   4.178  17.861  0.00  0.00    +0.000 A 
ATOM      4  C   UNL     1       1.928   5.538  18.118  0.00  0.00    +0.000 A 
ATOM      5  C   UNL     1       2.967   6.466  18.142  0.00  0.00    +0.000 A 
ATOM      6  C   UNL     1       4.271   6.001  17.992  0.00  0.00    +0.000 A 
ATOM      7  C   UNL     1       4.550   4.635  17.816  0.00  0.00    +0.000 A 
ATOM      8  C   UNL     1       3.494   3.700  17.742  0.00  0.00    +0.000 A 
BRANCH   3  10
ATOM      9  C   UNL     1       0.654   2.749  19.001  0.00  0.00    +0.000 C 
ATOM     10  O   UNL     1       1.114   3.307  17.768  0.00  0.00    +0.000 OA
ENDBRANCH   3  10
BRANCH   7  11
ATOM     11  O   UNL     1       5.903   4.422  17.706  0.00  0.00    +0.000 OA
ATOM     12  C   UNL     1       6.605   4.911  16.575  0.00  0.00    +0.000 C 
ENDBRANCH   7  11
BRANCH   8  13
ATOM     13  O   UNL     1       3.858   2.390  17.573  0.00  0.00    +0.000 OA
ATOM     14  C   UNL     1       3.948   1.516  18.685  0.00  0.00    +0.000 C 
ENDBRANCH   8  13
ENDBRANCH   1   5
BRANCH   2  15
ATOM     15  C   UNL     1       1.224   9.877  18.061  0.00  0.00    +0.000 C 
ATOM     16  O   UNL     1       2.159  10.662  18.174  0.00  0.00    +0.000 OA
BRANCH  15  17
ATOM     17  C   UNL     1      -0.174  10.365  18.154  0.00  0.00    +0.000 A 
ATOM     18  C   UNL     1      -1.154   9.734  17.380  0.00  0.00    +0.000 A 
ATOM     19  C   UNL     1      -2.493  10.126  17.474  0.00  0.00    +0.000 A 
ATOM     20  C   UNL     1      -2.860  11.156  18.353  0.00  0.00    +0.000 A 
ATOM     21  C   UNL     1      -1.876  11.789  19.126  0.00  0.00    +0.000 A 
ATOM     22  C   UNL     1      -0.539  11.389  19.033  0.00  0.00    +0.000 A 
BRANCH  20  23
ATOM     23  N   UNL     1      -4.212  11.564  18.476  0.00  0.00    +0.000 N 
ATOM     24  C   UNL     1      -4.794  12.351  19.440  0.00  0.00    +0.000 A 
ATOM     25  N   UNL     1      -6.084  12.472  19.220  0.00  0.00    +0.000 NA
ATOM     26  C   UNL     1      -6.261  11.745  18.084  0.00  0.00    +0.000 A 
ATOM     27  N   UNL     1      -5.159  11.186  17.583  0.00  0.00    +0.000 NA
ENDBRANCH  20  23
ENDBRANCH  15  17
ENDBRANCH   2  15
TORSDOF 7
ENDMDL
