MODEL 1
REMARK VINA RESULT:     -10.0      0.000      0.000
REMARK  Name = 
REMARK  6 active torsions:
REMARK  status: ('A' for Active; 'I' for Inactive)
REMARK    1  A    between atoms: C_1  and  N_2
REMARK    2  A    between atoms: C_3  and  C_5
REMARK    3  A    between atoms: C_11  and  N_12
REMARK    4  A    between atoms: C_18  and  C_19
REMARK    5  A    between atoms: N_22  and  C_23
REMARK    6  A    between atoms: C_25  and  C_26
REMARK                            x       y       z     vdW  Elec       q    Type
REMARK                         _______ _______ _______ _____ _____    ______ ____
ROOT
ATOM      1  N   UNL     1       3.572   4.710  17.818  0.00  0.00    +0.000 N 
ATOM      2  C   UNL     1       3.339   3.303  18.198  0.00  0.00    +0.000 C 
ATOM      3  C   UNL     1       3.584   3.111  19.687  0.00  0.00    +0.000 C 
ATOM      4  C   UNL     1       2.599   3.948  20.487  0.00  0.00    +0.000 C 
ATOM      5  C   UNL     1       2.434   5.333  19.919  0.00  0.00    +0.000 A 
ATOM      6  C   UNL     1       1.813   6.321  20.711  0.00  0.00    +0.000 A 
ATOM      7  C   UNL     1       1.632   7.645  20.259  0.00  0.00    +0.000 A 
ATOM      8  C   UNL     1       2.046   7.959  18.953  0.00  0.00    +0.000 A 
ATOM      9  C   UNL     1       2.609   6.942  18.151  0.00  0.00    +0.000 A 
ATOM     10  C   UNL     1       2.868   5.645  18.622  0.00  0.00    +0.000 A 
ENDROOT
BRANCH   1  17
ATOM     11  C   UNL     1       6.300   4.259  13.537  0.00  0.00    +0.000 A 
ATOM     12  C   UNL     1       7.564   4.786  13.318  0.00  0.00    +0.000 A 
ATOM     13  N   UNL     1       7.920   5.533  14.406  0.00  0.00    +0.000 N 
ATOM     14  C   UNL     1       6.935   5.475  15.360  0.00  0.00    +0.000 A 
ATOM     15  C   UNL     1       6.894   6.036  16.632  0.00  0.00    +0.000 A 
ATOM     16  C   UNL     1       5.776   5.742  17.422  0.00  0.00    +0.000 A 
ATOM     17  C   UNL     1       4.682   4.982  16.969  0.00  0.00    +0.000 A 
ATOM     18  C   UNL     1       4.752   4.498  15.648  0.00  0.00    +0.000 A 
ATOM     19  C   UNL     1       5.902   4.699  14.846  0.00  0.00    +0.000 A 
ATOM     20  H   UNL     1       8.796   6.024  14.522  0.00  0.00    +0.000 HD
BRANCH  11  23
ATOM     21  C   UNL     1       5.736   1.403  11.190  0.00  0.00    +0.000 C 
ATOM     22  N   UNL     1       6.304   2.351  12.107  0.00  0.00    +0.000 N 
ATOM     23  C   UNL     1       5.554   3.384  12.634  0.00  0.00    +0.000 C 
ATOM     24  O   UNL     1       4.374   3.556  12.356  0.00  0.00    +0.000 OA
ATOM     25  H   UNL     1       7.304   2.366  12.240  0.00  0.00    +0.000 HD
ENDBRANCH  11  23
ENDBRANCH   1  17
BRANCH   7  26
ATOM     26  C   UNL     1       1.011   8.615  21.159  0.00  0.00    +0.000 A 
ATOM     27  C   UNL     1       1.344   9.053  22.464  0.00  0.00    +0.000 A 
ATOM     28  N   UNL     1       0.523   9.994  22.931  0.00  0.00    +0.000 NA
ATOM     29  N   UNL     1      -0.348  10.174  21.928  0.00  0.00    +0.000 N 
ATOM     30  C   UNL     1      -1.376  11.179  22.042  0.00  0.00    +0.000 C 
ATOM     31  C   UNL     1      -0.106   9.372  20.849  0.00  0.00    +0.000 A 
ENDBRANCH   7  26
BRANCH   8  32
ATOM     32  C   UNL     1       1.961   9.341  18.354  0.00  0.00    +0.000 C 
ATOM     33  F   UNL     1       2.974   9.611  17.486  0.00  0.00    +0.000 F 
ATOM     34  F   UNL     1       0.817   9.559  17.638  0.00  0.00    +0.000 F 
ENDBRANCH   8  32
TORSDOF 4
ENDMDL
MODEL 2
REMARK VINA RESULT:      -8.7      1.079      1.287
REMARK  Name = 
REMARK  6 active torsions:
REMARK  status: ('A' for Active; 'I' for Inactive)
REMARK    1  A    between atoms: C_1  and  N_2
REMARK    2  A    between atoms: C_3  and  C_5
REMARK    3  A    between atoms: C_11  and  N_12
REMARK    4  A    between atoms: C_18  and  C_19
REMARK    5  A    between atoms: N_22  and  C_23
REMARK    6  A    between atoms: C_25  and  C_26
REMARK                            x       y       z     vdW  Elec       q    Type
REMARK                         _______ _______ _______ _____ _____    ______ ____
ROOT
ATOM      1  N   UNL     1       3.906   4.506  17.436  0.00  0.00    +0.000 N 
ATOM      2  C   UNL     1       3.780   3.137  17.974  0.00  0.00    +0.000 C 
ATOM      3  C   UNL     1       4.104   3.122  19.460  0.00  0.00    +0.000 C 
ATOM      4  C   UNL     1       3.106   3.982  20.217  0.00  0.00    +0.000 C 
ATOM      5  C   UNL     1       2.828   5.286  19.516  0.00  0.00    +0.000 A 
ATOM      6  C   UNL     1       2.182   6.316  20.230  0.00  0.00    +0.000 A 
ATOM      7  C   UNL     1       1.898   7.570  19.652  0.00  0.00    +0.000 A 
ATOM      8  C   UNL     1       2.231   7.764  18.300  0.00  0.00    +0.000 A 
ATOM      9  C   UNL     1       2.819   6.701  17.582  0.00  0.00    +0.000 A 
ATOM     10  C   UNL     1       3.181   5.480  18.173  0.00  0.00    +0.000 A 
ENDROOT
BRANCH   1  17
ATOM     11  C   UNL     1       6.291   3.989  12.962  0.00  0.00    +0.000 A 
ATOM     12  C   UNL     1       7.551   4.480  12.650  0.00  0.00    +0.000 A 
ATOM     13  N   UNL     1       8.008   5.213  13.708  0.00  0.00    +0.000 N 
ATOM     14  C   UNL     1       7.096   5.181  14.734  0.00  0.00    +0.000 A 
ATOM     15  C   UNL     1       7.166   5.740  16.005  0.00  0.00    +0.000 A 
ATOM     16  C   UNL     1       6.102   5.476  16.877  0.00  0.00    +0.000 A 
ATOM     17  C   UNL     1       4.956   4.748  16.506  0.00  0.00    +0.000 A 
ATOM     18  C   UNL     1       4.914   4.266  15.183  0.00  0.00    +0.000 A 
ATOM     19  C   UNL     1       6.005   4.436  14.297  0.00  0.00    +0.000 A 
ATOM     20  H   UNL     1       8.904   5.679  13.759  0.00  0.00    +0.000 HD
BRANCH  11  23
ATOM     21  C   UNL     1       3.400   3.082  10.770  0.00  0.00    +0.000 C 
ATOM     22  N   UNL     1       4.339   3.772  11.610  0.00  0.00    +0.000 N 
ATOM     23  C   UNL     1       5.456   3.137  12.117  0.00  0.00    +0.000 C 
ATOM     24  O   UNL     1       5.712   1.962  11.889  0.00  0.00    +0.000 OA
ATOM     25  H   UNL     1       4.097   4.683  11.972  0.00  0.00    +0.000 HD
ENDBRANCH  11  23
ENDBRANCH   1  17
BRANCH   7  26
ATOM     26  C   UNL     1       1.258   8.595  20.476  0.00  0.00    +0.000 A 
ATOM     27  C   UNL     1       1.106   9.993  20.309  0.00  0.00    +0.000 A 
ATOM     28  N   UNL     1       0.416  10.570  21.294  0.00  0.00    +0.000 NA
ATOM     29  N   UNL     1       0.114   9.547  22.105  0.00  0.00    +0.000 N 
ATOM     30  C   UNL     1      -0.696   9.775  23.276  0.00  0.00    +0.000 C 
ATOM     31  C   UNL     1       0.597   8.346  21.666  0.00  0.00    +0.000 A 
ENDBRANCH   7  26
BRANCH   8  32
ATOM     32  C   UNL     1       2.031   9.066  17.565  0.00  0.00    +0.000 C 
ATOM     33  F   UNL     1       0.733   9.475  17.546  0.00  0.00    +0.000 F 
ATOM     34  F   UNL     1       2.722  10.114  18.106  0.00  0.00    +0.000 F 
ENDBRANCH   8  32
TORSDOF 4
ENDMDL
MODEL 3
REMARK VINA RESULT:      -8.5      2.119      3.360
REMARK  Name = 
REMARK  6 active torsions:
REMARK  status: ('A' for Active; 'I' for Inactive)
REMARK    1  A    between atoms: C_1  and  N_2
REMARK    2  A    between atoms: C_3  and  C_5
REMARK    3  A    between atoms: C_11  and  N_12
REMARK    4  A    between atoms: C_18  and  C_19
REMARK    5  A    between atoms: N_22  and  C_23
REMARK    6  A    between atoms: C_25  and  C_26
REMARK                            x       y       z     vdW  Elec       q    Type
REMARK                         _______ _______ _______ _____ _____    ______ ____
ROOT
ATOM      1  N   UNL     1       2.837   4.231  18.533  0.00  0.00    +0.000 N 
ATOM      2  C   UNL     1       2.484   2.922  19.116  0.00  0.00    +0.000 C 
ATOM      3  C   UNL     1       2.750   2.921  20.614  0.00  0.00    +0.000 C 
ATOM      4  C   UNL     1       1.869   3.955  21.297  0.00  0.00    +0.000 C 
ATOM      5  C   UNL     1       1.819   5.255  20.537  0.00  0.00    +0.000 A 
ATOM      6  C   UNL     1       1.314   6.400  21.185  0.00  0.00    +0.000 A 
ATOM      7  C   UNL     1       1.246   7.657  20.550  0.00  0.00    +0.000 A 
ATOM      8  C   UNL     1       1.652   7.740  19.206  0.00  0.00    +0.000 A 
ATOM      9  C   UNL     1       2.095   6.570  18.553  0.00  0.00    +0.000 A 
ATOM     10  C   UNL     1       2.245   5.335  19.203  0.00  0.00    +0.000 A 
ENDROOT
BRANCH   1  17
ATOM     11  C   UNL     1       7.326   5.964  16.854  0.00  0.00    +0.000 A 
ATOM     12  C   UNL     1       7.941   5.610  15.662  0.00  0.00    +0.000 A 
ATOM     13  N   UNL     1       7.192   4.641  15.055  0.00  0.00    +0.000 N 
ATOM     14  C   UNL     1       6.068   4.379  15.800  0.00  0.00    +0.000 A 
ATOM     15  C   UNL     1       5.012   3.511  15.542  0.00  0.00    +0.000 A 
ATOM     16  C   UNL     1       3.953   3.508  16.457  0.00  0.00    +0.000 A 
ATOM     17  C   UNL     1       3.944   4.271  17.639  0.00  0.00    +0.000 A 
ATOM     18  C   UNL     1       5.074   5.078  17.879  0.00  0.00    +0.000 A 
ATOM     19  C   UNL     1       6.126   5.178  16.937  0.00  0.00    +0.000 A 
ATOM     20  H   UNL     1       7.399   4.207  14.167  0.00  0.00    +0.000 HD
BRANCH  11  23
ATOM     21  C   UNL     1       8.246   9.379  18.070  0.00  0.00    +0.000 C 
ATOM     22  N   UNL     1       7.809   8.259  17.283  0.00  0.00    +0.000 N 
ATOM     23  C   UNL     1       7.784   6.980  17.801  0.00  0.00    +0.000 C 
ATOM     24  O   UNL     1       8.130   6.720  18.946  0.00  0.00    +0.000 OA
ATOM     25  H   UNL     1       7.677   8.380  16.290  0.00  0.00    +0.000 HD
ENDBRANCH  11  23
ENDBRANCH   1  17
BRANCH   7  26
ATOM     26  C   UNL     1       0.742   8.801  21.307  0.00  0.00    +0.000 A 
ATOM     27  C   UNL     1       1.113   9.353  22.559  0.00  0.00    +0.000 A 
ATOM     28  N   UNL     1       0.412  10.439  22.885  0.00  0.00    +0.000 NA
ATOM     29  N   UNL     1      -0.417  10.600  21.844  0.00  0.00    +0.000 N 
ATOM     30  C   UNL     1      -1.310  11.732  21.807  0.00  0.00    +0.000 C 
ATOM     31  C   UNL     1      -0.266   9.647  20.877  0.00  0.00    +0.000 A 
ENDBRANCH   7  26
BRANCH   8  32
ATOM     32  C   UNL     1       1.680   9.024  18.415  0.00  0.00    +0.000 C 
ATOM     33  F   UNL     1       2.649   9.042  17.459  0.00  0.00    +0.000 F 
ATOM     34  F   UNL     1       0.518   9.280  17.742  0.00  0.00    +0.000 F 
ENDBRANCH   8  32
TORSDOF 4
ENDMDL
MODEL 4
REMARK VINA RESULT:      -8.3      0.957      1.172
REMARK  Name = 
REMARK  6 active torsions:
REMARK  status: ('A' for Active; 'I' for Inactive)
REMARK    1  A    between atoms: C_1  and  N_2
REMARK    2  A    between atoms: C_3  and  C_5
REMARK    3  A    between atoms: C_11  and  N_12
REMARK    4  A    between atoms: C_18  and  C_19
REMARK    5  A    between atoms: N_22  and  C_23
REMARK    6  A    between atoms: C_25  and  C_26
REMARK                            x       y       z     vdW  Elec       q    Type
REMARK                         _______ _______ _______ _____ _____    ______ ____
ROOT
ATOM      1  N   UNL     1       3.910   4.102  17.612  0.00  0.00    +0.000 N 
ATOM      2  C   UNL     1       3.877   2.681  18.011  0.00  0.00    +0.000 C 
ATOM      3  C   UNL     1       4.172   2.542  19.497  0.00  0.00    +0.000 C 
ATOM      4  C   UNL     1       3.096   3.248  20.307  0.00  0.00    +0.000 C 
ATOM      5  C   UNL     1       2.735   4.591  19.729  0.00  0.00    +0.000 A 
ATOM      6  C   UNL     1       1.999   5.495  20.522  0.00  0.00    +0.000 A 
ATOM      7  C   UNL     1       1.632   6.776  20.061  0.00  0.00    +0.000 A 
ATOM      8  C   UNL     1       1.976   7.127  18.744  0.00  0.00    +0.000 A 
ATOM      9  C   UNL     1       2.657   6.186  17.942  0.00  0.00    +0.000 A 
ATOM     10  C   UNL     1       3.099   4.942  18.421  0.00  0.00    +0.000 A 
ENDROOT
BRANCH   1  17
ATOM     11  C   UNL     1       6.476   4.122  13.209  0.00  0.00    +0.000 A 
ATOM     12  C   UNL     1       7.685   4.761  12.975  0.00  0.00    +0.000 A 
ATOM     13  N   UNL     1       8.028   5.469  14.092  0.00  0.00    +0.000 N 
ATOM     14  C   UNL     1       7.093   5.276  15.079  0.00  0.00    +0.000 A 
ATOM     15  C   UNL     1       7.063   5.758  16.384  0.00  0.00    +0.000 A 
ATOM     16  C   UNL     1       6.007   5.329  17.197  0.00  0.00    +0.000 A 
ATOM     17  C   UNL     1       4.957   4.511  16.740  0.00  0.00    +0.000 A 
ATOM     18  C   UNL     1       5.007   4.112  15.390  0.00  0.00    +0.000 A 
ATOM     19  C   UNL     1       6.102   4.451  14.558  0.00  0.00    +0.000 A 
ATOM     20  H   UNL     1       8.868   6.021  14.205  0.00  0.00    +0.000 HD
BRANCH  11  23
ATOM     21  C   UNL     1       5.957   1.190  10.948  0.00  0.00    +0.000 C 
ATOM     22  N   UNL     1       6.496   2.151  11.869  0.00  0.00    +0.000 N 
ATOM     23  C   UNL     1       5.762   3.244  12.284  0.00  0.00    +0.000 C 
ATOM     24  O   UNL     1       4.622   3.463  11.898  0.00  0.00    +0.000 OA
ATOM     25  H   UNL     1       7.481   2.121  12.088  0.00  0.00    +0.000 HD
ENDBRANCH  11  23
ENDBRANCH   1  17
BRANCH   7  26
ATOM     26  C   UNL     1       0.900   7.664  20.962  0.00  0.00    +0.000 A 
ATOM     27  C   UNL     1      -0.477   7.976  21.082  0.00  0.00    +0.000 A 
ATOM     28  N   UNL     1      -0.741   8.828  22.074  0.00  0.00    +0.000 NA
ATOM     29  N   UNL     1       0.466   9.071  22.606  0.00  0.00    +0.000 N 
ATOM     30  C   UNL     1       0.580   9.921  23.765  0.00  0.00    +0.000 C 
ATOM     31  C   UNL     1       1.480   8.406  21.977  0.00  0.00    +0.000 A 
ENDBRANCH   7  26
BRANCH   8  32
ATOM     32  C   UNL     1       1.693   8.477  18.133  0.00  0.00    +0.000 C 
ATOM     33  F   UNL     1       1.906   9.508  18.995  0.00  0.00    +0.000 F 
ATOM     34  F   UNL     1       2.471   8.761  17.045  0.00  0.00    +0.000 F 
ENDBRANCH   8  32
TORSDOF 4
ENDMDL
MODEL 5
REMARK VINA RESULT:      -7.9      7.469     11.318
REMARK  Name = 
REMARK  6 active torsions:
REMARK  status: ('A' for Active; 'I' for Inactive)
REMARK    1  A    between atoms: C_1  and  N_2
REMARK    2  A    between atoms: C_3  and  C_5
REMARK    3  A    between atoms: C_11  and  N_12
REMARK    4  A    between atoms: C_18  and  C_19
REMARK    5  A    between atoms: N_22  and  C_23
REMARK    6  A    between atoms: C_25  and  C_26
REMARK                            x       y       z     vdW  Elec       q    Type
REMARK                         _______ _______ _______ _____ _____    ______ ____
ROOT
ATOM      1  N   UNL     1      -1.016  11.312  18.858  0.00  0.00    +0.000 N 
ATOM      2  C   UNL     1      -0.491   9.946  19.056  0.00  0.00    +0.000 C 
ATOM      3  C   UNL     1       0.660   9.679  18.098  0.00  0.00    +0.000 C 
ATOM      4  C   UNL     1       1.807  10.633  18.388  0.00  0.00    +0.000 C 
ATOM      5  C   UNL     1       1.332  12.043  18.626  0.00  0.00    +0.000 A 
ATOM      6  C   UNL     1       2.274  13.091  18.593  0.00  0.00    +0.000 A 
ATOM      7  C   UNL     1       1.909  14.438  18.792  0.00  0.00    +0.000 A 
ATOM      8  C   UNL     1       0.563  14.722  19.083  0.00  0.00    +0.000 A 
ATOM      9  C   UNL     1      -0.356  13.653  19.175  0.00  0.00    +0.000 A 
ATOM     10  C   UNL     1      -0.016  12.320  18.896  0.00  0.00    +0.000 A 
ENDROOT
BRANCH   1  17
ATOM     11  C   UNL     1      -6.047  12.051  19.192  0.00  0.00    +0.000 A 
ATOM     12  C   UNL     1      -6.958  11.931  18.152  0.00  0.00    +0.000 A 
ATOM     13  N   UNL     1      -6.272  11.678  16.997  0.00  0.00    +0.000 N 
ATOM     14  C   UNL     1      -4.928  11.584  17.259  0.00  0.00    +0.000 A 
ATOM     15  C   UNL     1      -3.872  11.292  16.401  0.00  0.00    +0.000 A 
ATOM     16  C   UNL     1      -2.598  11.189  16.971  0.00  0.00    +0.000 A 
ATOM     17  C   UNL     1      -2.333  11.436  18.331  0.00  0.00    +0.000 A 
ATOM     18  C   UNL     1      -3.432  11.794  19.135  0.00  0.00    +0.000 A 
ATOM     19  C   UNL     1      -4.750  11.825  18.617  0.00  0.00    +0.000 A 
ATOM     20  H   UNL     1      -6.686  11.535  16.086  0.00  0.00    +0.000 HD
BRANCH  11  23
ATOM     21  C   UNL     1      -6.346  14.010  22.363  0.00  0.00    +0.000 C 
ATOM     22  N   UNL     1      -6.109  13.593  21.009  0.00  0.00    +0.000 N 
ATOM     23  C   UNL     1      -6.360  12.299  20.598  0.00  0.00    +0.000 C 
ATOM     24  O   UNL     1      -6.793  11.436  21.350  0.00  0.00    +0.000 OA
ATOM     25  H   UNL     1      -5.597  14.204  20.390  0.00  0.00    +0.000 HD
ENDBRANCH  11  23
ENDBRANCH   1  17
BRANCH   7  26
ATOM     26  C   UNL     1       2.944  15.467  18.705  0.00  0.00    +0.000 A 
ATOM     27  C   UNL     1       3.286  16.391  17.687  0.00  0.00    +0.000 A 
ATOM     28  N   UNL     1       4.295  17.195  18.021  0.00  0.00    +0.000 NA
ATOM     29  N   UNL     1       4.613  16.799  19.262  0.00  0.00    +0.000 N 
ATOM     30  C   UNL     1       5.646  17.490  19.994  0.00  0.00    +0.000 C 
ATOM     31  C   UNL     1       3.841  15.767  19.716  0.00  0.00    +0.000 A 
ENDBRANCH   7  26
BRANCH   8  32
ATOM     32  C   UNL     1       0.020  16.116  19.271  0.00  0.00    +0.000 C 
ATOM     33  F   UNL     1      -0.411  16.683  18.110  0.00  0.00    +0.000 F 
ATOM     34  F   UNL     1      -1.056  16.178  20.112  0.00  0.00    +0.000 F 
ENDBRANCH   8  32
TORSDOF 4
ENDMDL
MODEL 6
REMARK VINA RESULT:      -7.5      5.359     11.756
REMARK  Name = 
REMARK  6 active torsions:
REMARK  status: ('A' for Active; 'I' for Inactive)
REMARK    1  A    between atoms: C_1  and  N_2
REMARK    2  A    between atoms: C_3  and  C_5
REMARK    3  A    between atoms: C_11  and  N_12
REMARK    4  A    between atoms: C_18  and  C_19
REMARK    5  A    between atoms: N_22  and  C_23
REMARK    6  A    between atoms: C_25  and  C_26
REMARK                            x       y       z     vdW  Elec       q    Type
REMARK                         _______ _______ _______ _____ _____    ______ ____
ROOT
ATOM      1  N   UNL     1      -1.852  14.262  20.650  0.00  0.00    +0.000 N 
ATOM      2  C   UNL     1      -1.047  15.429  21.061  0.00  0.00    +0.000 C 
ATOM      3  C   UNL     1       0.042  15.003  22.034  0.00  0.00    +0.000 C 
ATOM      4  C   UNL     1       0.995  14.034  21.353  0.00  0.00    +0.000 C 
ATOM      5  C   UNL     1       0.268  13.002  20.530  0.00  0.00    +0.000 A 
ATOM      6  C   UNL     1       0.972  11.859  20.100  0.00  0.00    +0.000 A 
ATOM      7  C   UNL     1       0.363  10.841  19.338  0.00  0.00    +0.000 A 
ATOM      8  C   UNL     1      -0.981  11.014  18.960  0.00  0.00    +0.000 A 
ATOM      9  C   UNL     1      -1.652  12.194  19.345  0.00  0.00    +0.000 A 
ATOM     10  C   UNL     1      -1.078  13.171  20.173  0.00  0.00    +0.000 A 
ENDROOT
BRANCH   1  17
ATOM     11  C   UNL     1      -6.555  12.306  20.834  0.00  0.00    +0.000 A 
ATOM     12  C   UNL     1      -7.653  12.884  21.455  0.00  0.00    +0.000 A 
ATOM     13  N   UNL     1      -7.244  14.019  22.097  0.00  0.00    +0.000 N 
ATOM     14  C   UNL     1      -5.906  14.230  21.876  0.00  0.00    +0.000 A 
ATOM     15  C   UNL     1      -5.089  15.277  22.291  0.00  0.00    +0.000 A 
ATOM     16  C   UNL     1      -3.761  15.263  21.847  0.00  0.00    +0.000 A 
ATOM     17  C   UNL     1      -3.209  14.222  21.078  0.00  0.00    +0.000 A 
ATOM     18  C   UNL     1      -4.069  13.156  20.748  0.00  0.00    +0.000 A 
ATOM     19  C   UNL     1      -5.439  13.172  21.102  0.00  0.00    +0.000 A 
ATOM     20  H   UNL     1      -7.839  14.645  22.622  0.00  0.00    +0.000 HD
BRANCH  11  23
ATOM     21  C   UNL     1      -7.263   8.738  19.969  0.00  0.00    +0.000 C 
ATOM     22  N   UNL     1      -7.181  10.016  20.619  0.00  0.00    +0.000 N 
ATOM     23  C   UNL     1      -6.555  11.091  20.021  0.00  0.00    +0.000 C 
ATOM     24  O   UNL     1      -6.034  11.025  18.915  0.00  0.00    +0.000 OA
ATOM     25  H   UNL     1      -7.436  10.088  21.593  0.00  0.00    +0.000 HD
ENDBRANCH  11  23
ENDBRANCH   1  17
BRANCH   7  26
ATOM     26  C   UNL     1       1.157   9.672  18.965  0.00  0.00    +0.000 A 
ATOM     27  C   UNL     1       1.907   9.361  17.804  0.00  0.00    +0.000 A 
ATOM     28  N   UNL     1       2.523   8.180  17.874  0.00  0.00    +0.000 NA
ATOM     29  N   UNL     1       2.177   7.719  19.084  0.00  0.00    +0.000 N 
ATOM     30  C   UNL     1       2.711   6.464  19.552  0.00  0.00    +0.000 C 
ATOM     31  C   UNL     1       1.358   8.568  19.774  0.00  0.00    +0.000 A 
ENDBRANCH   7  26
BRANCH   8  32
ATOM     32  C   UNL     1      -1.774   9.989  18.189  0.00  0.00    +0.000 C 
ATOM     33  F   UNL     1      -3.113  10.237  18.192  0.00  0.00    +0.000 F 
ATOM     34  F   UNL     1      -1.435   9.913  16.867  0.00  0.00    +0.000 F 
ENDBRANCH   8  32
TORSDOF 4
ENDMDL
MODEL 7
REMARK VINA RESULT:      -7.5      4.870     10.151
REMARK  Name = 
REMARK  6 active torsions:
REMARK  status: ('A' for Active; 'I' for Inactive)
REMARK    1  A    between atoms: C_1  and  N_2
REMARK    2  A    between atoms: C_3  and  C_5
REMARK    3  A    between atoms: C_11  and  N_12
REMARK    4  A    between atoms: C_18  and  C_19
REMARK    5  A    between atoms: N_22  and  C_23
REMARK    6  A    between atoms: C_25  and  C_26
REMARK                            x       y       z     vdW  Elec       q    Type
REMARK                         _______ _______ _______ _____ _____    ______ ____
ROOT
ATOM      1  N   UNL     1      -0.297  10.776  20.379  0.00  0.00    +0.000 N 
ATOM      2  C   UNL     1      -0.306  11.406  21.714  0.00  0.00    +0.000 C 
ATOM      3  C   UNL     1      -0.577  10.363  22.789  0.00  0.00    +0.000 C 
ATOM      4  C   UNL     1       0.538   9.330  22.801  0.00  0.00    +0.000 C 
ATOM      5  C   UNL     1       0.935   8.902  21.413  0.00  0.00    +0.000 A 
ATOM      6  C   UNL     1       1.718   7.739  21.259  0.00  0.00    +0.000 A 
ATOM      7  C   UNL     1       2.120   7.262  19.995  0.00  0.00    +0.000 A 
ATOM      8  C   UNL     1       1.762   8.014  18.862  0.00  0.00    +0.000 A 
ATOM      9  C   UNL     1       1.033   9.210  19.038  0.00  0.00    +0.000 A 
ATOM     10  C   UNL     1       0.558   9.645  20.285  0.00  0.00    +0.000 A 
ENDROOT
BRANCH   1  17
ATOM     11  C   UNL     1      -4.953  12.483  19.203  0.00  0.00    +0.000 A 
ATOM     12  C   UNL     1      -5.519  12.494  17.936  0.00  0.00    +0.000 A 
ATOM     13  N   UNL     1      -4.585  12.065  17.036  0.00  0.00    +0.000 N 
ATOM     14  C   UNL     1      -3.425  11.725  17.687  0.00  0.00    +0.000 A 
ATOM     15  C   UNL     1      -2.241  11.199  17.180  0.00  0.00    +0.000 A 
ATOM     16  C   UNL     1      -1.239  10.877  18.104  0.00  0.00    +0.000 A 
ATOM     17  C   UNL     1      -1.347  11.127  19.484  0.00  0.00    +0.000 A 
ATOM     18  C   UNL     1      -2.542  11.725  19.928  0.00  0.00    +0.000 A 
ATOM     19  C   UNL     1      -3.614  11.986  19.040  0.00  0.00    +0.000 A 
ATOM     20  H   UNL     1      -4.729  11.964  16.040  0.00  0.00    +0.000 HD
BRANCH  11  23
ATOM     21  C   UNL     1      -7.147  12.041  22.199  0.00  0.00    +0.000 C 
ATOM     22  N   UNL     1      -6.411  11.850  20.980  0.00  0.00    +0.000 N 
ATOM     23  C   UNL     1      -5.614  12.847  20.455  0.00  0.00    +0.000 C 
ATOM     24  O   UNL     1      -5.485  13.943  20.985  0.00  0.00    +0.000 OA
ATOM     25  H   UNL     1      -6.608  11.041  20.410  0.00  0.00    +0.000 HD
ENDBRANCH  11  23
ENDBRANCH   1  17
BRANCH   7  26
ATOM     26  C   UNL     1       2.900   6.028  19.925  0.00  0.00    +0.000 A 
ATOM     27  C   UNL     1       4.215   5.756  19.473  0.00  0.00    +0.000 A 
ATOM     28  N   UNL     1       4.566   4.477  19.610  0.00  0.00    +0.000 NA
ATOM     29  N   UNL     1       3.480   3.911  20.156  0.00  0.00    +0.000 N 
ATOM     30  C   UNL     1       3.502   2.514  20.513  0.00  0.00    +0.000 C 
ATOM     31  C   UNL     1       2.455   4.791  20.359  0.00  0.00    +0.000 A 
ENDBRANCH   7  26
BRANCH   8  32
ATOM     32  C   UNL     1       2.080   7.602  17.446  0.00  0.00    +0.000 C 
ATOM     33  F   UNL     1       3.375   7.839  17.099  0.00  0.00    +0.000 F 
ATOM     34  F   UNL     1       1.890   6.270  17.206  0.00  0.00    +0.000 F 
ENDBRANCH   8  32
TORSDOF 4
ENDMDL
MODEL 8
REMARK VINA RESULT:      -7.4      4.184      9.014
REMARK  Name = 
REMARK  6 active torsions:
REMARK  status: ('A' for Active; 'I' for Inactive)
REMARK    1  A    between atoms: C_1  and  N_2
REMARK    2  A    between atoms: C_3  and  C_5
REMARK    3  A    between atoms: C_11  and  N_12
REMARK    4  A    between atoms: C_18  and  C_19
REMARK    5  A    between atoms: N_22  and  C_23
REMARK    6  A    between atoms: C_25  and  C_26
REMARK                            x       y       z     vdW  Elec       q    Type
REMARK                         _______ _______ _______ _____ _____    ______ ____
ROOT
ATOM      1  N   UNL     1      -0.772  11.088  21.033  0.00  0.00    +0.000 N 
ATOM      2  C   UNL     1      -0.700  11.577  22.424  0.00  0.00    +0.000 C 
ATOM      3  C   UNL     1      -0.817  10.415  23.399  0.00  0.00    +0.000 C 
ATOM      4  C   UNL     1       0.351   9.460  23.210  0.00  0.00    +0.000 C 
ATOM      5  C   UNL     1       0.649   9.202  21.756  0.00  0.00    +0.000 A 
ATOM      6  C   UNL     1       1.478   8.114  21.416  0.00  0.00    +0.000 A 
ATOM      7  C   UNL     1       1.795   7.796  20.080  0.00  0.00    +0.000 A 
ATOM      8  C   UNL     1       1.298   8.635  19.067  0.00  0.00    +0.000 A 
ATOM      9  C   UNL     1       0.521   9.757  19.428  0.00  0.00    +0.000 A 
ATOM     10  C   UNL     1       0.134  10.031  20.749  0.00  0.00    +0.000 A 
ENDROOT
BRANCH   1  17
ATOM     11  C   UNL     1      -3.689  11.129  16.854  0.00  0.00    +0.000 A 
ATOM     12  C   UNL     1      -4.830  11.895  16.665  0.00  0.00    +0.000 A 
ATOM     13  N   UNL     1      -5.103  12.565  17.825  0.00  0.00    +0.000 N 
ATOM     14  C   UNL     1      -4.139  12.293  18.764  0.00  0.00    +0.000 A 
ATOM     15  C   UNL     1      -3.989  12.789  20.055  0.00  0.00    +0.000 A 
ATOM     16  C   UNL     1      -2.852  12.385  20.765  0.00  0.00    +0.000 A 
ATOM     17  C   UNL     1      -1.914  11.460  20.268  0.00  0.00    +0.000 A 
ATOM     18  C   UNL     1      -2.157  10.941  18.982  0.00  0.00    +0.000 A 
ATOM     19  C   UNL     1      -3.247  11.390  18.196  0.00  0.00    +0.000 A 
ATOM     20  H   UNL     1      -5.872  13.205  17.969  0.00  0.00    +0.000 HD
BRANCH  11  23
ATOM     21  C   UNL     1      -2.980   9.706  13.469  0.00  0.00    +0.000 C 
ATOM     22  N   UNL     1      -3.498  10.468  14.571  0.00  0.00    +0.000 N 
ATOM     23  C   UNL     1      -3.039  10.277  15.859  0.00  0.00    +0.000 C 
ATOM     24  O   UNL     1      -2.176   9.457  16.142  0.00  0.00    +0.000 OA
ATOM     25  H   UNL     1      -4.323  11.032  14.432  0.00  0.00    +0.000 HD
ENDBRANCH  11  23
ENDBRANCH   1  17
BRANCH   7  26
ATOM     26  C   UNL     1       2.633   6.628  19.815  0.00  0.00    +0.000 A 
ATOM     27  C   UNL     1       3.921   6.490  19.242  0.00  0.00    +0.000 A 
ATOM     28  N   UNL     1       4.352   5.229  19.208  0.00  0.00    +0.000 NA
ATOM     29  N   UNL     1       3.345   4.540  19.763  0.00  0.00    +0.000 N 
ATOM     30  C   UNL     1       3.471   3.117  19.958  0.00  0.00    +0.000 C 
ATOM     31  C   UNL     1       2.292   5.326  20.138  0.00  0.00    +0.000 A 
ENDBRANCH   7  26
BRANCH   8  32
ATOM     32  C   UNL     1       1.514   8.391  17.594  0.00  0.00    +0.000 C 
ATOM     33  F   UNL     1       2.779   8.682  17.184  0.00  0.00    +0.000 F 
ATOM     34  F   UNL     1       1.313   7.092  17.217  0.00  0.00    +0.000 F 
ENDBRANCH   8  32
TORSDOF 4
ENDMDL
MODEL 9
REMARK VINA RESULT:      -7.4      4.331      6.770
REMARK  Name = 
REMARK  6 active torsions:
REMARK  status: ('A' for Active; 'I' for Inactive)
REMARK    1  A    between atoms: C_1  and  N_2
REMARK    2  A    between atoms: C_3  and  C_5
REMARK    3  A    between atoms: C_11  and  N_12
REMARK    4  A    between atoms: C_18  and  C_19
REMARK    5  A    between atoms: N_22  and  C_23
REMARK    6  A    between atoms: C_25  and  C_26
REMARK                            x       y       z     vdW  Elec       q    Type
REMARK                         _______ _______ _______ _____ _____    ______ ____
ROOT
ATOM      1  N   UNL     1       0.520  10.156  18.077  0.00  0.00    +0.000 N 
ATOM      2  C   UNL     1      -0.818   9.838  17.540  0.00  0.00    +0.000 C 
ATOM      3  C   UNL     1      -1.896  10.519  18.371  0.00  0.00    +0.000 C 
ATOM      4  C   UNL     1      -1.739  12.029  18.285  0.00  0.00    +0.000 C 
ATOM      5  C   UNL     1      -0.301  12.462  18.409  0.00  0.00    +0.000 A 
ATOM      6  C   UNL     1      -0.021  13.819  18.665  0.00  0.00    +0.000 A 
ATOM      7  C   UNL     1       1.295  14.304  18.807  0.00  0.00    +0.000 A 
ATOM      8  C   UNL     1       2.355  13.395  18.633  0.00  0.00    +0.000 A 
ATOM      9  C   UNL     1       2.058  12.053  18.314  0.00  0.00    +0.000 A 
ATOM     10  C   UNL     1       0.750  11.547  18.254  0.00  0.00    +0.000 A 
ENDROOT
BRANCH   1  17
ATOM     11  C   UNL     1       3.908   6.350  18.013  0.00  0.00    +0.000 A 
ATOM     12  C   UNL     1       4.154   5.463  19.051  0.00  0.00    +0.000 A 
ATOM     13  N   UNL     1       3.409   5.838  20.133  0.00  0.00    +0.000 N 
ATOM     14  C   UNL     1       2.639   6.930  19.819  0.00  0.00    +0.000 A 
ATOM     15  C   UNL     1       1.703   7.611  20.590  0.00  0.00    +0.000 A 
ATOM     16  C   UNL     1       1.007   8.657  19.972  0.00  0.00    +0.000 A 
ATOM     17  C   UNL     1       1.261   9.089  18.657  0.00  0.00    +0.000 A 
ATOM     18  C   UNL     1       2.269   8.404  17.950  0.00  0.00    +0.000 A 
ATOM     19  C   UNL     1       2.935   7.285  18.507  0.00  0.00    +0.000 A 
ATOM     20  H   UNL     1       3.384   5.362  21.025  0.00  0.00    +0.000 HD
BRANCH  11  23
ATOM     21  C   UNL     1       5.656   4.853  15.066  0.00  0.00    +0.000 C 
ATOM     22  N   UNL     1       5.035   5.078  16.341  0.00  0.00    +0.000 N 
ATOM     23  C   UNL     1       4.484   6.300  16.670  0.00  0.00    +0.000 C 
ATOM     24  O   UNL     1       4.491   7.258  15.909  0.00  0.00    +0.000 OA
ATOM     25  H   UNL     1       5.148   4.389  17.070  0.00  0.00    +0.000 HD
ENDBRANCH  11  23
ENDBRANCH   1  17
BRANCH   7  26
ATOM     26  C   UNL     1       1.494  15.720  19.109  0.00  0.00    +0.000 A 
ATOM     27  C   UNL     1       1.831  16.829  18.294  0.00  0.00    +0.000 A 
ATOM     28  N   UNL     1       1.886  17.980  18.966  0.00  0.00    +0.000 NA
ATOM     29  N   UNL     1       1.581  17.623  20.222  0.00  0.00    +0.000 N 
ATOM     30  C   UNL     1       1.481  18.631  21.248  0.00  0.00    +0.000 C 
ATOM     31  C   UNL     1       1.344  16.285  20.363  0.00  0.00    +0.000 A 
ENDBRANCH   7  26
BRANCH   8  32
ATOM     32  C   UNL     1       3.809  13.759  18.803  0.00  0.00    +0.000 C 
ATOM     33  F   UNL     1       4.273  14.579  17.821  0.00  0.00    +0.000 F 
ATOM     34  F   UNL     1       4.076  14.420  19.969  0.00  0.00    +0.000 F 
ENDBRANCH   8  32
TORSDOF 4
ENDMDL
