MODEL 1
REMARK VINA RESULT:      -7.6      0.000      0.000
REMARK  Name = 
REMARK  5 active torsions:
REMARK  status: ('A' for Active; 'I' for Inactive)
REMARK    1  A    between atoms: C_1  and  O_2
REMARK    2  A    between atoms: O_2  and  C_3
REMARK    3  A    between atoms: N_8  and  C_9
REMARK    4  A    between atoms: C_14  and  O_15
REMARK    5  A    between atoms: O_15  and  C_16
REMARK                            x       y       z     vdW  Elec       q    Type
REMARK                         _______ _______ _______ _____ _____    ______ ____
ROOT
ATOM      1  C   UNL     1       2.057   5.102  20.359  0.00  0.00    +0.000 A 
ATOM      2  C   UNL     1       1.246   4.096  19.823  0.00  0.00    +0.000 A 
ATOM      3  C   UNL     1       1.805   3.030  19.110  0.00  0.00    +0.000 A 
ATOM      4  C   UNL     1       3.185   2.979  18.891  0.00  0.00    +0.000 A 
ATOM      5 CL   UNL     1       3.829   1.638  18.017  0.00  0.00    +0.000 Cl
ATOM      6  C   UNL     1       4.006   3.998  19.375  0.00  0.00    +0.000 A 
ATOM      7  C   UNL     1       3.437   5.020  20.143  0.00  0.00    +0.000 A 
ENDROOT
BRANCH   1  13
ATOM      8  C   UNL     1       1.009   9.711  21.153  0.00  0.00    +0.000 A 
ATOM      9  C   UNL     1       1.183  10.148  19.867  0.00  0.00    +0.000 A 
ATOM     10  C   UNL     1       1.459   9.165  18.958  0.00  0.00    +0.000 A 
ATOM     11  N   UNL     1       1.560   7.868  19.293  0.00  0.00    +0.000 NA
ATOM     12  C   UNL     1       1.384   7.534  20.583  0.00  0.00    +0.000 A 
ATOM     13  N   UNL     1       1.469   6.204  20.990  0.00  0.00    +0.000 N 
ATOM     14  N   UNL     1       1.090   8.423  21.537  0.00  0.00    +0.000 NA
ATOM     15  H   UNL     1       1.220   6.108  21.962  0.00  0.00    +0.000 HD
BRANCH   8  17
ATOM     16  C   UNL     1      -0.434  10.413  22.856  0.00  0.00    +0.000 C 
ATOM     17  O   UNL     1       0.738  10.686  22.095  0.00  0.00    +0.000 OA
ENDBRANCH   8  17
ENDBRANCH   1  13
BRANCH   6  18
ATOM     18  O   UNL     1       5.362   3.943  19.123  0.00  0.00    +0.000 OA
BRANCH  18  19
ATOM     19  C   UNL     1       5.976   5.034  18.540  0.00  0.00    +0.000 A 
ATOM     20  C   UNL     1       7.154   5.480  19.142  0.00  0.00    +0.000 A 
ATOM     21  C   UNL     1       7.842   6.573  18.610  0.00  0.00    +0.000 A 
ATOM     22  C   UNL     1       7.358   7.216  17.471  0.00  0.00    +0.000 A 
ATOM     23  C   UNL     1       6.192   6.761  16.856  0.00  0.00    +0.000 A 
ATOM     24  C   UNL     1       5.510   5.660  17.378  0.00  0.00    +0.000 A 
ENDBRANCH  18  19
ENDBRANCH   6  18
TORSDOF 4
ENDMDL
MODEL 2
REMARK VINA RESULT:      -7.6      1.042      1.204
REMARK  Name = 
REMARK  5 active torsions:
REMARK  status: ('A' for Active; 'I' for Inactive)
REMARK    1  A    between atoms: C_1  and  O_2
REMARK    2  A    between atoms: O_2  and  C_3
REMARK    3  A    between atoms: N_8  and  C_9
REMARK    4  A    between atoms: C_14  and  O_15
REMARK    5  A    between atoms: O_15  and  C_16
REMARK                            x       y       z     vdW  Elec       q    Type
REMARK                         _______ _______ _______ _____ _____    ______ ____
ROOT
ATOM      1  C   UNL     1       2.076   6.059  20.254  0.00  0.00    +0.000 A 
ATOM      2  C   UNL     1       1.512   4.802  20.499  0.00  0.00    +0.000 A 
ATOM      3  C   UNL     1       1.956   3.671  19.804  0.00  0.00    +0.000 A 
ATOM      4  C   UNL     1       2.948   3.792  18.826  0.00  0.00    +0.000 A 
ATOM      5 CL   UNL     1       3.472   2.367  18.007  0.00  0.00    +0.000 Cl
ATOM      6  C   UNL     1       3.489   5.044  18.533  0.00  0.00    +0.000 A 
ATOM      7  C   UNL     1       3.081   6.152  19.284  0.00  0.00    +0.000 A 
ENDROOT
BRANCH   1  13
ATOM      8  C   UNL     1       0.974  10.682  20.874  0.00  0.00    +0.000 A 
ATOM      9  C   UNL     1       0.909  11.018  19.548  0.00  0.00    +0.000 A 
ATOM     10  C   UNL     1       1.071   9.975  18.681  0.00  0.00    +0.000 A 
ATOM     11  N   UNL     1       1.284   8.713  19.088  0.00  0.00    +0.000 NA
ATOM     12  C   UNL     1       1.344   8.478  20.410  0.00  0.00    +0.000 A 
ATOM     13  N   UNL     1       1.556   7.189  20.894  0.00  0.00    +0.000 N 
ATOM     14  N   UNL     1       1.176   9.431  21.332  0.00  0.00    +0.000 NA
ATOM     15  H   UNL     1       1.479   7.164  21.899  0.00  0.00    +0.000 HD
BRANCH   8  17
ATOM     16  C   UNL     1      -0.539  12.066  22.000  0.00  0.00    +0.000 C 
ATOM     17  O   UNL     1       0.824  11.721  21.774  0.00  0.00    +0.000 OA
ENDBRANCH   8  17
ENDBRANCH   1  13
BRANCH   6  18
ATOM     18  O   UNL     1       4.446   5.147  17.545  0.00  0.00    +0.000 OA
BRANCH  18  19
ATOM     19  C   UNL     1       5.638   5.781  17.835  0.00  0.00    +0.000 A 
ATOM     20  C   UNL     1       6.414   5.215  18.848  0.00  0.00    +0.000 A 
ATOM     21  C   UNL     1       7.638   5.789  19.198  0.00  0.00    +0.000 A 
ATOM     22  C   UNL     1       8.092   6.926  18.529  0.00  0.00    +0.000 A 
ATOM     23  C   UNL     1       7.330   7.482  17.503  0.00  0.00    +0.000 A 
ATOM     24  C   UNL     1       6.112   6.901  17.142  0.00  0.00    +0.000 A 
ENDBRANCH  18  19
ENDBRANCH   6  18
TORSDOF 4
ENDMDL
MODEL 3
REMARK VINA RESULT:      -7.5      1.203      1.575
REMARK  Name = 
REMARK  5 active torsions:
REMARK  status: ('A' for Active; 'I' for Inactive)
REMARK    1  A    between atoms: C_1  and  O_2
REMARK    2  A    between atoms: O_2  and  C_3
REMARK    3  A    between atoms: N_8  and  C_9
REMARK    4  A    between atoms: C_14  and  O_15
REMARK    5  A    between atoms: O_15  and  C_16
REMARK                            x       y       z     vdW  Elec       q    Type
REMARK                         _______ _______ _______ _____ _____    ______ ____
ROOT
ATOM      1  C   UNL     1       2.053   6.128  20.308  0.00  0.00    +0.000 A 
ATOM      2  C   UNL     1       1.524   4.858  20.561  0.00  0.00    +0.000 A 
ATOM      3  C   UNL     1       2.001   3.736  19.875  0.00  0.00    +0.000 A 
ATOM      4  C   UNL     1       2.991   3.876  18.899  0.00  0.00    +0.000 A 
ATOM      5 CL   UNL     1       3.556   2.461  18.091  0.00  0.00    +0.000 Cl
ATOM      6  C   UNL     1       3.498   5.141  18.598  0.00  0.00    +0.000 A 
ATOM      7  C   UNL     1       3.058   6.243  19.341  0.00  0.00    +0.000 A 
ENDROOT
BRANCH   1  13
ATOM      8  C   UNL     1       0.892  10.737  20.929  0.00  0.00    +0.000 A 
ATOM      9  C   UNL     1       0.873  11.085  19.605  0.00  0.00    +0.000 A 
ATOM     10  C   UNL     1       1.076  10.052  18.735  0.00  0.00    +0.000 A 
ATOM     11  N   UNL     1       1.284   8.788  19.138  0.00  0.00    +0.000 NA
ATOM     12  C   UNL     1       1.296   8.541  20.459  0.00  0.00    +0.000 A 
ATOM     13  N   UNL     1       1.501   7.249  20.939  0.00  0.00    +0.000 N 
ATOM     14  N   UNL     1       1.086   9.484  21.383  0.00  0.00    +0.000 NA
ATOM     15  H   UNL     1       1.387   7.214  21.940  0.00  0.00    +0.000 HD
BRANCH   8  17
ATOM     16  C   UNL     1       0.272  12.975  21.213  0.00  0.00    +0.000 C 
ATOM     17  O   UNL     1       0.700  11.766  21.832  0.00  0.00    +0.000 OA
ENDBRANCH   8  17
ENDBRANCH   1  13
BRANCH   6  18
ATOM     18  O   UNL     1       4.455   5.263  17.612  0.00  0.00    +0.000 OA
BRANCH  18  19
ATOM     19  C   UNL     1       5.689   5.787  17.941  0.00  0.00    +0.000 A 
ATOM     20  C   UNL     1       6.107   6.902  17.213  0.00  0.00    +0.000 A 
ATOM     21  C   UNL     1       7.339   7.499  17.489  0.00  0.00    +0.000 A 
ATOM     22  C   UNL     1       8.153   6.985  18.500  0.00  0.00    +0.000 A 
ATOM     23  C   UNL     1       7.730   5.884  19.243  0.00  0.00    +0.000 A 
ATOM     24  C   UNL     1       6.492   5.295  18.977  0.00  0.00    +0.000 A 
ENDBRANCH  18  19
ENDBRANCH   6  18
TORSDOF 4
ENDMDL
MODEL 4
REMARK VINA RESULT:      -7.5      0.611      1.177
REMARK  Name = 
REMARK  5 active torsions:
REMARK  status: ('A' for Active; 'I' for Inactive)
REMARK    1  A    between atoms: C_1  and  O_2
REMARK    2  A    between atoms: O_2  and  C_3
REMARK    3  A    between atoms: N_8  and  C_9
REMARK    4  A    between atoms: C_14  and  O_15
REMARK    5  A    between atoms: O_15  and  C_16
REMARK                            x       y       z     vdW  Elec       q    Type
REMARK                         _______ _______ _______ _____ _____    ______ ____
ROOT
ATOM      1  C   UNL     1       2.156   5.328  20.320  0.00  0.00    +0.000 A 
ATOM      2  C   UNL     1       1.284   4.354  19.821  0.00  0.00    +0.000 A 
ATOM      3  C   UNL     1       1.776   3.230  19.148  0.00  0.00    +0.000 A 
ATOM      4  C   UNL     1       3.150   3.086  18.934  0.00  0.00    +0.000 A 
ATOM      5 CL   UNL     1       3.709   1.676  18.111  0.00  0.00    +0.000 Cl
ATOM      6  C   UNL     1       4.032   4.070  19.381  0.00  0.00    +0.000 A 
ATOM      7  C   UNL     1       3.528   5.152  20.110  0.00  0.00    +0.000 A 
ENDROOT
BRANCH   1  13
ATOM      8  C   UNL     1       1.202   9.999  20.813  0.00  0.00    +0.000 A 
ATOM      9  C   UNL     1       1.245  10.320  19.483  0.00  0.00    +0.000 A 
ATOM     10  C   UNL     1       1.425   9.260  18.640  0.00  0.00    +0.000 A 
ATOM     11  N   UNL     1       1.557   7.996  19.074  0.00  0.00    +0.000 NA
ATOM     12  C   UNL     1       1.514   7.776  20.399  0.00  0.00    +0.000 A 
ATOM     13  N   UNL     1       1.638   6.486  20.910  0.00  0.00    +0.000 N 
ATOM     14  N   UNL     1       1.320   8.747  21.297  0.00  0.00    +0.000 NA
ATOM     15  H   UNL     1       1.490   6.477  21.907  0.00  0.00    +0.000 HD
BRANCH   8  17
ATOM     16  C   UNL     1       0.378  12.170  21.093  0.00  0.00    +0.000 C 
ATOM     17  O   UNL     1       1.031  11.055  21.689  0.00  0.00    +0.000 OA
ENDBRANCH   8  17
ENDBRANCH   1  13
BRANCH   6  18
ATOM     18  O   UNL     1       5.382   3.922  19.134  0.00  0.00    +0.000 OA
BRANCH  18  19
ATOM     19  C   UNL     1       6.083   4.989  18.608  0.00  0.00    +0.000 A 
ATOM     20  C   UNL     1       5.579   5.546  17.432  0.00  0.00    +0.000 A 
ATOM     21  C   UNL     1       6.223   6.634  16.838  0.00  0.00    +0.000 A 
ATOM     22  C   UNL     1       7.370   7.171  17.425  0.00  0.00    +0.000 A 
ATOM     23  C   UNL     1       7.866   6.629  18.610  0.00  0.00    +0.000 A 
ATOM     24  C   UNL     1       7.214   5.551  19.212  0.00  0.00    +0.000 A 
ENDBRANCH  18  19
ENDBRANCH   6  18
TORSDOF 4
ENDMDL
MODEL 5
REMARK VINA RESULT:      -7.3      3.309      7.047
REMARK  Name = 
REMARK  5 active torsions:
REMARK  status: ('A' for Active; 'I' for Inactive)
REMARK    1  A    between atoms: C_1  and  O_2
REMARK    2  A    between atoms: O_2  and  C_3
REMARK    3  A    between atoms: N_8  and  C_9
REMARK    4  A    between atoms: C_14  and  O_15
REMARK    5  A    between atoms: O_15  and  C_16
REMARK                            x       y       z     vdW  Elec       q    Type
REMARK                         _______ _______ _______ _____ _____    ______ ____
ROOT
ATOM      1  C   UNL     1       3.184   7.469  17.854  0.00  0.00    +0.000 A 
ATOM      2  C   UNL     1       2.591   8.734  17.775  0.00  0.00    +0.000 A 
ATOM      3  C   UNL     1       1.718   9.178  18.774  0.00  0.00    +0.000 A 
ATOM      4  C   UNL     1       1.397   8.344  19.849  0.00  0.00    +0.000 A 
ATOM      5 CL   UNL     1       0.327   8.941  21.063  0.00  0.00    +0.000 Cl
ATOM      6  C   UNL     1       1.940   7.060  19.921  0.00  0.00    +0.000 A 
ATOM      7  C   UNL     1       2.863   6.659  18.949  0.00  0.00    +0.000 A 
ENDROOT
BRANCH   1  13
ATOM      8  C   UNL     1       6.946   5.397  15.727  0.00  0.00    +0.000 A 
ATOM      9  C   UNL     1       7.284   4.563  16.759  0.00  0.00    +0.000 A 
ATOM     10  C   UNL     1       6.432   4.592  17.826  0.00  0.00    +0.000 A 
ATOM     11  N   UNL     1       5.345   5.380  17.871  0.00  0.00    +0.000 NA
ATOM     12  C   UNL     1       5.098   6.175  16.816  0.00  0.00    +0.000 A 
ATOM     13  N   UNL     1       3.982   7.010  16.800  0.00  0.00    +0.000 N 
ATOM     14  N   UNL     1       5.863   6.198  15.720  0.00  0.00    +0.000 NA
ATOM     15  H   UNL     1       3.886   7.467  15.907  0.00  0.00    +0.000 HD
BRANCH   8  17
ATOM     16  C   UNL     1       7.233   4.766  13.492  0.00  0.00    +0.000 C 
ATOM     17  O   UNL     1       7.798   5.395  14.638  0.00  0.00    +0.000 OA
ENDBRANCH   8  17
ENDBRANCH   1  13
BRANCH   6  18
ATOM     18  O   UNL     1       1.589   6.242  20.975  0.00  0.00    +0.000 OA
BRANCH  18  19
ATOM     19  C   UNL     1       1.600   4.874  20.789  0.00  0.00    +0.000 A 
ATOM     20  C   UNL     1       2.471   4.143  21.598  0.00  0.00    +0.000 A 
ATOM     21  C   UNL     1       2.538   2.753  21.479  0.00  0.00    +0.000 A 
ATOM     22  C   UNL     1       1.727   2.091  20.556  0.00  0.00    +0.000 A 
ATOM     23  C   UNL     1       0.842   2.816  19.760  0.00  0.00    +0.000 A 
ATOM     24  C   UNL     1       0.764   4.205  19.888  0.00  0.00    +0.000 A 
ENDBRANCH  18  19
ENDBRANCH   6  18
TORSDOF 4
ENDMDL
MODEL 6
REMARK VINA RESULT:      -7.2      3.665      8.086
REMARK  Name = 
REMARK  5 active torsions:
REMARK  status: ('A' for Active; 'I' for Inactive)
REMARK    1  A    between atoms: C_1  and  O_2
REMARK    2  A    between atoms: O_2  and  C_3
REMARK    3  A    between atoms: N_8  and  C_9
REMARK    4  A    between atoms: C_14  and  O_15
REMARK    5  A    between atoms: O_15  and  C_16
REMARK                            x       y       z     vdW  Elec       q    Type
REMARK                         _______ _______ _______ _____ _____    ______ ____
ROOT
ATOM      1  C   UNL     1       2.101   7.984  18.905  0.00  0.00    +0.000 A 
ATOM      2  C   UNL     1       1.982   7.664  20.262  0.00  0.00    +0.000 A 
ATOM      3  C   UNL     1       1.156   8.417  21.105  0.00  0.00    +0.000 A 
ATOM      4  C   UNL     1       0.465   9.524  20.605  0.00  0.00    +0.000 A 
ATOM      5 CL   UNL     1      -0.552  10.412  21.680  0.00  0.00    +0.000 Cl
ATOM      6  C   UNL     1       0.608   9.889  19.266  0.00  0.00    +0.000 A 
ATOM      7  C   UNL     1       1.385   9.086  18.424  0.00  0.00    +0.000 A 
ENDROOT
BRANCH   1  13
ATOM      8  C   UNL     1       4.280   4.160  17.010  0.00  0.00    +0.000 A 
ATOM      9  C   UNL     1       3.241   3.282  17.160  0.00  0.00    +0.000 A 
ATOM     10  C   UNL     1       2.089   3.832  17.649  0.00  0.00    +0.000 A 
ATOM     11  N   UNL     1       1.978   5.132  17.967  0.00  0.00    +0.000 NA
ATOM     12  C   UNL     1       3.055   5.917  17.797  0.00  0.00    +0.000 A 
ATOM     13  N   UNL     1       3.000   7.276  18.102  0.00  0.00    +0.000 N 
ATOM     14  N   UNL     1       4.216   5.473  17.304  0.00  0.00    +0.000 NA
ATOM     15  H   UNL     1       3.852   7.741  17.830  0.00  0.00    +0.000 HD
BRANCH   8  17
ATOM     16  C   UNL     1       5.956   4.321  15.384  0.00  0.00    +0.000 C 
ATOM     17  O   UNL     1       5.461   3.628  16.526  0.00  0.00    +0.000 OA
ENDBRANCH   8  17
ENDBRANCH   1  13
BRANCH   6  18
ATOM     18  O   UNL     1      -0.060  11.003  18.800  0.00  0.00    +0.000 OA
BRANCH  18  19
ATOM     19  C   UNL     1      -1.344  10.854  18.313  0.00  0.00    +0.000 A 
ATOM     20  C   UNL     1      -2.319  11.688  18.863  0.00  0.00    +0.000 A 
ATOM     21  C   UNL     1      -3.641  11.609  18.420  0.00  0.00    +0.000 A 
ATOM     22  C   UNL     1      -3.989  10.699  17.421  0.00  0.00    +0.000 A 
ATOM     23  C   UNL     1      -3.014   9.879  16.855  0.00  0.00    +0.000 A 
ATOM     24  C   UNL     1      -1.689   9.967  17.286  0.00  0.00    +0.000 A 
ENDBRANCH  18  19
ENDBRANCH   6  18
TORSDOF 4
ENDMDL
MODEL 7
REMARK VINA RESULT:      -7.2      3.344      7.693
REMARK  Name = 
REMARK  5 active torsions:
REMARK  status: ('A' for Active; 'I' for Inactive)
REMARK    1  A    between atoms: C_1  and  O_2
REMARK    2  A    between atoms: O_2  and  C_3
REMARK    3  A    between atoms: N_8  and  C_9
REMARK    4  A    between atoms: C_14  and  O_15
REMARK    5  A    between atoms: O_15  and  C_16
REMARK                            x       y       z     vdW  Elec       q    Type
REMARK                         _______ _______ _______ _____ _____    ______ ____
ROOT
ATOM      1  C   UNL     1       2.739   6.821  18.528  0.00  0.00    +0.000 A 
ATOM      2  C   UNL     1       2.432   6.171  19.729  0.00  0.00    +0.000 A 
ATOM      3  C   UNL     1       1.695   6.820  20.725  0.00  0.00    +0.000 A 
ATOM      4  C   UNL     1       1.287   8.145  20.547  0.00  0.00    +0.000 A 
ATOM      5 CL   UNL     1       0.368   8.897  21.799  0.00  0.00    +0.000 Cl
ATOM      6  C   UNL     1       1.625   8.827  19.377  0.00  0.00    +0.000 A 
ATOM      7  C   UNL     1       2.304   8.141  18.364  0.00  0.00    +0.000 A 
ENDROOT
BRANCH   1  13
ATOM      8  C   UNL     1       6.788   5.160  16.574  0.00  0.00    +0.000 A 
ATOM      9  C   UNL     1       7.485   4.999  17.742  0.00  0.00    +0.000 A 
ATOM     10  C   UNL     1       6.772   5.259  18.878  0.00  0.00    +0.000 A 
ATOM     11  N   UNL     1       5.487   5.648  18.861  0.00  0.00    +0.000 NA
ATOM     12  C   UNL     1       4.887   5.791  17.667  0.00  0.00    +0.000 A 
ATOM     13  N   UNL     1       3.553   6.186  17.584  0.00  0.00    +0.000 N 
ATOM     14  N   UNL     1       5.498   5.539  16.505  0.00  0.00    +0.000 NA
ATOM     15  H   UNL     1       3.226   6.153  16.631  0.00  0.00    +0.000 HD
BRANCH   8  17
ATOM     16  C   UNL     1       6.672   4.380  14.372  0.00  0.00    +0.000 C 
ATOM     17  O   UNL     1       7.489   4.914  15.408  0.00  0.00    +0.000 OA
ENDBRANCH   8  17
ENDBRANCH   1  13
BRANCH   6  18
ATOM     18  O   UNL     1       1.237  10.143  19.233  0.00  0.00    +0.000 OA
BRANCH  18  19
ATOM     19  C   UNL     1      -0.045  10.416  18.797  0.00  0.00    +0.000 A 
ATOM     20  C   UNL     1      -0.722  11.442  19.459  0.00  0.00    +0.000 A 
ATOM     21  C   UNL     1      -2.019  11.787  19.074  0.00  0.00    +0.000 A 
ATOM     22  C   UNL     1      -2.639  11.112  18.022  0.00  0.00    +0.000 A 
ATOM     23  C   UNL     1      -1.959  10.101  17.346  0.00  0.00    +0.000 A 
ATOM     24  C   UNL     1      -0.656   9.764  17.720  0.00  0.00    +0.000 A 
ENDBRANCH  18  19
ENDBRANCH   6  18
TORSDOF 4
ENDMDL
MODEL 8
REMARK VINA RESULT:      -7.2      1.378      1.611
REMARK  Name = 
REMARK  5 active torsions:
REMARK  status: ('A' for Active; 'I' for Inactive)
REMARK    1  A    between atoms: C_1  and  O_2
REMARK    2  A    between atoms: O_2  and  C_3
REMARK    3  A    between atoms: N_8  and  C_9
REMARK    4  A    between atoms: C_14  and  O_15
REMARK    5  A    between atoms: O_15  and  C_16
REMARK                            x       y       z     vdW  Elec       q    Type
REMARK                         _______ _______ _______ _____ _____    ______ ____
ROOT
ATOM      1  C   UNL     1       2.271   5.430  20.241  0.00  0.00    +0.000 A 
ATOM      2  C   UNL     1       1.451   4.297  20.189  0.00  0.00    +0.000 A 
ATOM      3  C   UNL     1       1.963   3.062  19.778  0.00  0.00    +0.000 A 
ATOM      4  C   UNL     1       3.298   2.952  19.377  0.00  0.00    +0.000 A 
ATOM      5 CL   UNL     1       3.887   1.405  18.892  0.00  0.00    +0.000 Cl
ATOM      6  C   UNL     1       4.119   4.081  19.376  0.00  0.00    +0.000 A 
ATOM      7  C   UNL     1       3.608   5.293  19.854  0.00  0.00    +0.000 A 
ENDROOT
BRANCH   1  13
ATOM      8  C   UNL     1       1.345  10.113  19.820  0.00  0.00    +0.000 A 
ATOM      9  C   UNL     1       1.517  10.198  18.465  0.00  0.00    +0.000 A 
ATOM     10  C   UNL     1       1.761   9.007  17.840  0.00  0.00    +0.000 A 
ATOM     11  N   UNL     1       1.832   7.838  18.498  0.00  0.00    +0.000 NA
ATOM     12  C   UNL     1       1.661   7.853  19.831  0.00  0.00    +0.000 A 
ATOM     13  N   UNL     1       1.717   6.672  20.568  0.00  0.00    +0.000 N 
ATOM     14  N   UNL     1       1.398   8.966  20.524  0.00  0.00    +0.000 NA
ATOM     15  H   UNL     1       1.475   6.838  21.533  0.00  0.00    +0.000 HD
BRANCH   8  17
ATOM     16  C   UNL     1      -0.278  11.617  20.581  0.00  0.00    +0.000 C 
ATOM     17  O   UNL     1       1.108  11.306  20.479  0.00  0.00    +0.000 OA
ENDBRANCH   8  17
ENDBRANCH   1  13
BRANCH   6  18
ATOM     18  O   UNL     1       5.426   3.958  18.949  0.00  0.00    +0.000 OA
BRANCH  18  19
ATOM     19  C   UNL     1       5.729   4.256  17.636  0.00  0.00    +0.000 A 
ATOM     20  C   UNL     1       7.036   4.674  17.378  0.00  0.00    +0.000 A 
ATOM     21  C   UNL     1       7.427   4.986  16.074  0.00  0.00    +0.000 A 
ATOM     22  C   UNL     1       6.514   4.875  15.025  0.00  0.00    +0.000 A 
ATOM     23  C   UNL     1       5.214   4.439  15.276  0.00  0.00    +0.000 A 
ATOM     24  C   UNL     1       4.825   4.112  16.577  0.00  0.00    +0.000 A 
ENDBRANCH  18  19
ENDBRANCH   6  18
TORSDOF 4
ENDMDL
MODEL 9
REMARK VINA RESULT:      -7.2      1.202      1.557
REMARK  Name = 
REMARK  5 active torsions:
REMARK  status: ('A' for Active; 'I' for Inactive)
REMARK    1  A    between atoms: C_1  and  O_2
REMARK    2  A    between atoms: O_2  and  C_3
REMARK    3  A    between atoms: N_8  and  C_9
REMARK    4  A    between atoms: C_14  and  O_15
REMARK    5  A    between atoms: O_15  and  C_16
REMARK                            x       y       z     vdW  Elec       q    Type
REMARK                         _______ _______ _______ _____ _____    ______ ____
ROOT
ATOM      1  C   UNL     1       1.968   5.456  20.576  0.00  0.00    +0.000 A 
ATOM      2  C   UNL     1       1.177   4.307  20.464  0.00  0.00    +0.000 A 
ATOM      3  C   UNL     1       1.679   3.149  19.860  0.00  0.00    +0.000 A 
ATOM      4  C   UNL     1       2.971   3.138  19.327  0.00  0.00    +0.000 A 
ATOM      5 CL   UNL     1       3.550   1.682  18.605  0.00  0.00    +0.000 Cl
ATOM      6  C   UNL     1       3.758   4.289  19.385  0.00  0.00    +0.000 A 
ATOM      7  C   UNL     1       3.265   5.416  20.051  0.00  0.00    +0.000 A 
ENDROOT
BRANCH   1  13
ATOM      8  C   UNL     1       1.014  10.142  20.897  0.00  0.00    +0.000 A 
ATOM      9  C   UNL     1       1.158  10.434  19.568  0.00  0.00    +0.000 A 
ATOM     10  C   UNL     1       1.393   9.355  18.763  0.00  0.00    +0.000 A 
ATOM     11  N   UNL     1       1.483   8.100  19.232  0.00  0.00    +0.000 NA
ATOM     12  C   UNL     1       1.340   7.909  20.555  0.00  0.00    +0.000 A 
ATOM     13  N   UNL     1       1.416   6.630  21.101  0.00  0.00    +0.000 N 
ATOM     14  N   UNL     1       1.087   8.901  21.415  0.00  0.00    +0.000 NA
ATOM     15  H   UNL     1       1.194   6.643  22.084  0.00  0.00    +0.000 HD
BRANCH   8  17
ATOM     16  C   UNL     1      -0.471  11.146  22.401  0.00  0.00    +0.000 C 
ATOM     17  O   UNL     1       0.787  11.217  21.736  0.00  0.00    +0.000 OA
ENDBRANCH   8  17
ENDBRANCH   1  13
BRANCH   6  18
ATOM     18  O   UNL     1       5.020   4.266  18.827  0.00  0.00    +0.000 OA
BRANCH  18  19
ATOM     19  C   UNL     1       5.174   4.657  17.512  0.00  0.00    +0.000 A 
ATOM     20  C   UNL     1       5.033   6.020  17.247  0.00  0.00    +0.000 A 
ATOM     21  C   UNL     1       5.182   6.500  15.943  0.00  0.00    +0.000 A 
ATOM     22  C   UNL     1       5.480   5.618  14.904  0.00  0.00    +0.000 A 
ATOM     23  C   UNL     1       5.641   4.259  15.168  0.00  0.00    +0.000 A 
ATOM     24  C   UNL     1       5.507   3.779  16.473  0.00  0.00    +0.000 A 
ENDBRANCH  18  19
ENDBRANCH   6  18
TORSDOF 4
ENDMDL
