MODEL 1
REMARK VINA RESULT:      -6.7      0.000      0.000
REMARK  Name = 
REMARK  5 active torsions:
REMARK  status: ('A' for Active; 'I' for Inactive)
REMARK    1  A    between atoms: N_5  and  S_6
REMARK    2  A    between atoms: S_6  and  C_9
REMARK    3  A    between atoms: N_21  and  C_22
REMARK    4  A    between atoms: C_22  and  C_23
REMARK    5  A    between atoms: C_23  and  O_24
REMARK                            x       y       z     vdW  Elec       q    Type
REMARK                         _______ _______ _______ _____ _____    ______ ____
ROOT
ATOM      1  O   UNL     1       3.636   1.407  18.856  0.00  0.00    +0.000 OA
ATOM      2  C   UNL     1       3.629   2.569  19.227  0.00  0.00    +0.000 C 
ATOM      3  C   UNL     1       4.279   3.715  18.487  0.00  0.00    +0.000 C 
ATOM      4  C   UNL     1       3.987   3.796  17.006  0.00  0.00    +0.000 C 
ATOM      5  N   UNL     1       4.489   5.109  16.453  0.00  0.00    +0.000 NA
ATOM      6  C   UNL     1       3.788   6.261  17.151  0.00  0.00    +0.000 C 
ATOM      7  C   UNL     1       3.897   6.192  18.696  0.00  0.00    +0.000 C 
ATOM      8  N   UNL     1       3.711   4.836  19.197  0.00  0.00    +0.000 N 
ATOM      9  C   UNL     1       3.198   4.441  20.410  0.00  0.00    +0.000 C 
ATOM     10  O   UNL     1       2.795   5.187  21.291  0.00  0.00    +0.000 OA
ATOM     11  N   UNL     1       3.145   3.072  20.410  0.00  0.00    +0.000 N 
ENDROOT
BRANCH   5  12
ATOM     12  S   UNL     1       6.190   5.324  16.359  0.00  0.00    +0.000 S 
ATOM     13  O   UNL     1       6.457   6.738  16.507  0.00  0.00    +0.000 OA
ATOM     14  O   UNL     1       6.810   4.358  17.239  0.00  0.00    +0.000 OA
BRANCH  12  15
ATOM     15  C   UNL     1       6.588   4.872  14.688  0.00  0.00    +0.000 A 
ATOM     16  C   UNL     1       5.856   3.862  14.058  0.00  0.00    +0.000 A 
ATOM     17  C   UNL     1       6.172   3.507  12.746  0.00  0.00    +0.000 A 
ATOM     18  C   UNL     1       7.204   4.167  12.081  0.00  0.00    +0.000 A 
ATOM     19  F   UNL     1       7.494   3.829  10.818  0.00  0.00    +0.000 F 
ATOM     20  C   UNL     1       7.936   5.173  12.705  0.00  0.00    +0.000 A 
ATOM     21  C   UNL     1       7.631   5.531  14.018  0.00  0.00    +0.000 A 
ENDBRANCH  12  15
ENDBRANCH   5  12
BRANCH  11  22
ATOM     22  C   UNL     1       2.576   2.264  21.472  0.00  0.00    +0.000 C 
BRANCH  22  23
ATOM     23  C   UNL     1       1.103   2.583  21.722  0.00  0.00    +0.000 C 
BRANCH  23  24
ATOM     24  O   UNL     1       0.482   3.089  20.544  0.00  0.00    +0.000 OA
ATOM     25  H   UNL     1       1.146   3.049  19.834  0.00  0.00    +0.000 HD
ENDBRANCH  23  24
ENDBRANCH  22  23
ENDBRANCH  11  22
TORSDOF 5
ENDMDL
MODEL 2
REMARK VINA RESULT:      -6.6      1.008      1.037
REMARK  Name = 
REMARK  5 active torsions:
REMARK  status: ('A' for Active; 'I' for Inactive)
REMARK    1  A    between atoms: N_5  and  S_6
REMARK    2  A    between atoms: S_6  and  C_9
REMARK    3  A    between atoms: N_21  and  C_22
REMARK    4  A    between atoms: C_22  and  C_23
REMARK    5  A    between atoms: C_23  and  O_24
REMARK                            x       y       z     vdW  Elec       q    Type
REMARK                         _______ _______ _______ _____ _____    ______ ____
ROOT
ATOM      1  O   UNL     1       2.219   2.207  17.561  0.00  0.00    +0.000 OA
ATOM      2  C   UNL     1       2.574   3.135  18.269  0.00  0.00    +0.000 C 
ATOM      3  C   UNL     1       3.686   4.101  17.931  0.00  0.00    +0.000 C 
ATOM      4  C   UNL     1       3.652   4.688  16.538  0.00  0.00    +0.000 C 
ATOM      5  N   UNL     1       4.661   5.807  16.425  0.00  0.00    +0.000 NA
ATOM      6  C   UNL     1       4.326   6.901  17.423  0.00  0.00    +0.000 C 
ATOM      7  C   UNL     1       4.186   6.378  18.875  0.00  0.00    +0.000 C 
ATOM      8  N   UNL     1       3.461   5.114  18.933  0.00  0.00    +0.000 N 
ATOM      9  C   UNL     1       2.677   4.631  19.955  0.00  0.00    +0.000 C 
ATOM     10  O   UNL     1       2.447   5.202  21.010  0.00  0.00    +0.000 OA
ATOM     11  N   UNL     1       2.141   3.441  19.535  0.00  0.00    +0.000 N 
ENDROOT
BRANCH   5  12
ATOM     12  S   UNL     1       6.322   5.373  16.446  0.00  0.00    +0.000 S 
ATOM     13  O   UNL     1       7.080   6.578  16.704  0.00  0.00    +0.000 OA
ATOM     14  O   UNL     1       6.468   4.211  17.295  0.00  0.00    +0.000 OA
BRANCH  12  15
ATOM     15  C   UNL     1       6.656   4.873  14.775  0.00  0.00    +0.000 A 
ATOM     16  C   UNL     1       5.907   3.838  14.206  0.00  0.00    +0.000 A 
ATOM     17  C   UNL     1       6.173   3.445  12.894  0.00  0.00    +0.000 A 
ATOM     18  C   UNL     1       7.172   4.091  12.168  0.00  0.00    +0.000 A 
ATOM     19  F   UNL     1       7.414   3.716  10.905  0.00  0.00    +0.000 F 
ATOM     20  C   UNL     1       7.920   5.121  12.730  0.00  0.00    +0.000 A 
ATOM     21  C   UNL     1       7.665   5.517  14.043  0.00  0.00    +0.000 A 
ENDBRANCH  12  15
ENDBRANCH   5  12
BRANCH  11  22
ATOM     22  C   UNL     1       1.179   2.655  20.284  0.00  0.00    +0.000 C 
BRANCH  22  23
ATOM     23  C   UNL     1       1.515   2.587  21.773  0.00  0.00    +0.000 C 
BRANCH  23  24
ATOM     24  O   UNL     1       2.895   2.297  21.973  0.00  0.00    +0.000 OA
ATOM     25  H   UNL     1       3.114   1.548  21.392  0.00  0.00    +0.000 HD
ENDBRANCH  23  24
ENDBRANCH  22  23
ENDBRANCH  11  22
TORSDOF 5
ENDMDL
MODEL 3
REMARK VINA RESULT:      -6.4      7.122      9.080
REMARK  Name = 
REMARK  5 active torsions:
REMARK  status: ('A' for Active; 'I' for Inactive)
REMARK    1  A    between atoms: N_5  and  S_6
REMARK    2  A    between atoms: S_6  and  C_9
REMARK    3  A    between atoms: N_21  and  C_22
REMARK    4  A    between atoms: C_22  and  C_23
REMARK    5  A    between atoms: C_23  and  O_24
REMARK                            x       y       z     vdW  Elec       q    Type
REMARK                         _______ _______ _______ _____ _____    ______ ____
ROOT
ATOM      1  O   UNL     1      -1.931   9.723  16.769  0.00  0.00    +0.000 OA
ATOM      2  C   UNL     1      -2.073  10.388  17.782  0.00  0.00    +0.000 C 
ATOM      3  C   UNL     1      -1.221  10.261  19.024  0.00  0.00    +0.000 C 
ATOM      4  C   UNL     1       0.275  10.238  18.800  0.00  0.00    +0.000 C 
ATOM      5  N   UNL     1       0.996  10.357  20.122  0.00  0.00    +0.000 NA
ATOM      6  C   UNL     1       0.624  11.668  20.792  0.00  0.00    +0.000 C 
ATOM      7  C   UNL     1      -0.907  11.865  20.936  0.00  0.00    +0.000 C 
ATOM      8  N   UNL     1      -1.626  11.447  19.738  0.00  0.00    +0.000 N 
ATOM      9  C   UNL     1      -2.815  11.934  19.248  0.00  0.00    +0.000 C 
ATOM     10  O   UNL     1      -3.480  12.829  19.748  0.00  0.00    +0.000 OA
ATOM     11  N   UNL     1      -3.066  11.293  18.063  0.00  0.00    +0.000 N 
ENDROOT
BRANCH   5  12
ATOM     12  S   UNL     1       0.907   9.016  21.190  0.00  0.00    +0.000 S 
ATOM     13  O   UNL     1       1.748   9.313  22.330  0.00  0.00    +0.000 OA
ATOM     14  O   UNL     1      -0.489   8.680  21.369  0.00  0.00    +0.000 OA
BRANCH  12  15
ATOM     15  C   UNL     1       1.673   7.694  20.285  0.00  0.00    +0.000 A 
ATOM     16  C   UNL     1       1.637   6.396  20.804  0.00  0.00    +0.000 A 
ATOM     17  C   UNL     1       2.241   5.360  20.092  0.00  0.00    +0.000 A 
ATOM     18  C   UNL     1       2.864   5.628  18.875  0.00  0.00    +0.000 A 
ATOM     19  F   UNL     1       3.432   4.626  18.192  0.00  0.00    +0.000 F 
ATOM     20  C   UNL     1       2.903   6.918  18.354  0.00  0.00    +0.000 A 
ATOM     21  C   UNL     1       2.306   7.962  19.061  0.00  0.00    +0.000 A 
ENDBRANCH  12  15
ENDBRANCH   5  12
BRANCH  11  22
ATOM     22  C   UNL     1      -4.178  11.589  17.180  0.00  0.00    +0.000 C 
BRANCH  22  23
ATOM     23  C   UNL     1      -5.511  11.085  17.731  0.00  0.00    +0.000 C 
BRANCH  23  24
ATOM     24  O   UNL     1      -6.586  11.919  17.309  0.00  0.00    +0.000 OA
ATOM     25  H   UNL     1      -7.395  11.381  17.350  0.00  0.00    +0.000 HD
ENDBRANCH  23  24
ENDBRANCH  22  23
ENDBRANCH  11  22
TORSDOF 5
ENDMDL
MODEL 4
REMARK VINA RESULT:      -6.4      7.169      9.113
REMARK  Name = 
REMARK  5 active torsions:
REMARK  status: ('A' for Active; 'I' for Inactive)
REMARK    1  A    between atoms: N_5  and  S_6
REMARK    2  A    between atoms: S_6  and  C_9
REMARK    3  A    between atoms: N_21  and  C_22
REMARK    4  A    between atoms: C_22  and  C_23
REMARK    5  A    between atoms: C_23  and  O_24
REMARK                            x       y       z     vdW  Elec       q    Type
REMARK                         _______ _______ _______ _____ _____    ______ ____
ROOT
ATOM      1  O   UNL     1      -2.609   9.702  17.198  0.00  0.00    +0.000 OA
ATOM      2  C   UNL     1      -2.479  10.447  18.156  0.00  0.00    +0.000 C 
ATOM      3  C   UNL     1      -1.419  10.302  19.224  0.00  0.00    +0.000 C 
ATOM      4  C   UNL     1      -0.007  10.085  18.728  0.00  0.00    +0.000 C 
ATOM      5  N   UNL     1       0.967  10.207  19.876  0.00  0.00    +0.000 NA
ATOM      6  C   UNL     1       0.873  11.595  20.483  0.00  0.00    +0.000 C 
ATOM      7  C   UNL     1      -0.572  11.983  20.892  0.00  0.00    +0.000 C 
ATOM      8  N   UNL     1      -1.551  11.575  19.892  0.00  0.00    +0.000 N 
ATOM      9  C   UNL     1      -2.755  12.166  19.591  0.00  0.00    +0.000 C 
ATOM     10  O   UNL     1      -3.212  13.166  20.124  0.00  0.00    +0.000 OA
ATOM     11  N   UNL     1      -3.299  11.481  18.535  0.00  0.00    +0.000 N 
ENDROOT
BRANCH   5  12
ATOM     12  S   UNL     1       0.949   8.962  21.057  0.00  0.00    +0.000 S 
ATOM     13  O   UNL     1       1.822   9.374  22.135  0.00  0.00    +0.000 OA
ATOM     14  O   UNL     1      -0.430   8.612  21.316  0.00  0.00    +0.000 OA
BRANCH  12  15
ATOM     15  C   UNL     1       1.716   7.584  20.241  0.00  0.00    +0.000 A 
ATOM     16  C   UNL     1       2.375   7.788  19.025  0.00  0.00    +0.000 A 
ATOM     17  C   UNL     1       2.975   6.703  18.384  0.00  0.00    +0.000 A 
ATOM     18  C   UNL     1       2.917   5.438  18.964  0.00  0.00    +0.000 A 
ATOM     19  F   UNL     1       3.505   4.404  18.349  0.00  0.00    +0.000 F 
ATOM     20  C   UNL     1       2.262   5.230  20.175  0.00  0.00    +0.000 A 
ATOM     21  C   UNL     1       1.654   6.307  20.821  0.00  0.00    +0.000 A 
ENDBRANCH  12  15
ENDBRANCH   5  12
BRANCH  11  22
ATOM     22  C   UNL     1      -4.525  11.847  17.853  0.00  0.00    +0.000 C 
BRANCH  22  23
ATOM     23  C   UNL     1      -5.732  11.058  18.358  0.00  0.00    +0.000 C 
BRANCH  23  24
ATOM     24  O   UNL     1      -6.905  11.393  17.622  0.00  0.00    +0.000 OA
ATOM     25  H   UNL     1      -7.138  10.613  17.090  0.00  0.00    +0.000 HD
ENDBRANCH  23  24
ENDBRANCH  22  23
ENDBRANCH  11  22
TORSDOF 5
ENDMDL
MODEL 5
REMARK VINA RESULT:      -6.4      1.076      1.485
REMARK  Name = 
REMARK  5 active torsions:
REMARK  status: ('A' for Active; 'I' for Inactive)
REMARK    1  A    between atoms: N_5  and  S_6
REMARK    2  A    between atoms: S_6  and  C_9
REMARK    3  A    between atoms: N_21  and  C_22
REMARK    4  A    between atoms: C_22  and  C_23
REMARK    5  A    between atoms: C_23  and  O_24
REMARK                            x       y       z     vdW  Elec       q    Type
REMARK                         _______ _______ _______ _____ _____    ______ ____
ROOT
ATOM      1  O   UNL     1       2.133   2.497  17.518  0.00  0.00    +0.000 OA
ATOM      2  C   UNL     1       2.568   3.360  18.264  0.00  0.00    +0.000 C 
ATOM      3  C   UNL     1       3.749   4.251  17.955  0.00  0.00    +0.000 C 
ATOM      4  C   UNL     1       3.745   4.905  16.591  0.00  0.00    +0.000 C 
ATOM      5  N   UNL     1       4.837   5.946  16.516  0.00  0.00    +0.000 NA
ATOM      6  C   UNL     1       4.600   7.014  17.569  0.00  0.00    +0.000 C 
ATOM      7  C   UNL     1       4.436   6.435  18.997  0.00  0.00    +0.000 C 
ATOM      8  N   UNL     1       3.616   5.230  19.007  0.00  0.00    +0.000 N 
ATOM      9  C   UNL     1       2.807   4.760  20.016  0.00  0.00    +0.000 C 
ATOM     10  O   UNL     1       2.635   5.297  21.100  0.00  0.00    +0.000 OA
ATOM     11  N   UNL     1       2.175   3.638  19.549  0.00  0.00    +0.000 N 
ENDROOT
BRANCH   5  12
ATOM     12  S   UNL     1       6.458   5.384  16.491  0.00  0.00    +0.000 S 
ATOM     13  O   UNL     1       7.317   6.530  16.702  0.00  0.00    +0.000 OA
ATOM     14  O   UNL     1       6.543   4.228  17.356  0.00  0.00    +0.000 OA
BRANCH  12  15
ATOM     15  C   UNL     1       6.697   4.833  14.820  0.00  0.00    +0.000 A 
ATOM     16  C   UNL     1       7.636   5.482  14.011  0.00  0.00    +0.000 A 
ATOM     17  C   UNL     1       7.820   5.049  12.698  0.00  0.00    +0.000 A 
ATOM     18  C   UNL     1       7.076   3.975  12.213  0.00  0.00    +0.000 A 
ATOM     19  F   UNL     1       7.267   3.558  10.955  0.00  0.00    +0.000 F 
ATOM     20  C   UNL     1       6.141   3.326  13.014  0.00  0.00    +0.000 A 
ATOM     21  C   UNL     1       5.945   3.756  14.327  0.00  0.00    +0.000 A 
ENDBRANCH  12  15
ENDBRANCH   5  12
BRANCH  11  22
ATOM     22  C   UNL     1       1.163   2.894  20.275  0.00  0.00    +0.000 C 
BRANCH  22  23
ATOM     23  C   UNL     1       1.562   2.631  21.727  0.00  0.00    +0.000 C 
BRANCH  23  24
ATOM     24  O   UNL     1       2.953   2.341  21.830  0.00  0.00    +0.000 OA
ATOM     25  H   UNL     1       3.150   2.229  22.776  0.00  0.00    +0.000 HD
ENDBRANCH  23  24
ENDBRANCH  22  23
ENDBRANCH  11  22
TORSDOF 5
ENDMDL
MODEL 6
REMARK VINA RESULT:      -6.4      3.653      7.519
REMARK  Name = 
REMARK  5 active torsions:
REMARK  status: ('A' for Active; 'I' for Inactive)
REMARK    1  A    between atoms: N_5  and  S_6
REMARK    2  A    between atoms: S_6  and  C_9
REMARK    3  A    between atoms: N_21  and  C_22
REMARK    4  A    between atoms: C_22  and  C_23
REMARK    5  A    between atoms: C_23  and  O_24
REMARK                            x       y       z     vdW  Elec       q    Type
REMARK                         _______ _______ _______ _____ _____    ______ ____
ROOT
ATOM      1  O   UNL     1       4.675   3.162  13.461  0.00  0.00    +0.000 OA
ATOM      2  C   UNL     1       5.533   3.906  13.907  0.00  0.00    +0.000 C 
ATOM      3  C   UNL     1       5.534   4.484  15.303  0.00  0.00    +0.000 C 
ATOM      4  C   UNL     1       5.273   3.504  16.425  0.00  0.00    +0.000 C 
ATOM      5  N   UNL     1       5.546   4.161  17.757  0.00  0.00    +0.000 NA
ATOM      6  C   UNL     1       6.998   4.602  17.823  0.00  0.00    +0.000 C 
ATOM      7  C   UNL     1       7.416   5.496  16.628  0.00  0.00    +0.000 C 
ATOM      8  N   UNL     1       6.877   5.008  15.365  0.00  0.00    +0.000 N 
ATOM      9  C   UNL     1       7.413   5.138  14.105  0.00  0.00    +0.000 C 
ATOM     10  O   UNL     1       8.466   5.695  13.832  0.00  0.00    +0.000 OA
ATOM     11  N   UNL     1       6.597   4.459  13.238  0.00  0.00    +0.000 N 
ENDROOT
BRANCH   5  12
ATOM     12  S   UNL     1       4.456   5.384  18.269  0.00  0.00    +0.000 S 
ATOM     13  O   UNL     1       5.212   6.342  19.046  0.00  0.00    +0.000 OA
ATOM     14  O   UNL     1       3.688   5.807  17.118  0.00  0.00    +0.000 OA
BRANCH  12  15
ATOM     15  C   UNL     1       3.354   4.541  19.378  0.00  0.00    +0.000 A 
ATOM     16  C   UNL     1       3.715   3.287  19.880  0.00  0.00    +0.000 A 
ATOM     17  C   UNL     1       2.847   2.625  20.750  0.00  0.00    +0.000 A 
ATOM     18  C   UNL     1       1.642   3.223  21.111  0.00  0.00    +0.000 A 
ATOM     19  F   UNL     1       0.819   2.587  21.955  0.00  0.00    +0.000 F 
ATOM     20  C   UNL     1       1.279   4.471  20.614  0.00  0.00    +0.000 A 
ATOM     21  C   UNL     1       2.137   5.138  19.739  0.00  0.00    +0.000 A 
ENDBRANCH  12  15
ENDBRANCH   5  12
BRANCH  11  22
ATOM     22  C   UNL     1       6.863   4.273  11.824  0.00  0.00    +0.000 C 
BRANCH  22  23
ATOM     23  C   UNL     1       7.424   2.887  11.513  0.00  0.00    +0.000 C 
BRANCH  23  24
ATOM     24  O   UNL     1       6.396   1.902  11.538  0.00  0.00    +0.000 OA
ATOM     25  H   UNL     1       5.566   2.352  11.305  0.00  0.00    +0.000 HD
ENDBRANCH  23  24
ENDBRANCH  22  23
ENDBRANCH  11  22
TORSDOF 5
ENDMDL
MODEL 7
REMARK VINA RESULT:      -6.4      1.513      1.966
REMARK  Name = 
REMARK  5 active torsions:
REMARK  status: ('A' for Active; 'I' for Inactive)
REMARK    1  A    between atoms: N_5  and  S_6
REMARK    2  A    between atoms: S_6  and  C_9
REMARK    3  A    between atoms: N_21  and  C_22
REMARK    4  A    between atoms: C_22  and  C_23
REMARK    5  A    between atoms: C_23  and  O_24
REMARK                            x       y       z     vdW  Elec       q    Type
REMARK                         _______ _______ _______ _____ _____    ______ ____
ROOT
ATOM      1  O   UNL     1       1.428   4.078  17.183  0.00  0.00    +0.000 OA
ATOM      2  C   UNL     1       2.283   4.244  18.038  0.00  0.00    +0.000 C 
ATOM      3  C   UNL     1       3.764   4.371  17.764  0.00  0.00    +0.000 C 
ATOM      4  C   UNL     1       4.152   5.328  16.659  0.00  0.00    +0.000 C 
ATOM      5  N   UNL     1       5.647   5.540  16.663  0.00  0.00    +0.000 NA
ATOM      6  C   UNL     1       6.078   6.133  17.993  0.00  0.00    +0.000 C 
ATOM      7  C   UNL     1       5.597   5.304  19.211  0.00  0.00    +0.000 C 
ATOM      8  N   UNL     1       4.225   4.838  19.049  0.00  0.00    +0.000 N 
ATOM      9  C   UNL     1       3.290   4.591  20.027  0.00  0.00    +0.000 C 
ATOM     10  O   UNL     1       3.460   4.732  21.229  0.00  0.00    +0.000 OA
ATOM     11  N   UNL     1       2.121   4.244  19.401  0.00  0.00    +0.000 N 
ENDROOT
BRANCH   5  12
ATOM     12  S   UNL     1       6.630   4.221  16.173  0.00  0.00    +0.000 S 
ATOM     13  O   UNL     1       7.913   4.370  16.826  0.00  0.00    +0.000 OA
ATOM     14  O   UNL     1       5.858   3.008  16.330  0.00  0.00    +0.000 OA
BRANCH  12  15
ATOM     15  C   UNL     1       6.876   4.489  14.435  0.00  0.00    +0.000 A 
ATOM     16  C   UNL     1       7.792   5.458  14.014  0.00  0.00    +0.000 A 
ATOM     17  C   UNL     1       7.982   5.669  12.648  0.00  0.00    +0.000 A 
ATOM     18  C   UNL     1       7.266   4.910  11.724  0.00  0.00    +0.000 A 
ATOM     19  F   UNL     1       7.462   5.110  10.415  0.00  0.00    +0.000 F 
ATOM     20  C   UNL     1       6.353   3.944  12.139  0.00  0.00    +0.000 A 
ATOM     21  C   UNL     1       6.152   3.730  13.503  0.00  0.00    +0.000 A 
ENDBRANCH  12  15
ENDBRANCH   5  12
BRANCH  11  22
ATOM     22  C   UNL     1       0.862   3.995  20.077  0.00  0.00    +0.000 C 
BRANCH  22  23
ATOM     23  C   UNL     1       0.836   2.642  20.785  0.00  0.00    +0.000 C 
BRANCH  23  24
ATOM     24  O   UNL     1       1.487   2.715  22.050  0.00  0.00    +0.000 OA
ATOM     25  H   UNL     1       1.476   3.648  22.321  0.00  0.00    +0.000 HD
ENDBRANCH  23  24
ENDBRANCH  22  23
ENDBRANCH  11  22
TORSDOF 5
ENDMDL
MODEL 8
REMARK VINA RESULT:      -6.3      1.080      1.080
REMARK  Name = 
REMARK  5 active torsions:
REMARK  status: ('A' for Active; 'I' for Inactive)
REMARK    1  A    between atoms: N_5  and  S_6
REMARK    2  A    between atoms: S_6  and  C_9
REMARK    3  A    between atoms: N_21  and  C_22
REMARK    4  A    between atoms: C_22  and  C_23
REMARK    5  A    between atoms: C_23  and  O_24
REMARK                            x       y       z     vdW  Elec       q    Type
REMARK                         _______ _______ _______ _____ _____    ______ ____
ROOT
ATOM      1  O   UNL     1       2.767   2.125  17.214  0.00  0.00    +0.000 OA
ATOM      2  C   UNL     1       3.168   2.950  18.018  0.00  0.00    +0.000 C 
ATOM      3  C   UNL     1       4.254   3.965  17.744  0.00  0.00    +0.000 C 
ATOM      4  C   UNL     1       4.125   4.738  16.451  0.00  0.00    +0.000 C 
ATOM      5  N   UNL     1       5.122   5.873  16.427  0.00  0.00    +0.000 NA
ATOM      6  C   UNL     1       4.853   6.815  17.586  0.00  0.00    +0.000 C 
ATOM      7  C   UNL     1       4.813   6.095  18.958  0.00  0.00    +0.000 C 
ATOM      8  N   UNL     1       4.095   4.828  18.889  0.00  0.00    +0.000 N 
ATOM      9  C   UNL     1       3.383   4.200  19.884  0.00  0.00    +0.000 C 
ATOM     10  O   UNL     1       3.224   4.618  21.021  0.00  0.00    +0.000 OA
ATOM     11  N   UNL     1       2.821   3.074  19.340  0.00  0.00    +0.000 N 
ENDROOT
BRANCH   5  12
ATOM     12  S   UNL     1       6.781   5.458  16.277  0.00  0.00    +0.000 S 
ATOM     13  O   UNL     1       7.545   6.680  16.402  0.00  0.00    +0.000 OA
ATOM     14  O   UNL     1       7.039   4.332  17.147  0.00  0.00    +0.000 OA
BRANCH  12  15
ATOM     15  C   UNL     1       6.933   4.896  14.599  0.00  0.00    +0.000 A 
ATOM     16  C   UNL     1       6.173   3.804  14.170  0.00  0.00    +0.000 A 
ATOM     17  C   UNL     1       6.296   3.362  12.852  0.00  0.00    +0.000 A 
ATOM     18  C   UNL     1       7.165   4.018  11.982  0.00  0.00    +0.000 A 
ATOM     19  F   UNL     1       7.269   3.596  10.715  0.00  0.00    +0.000 F 
ATOM     20  C   UNL     1       7.923   5.106  12.404  0.00  0.00    +0.000 A 
ATOM     21  C   UNL     1       7.811   5.551  13.721  0.00  0.00    +0.000 A 
ENDBRANCH  12  15
ENDBRANCH   5  12
BRANCH  11  22
ATOM     22  C   UNL     1       1.913   2.182  20.036  0.00  0.00    +0.000 C 
BRANCH  22  23
ATOM     23  C   UNL     1       0.447   2.525  19.780  0.00  0.00    +0.000 C 
BRANCH  23  24
ATOM     24  O   UNL     1       0.055   2.144  18.464  0.00  0.00    +0.000 OA
ATOM     25  H   UNL     1      -0.549   2.832  18.137  0.00  0.00    +0.000 HD
ENDBRANCH  23  24
ENDBRANCH  22  23
ENDBRANCH  11  22
TORSDOF 5
ENDMDL
MODEL 9
REMARK VINA RESULT:      -6.3      1.358      1.745
REMARK  Name = 
REMARK  5 active torsions:
REMARK  status: ('A' for Active; 'I' for Inactive)
REMARK    1  A    between atoms: N_5  and  S_6
REMARK    2  A    between atoms: S_6  and  C_9
REMARK    3  A    between atoms: N_21  and  C_22
REMARK    4  A    between atoms: C_22  and  C_23
REMARK    5  A    between atoms: C_23  and  O_24
REMARK                            x       y       z     vdW  Elec       q    Type
REMARK                         _______ _______ _______ _____ _____    ______ ____
ROOT
ATOM      1  O   UNL     1       2.645   2.672  16.450  0.00  0.00    +0.000 OA
ATOM      2  C   UNL     1       3.162   3.116  17.463  0.00  0.00    +0.000 C 
ATOM      3  C   UNL     1       4.384   4.004  17.489  0.00  0.00    +0.000 C 
ATOM      4  C   UNL     1       4.370   5.177  16.534  0.00  0.00    +0.000 C 
ATOM      5  N   UNL     1       5.521   6.105  16.841  0.00  0.00    +0.000 NA
ATOM      6  C   UNL     1       5.392   6.631  18.259  0.00  0.00    +0.000 C 
ATOM      7  C   UNL     1       5.246   5.505  19.314  0.00  0.00    +0.000 C 
ATOM      8  N   UNL     1       4.352   4.446  18.863  0.00  0.00    +0.000 N 
ATOM      9  C   UNL     1       3.554   3.625  19.625  0.00  0.00    +0.000 C 
ATOM     10  O   UNL     1       3.457   3.654  20.843  0.00  0.00    +0.000 OA
ATOM     11  N   UNL     1       2.835   2.835  18.766  0.00  0.00    +0.000 N 
ENDROOT
BRANCH   5  12
ATOM     12  S   UNL     1       7.103   5.541  16.482  0.00  0.00    +0.000 S 
ATOM     13  O   UNL     1       7.975   6.695  16.440  0.00  0.00    +0.000 OA
ATOM     14  O   UNL     1       7.390   4.429  17.361  0.00  0.00    +0.000 OA
BRANCH  12  15
ATOM     15  C   UNL     1       6.968   4.907  14.828  0.00  0.00    +0.000 A 
ATOM     16  C   UNL     1       7.713   5.499  13.804  0.00  0.00    +0.000 A 
ATOM     17  C   UNL     1       7.605   5.001  12.505  0.00  0.00    +0.000 A 
ATOM     18  C   UNL     1       6.765   3.920  12.248  0.00  0.00    +0.000 A 
ATOM     19  F   UNL     1       6.674   3.439  11.001  0.00  0.00    +0.000 F 
ATOM     20  C   UNL     1       6.021   3.327  13.264  0.00  0.00    +0.000 A 
ATOM     21  C   UNL     1       6.118   3.822  14.565  0.00  0.00    +0.000 A 
ENDBRANCH  12  15
ENDBRANCH   5  12
BRANCH  11  22
ATOM     22  C   UNL     1       1.807   1.895  19.169  0.00  0.00    +0.000 C 
BRANCH  22  23
ATOM     23  C   UNL     1       0.429   2.547  19.273  0.00  0.00    +0.000 C 
BRANCH  23  24
ATOM     24  O   UNL     1       0.378   3.462  20.364  0.00  0.00    +0.000 OA
ATOM     25  H   UNL     1       0.035   2.972  21.130  0.00  0.00    +0.000 HD
ENDBRANCH  23  24
ENDBRANCH  22  23
ENDBRANCH  11  22
TORSDOF 5
ENDMDL
