MODEL 1
REMARK VINA RESULT:      -7.8      0.000      0.000
REMARK  Name = 
REMARK  4 active torsions:
REMARK  status: ('A' for Active; 'I' for Inactive)
REMARK    1  A    between atoms: N_6  and  C_7
REMARK    2  A    between atoms: P_11  and  O_12
REMARK    3  A    between atoms: P_11  and  O_13
REMARK    4  A    between atoms: C_19  and  C_20
REMARK                            x       y       z     vdW  Elec       q    Type
REMARK                         _______ _______ _______ _____ _____    ______ ____
ROOT
ATOM      1  C   UNL     1       5.679   5.010  18.970  0.00  0.00    +0.000 C 
ATOM      2  C   UNL     1       4.318   5.696  19.214  0.00  0.00    +0.000 C 
ATOM      3  C   UNL     1       3.397   4.554  18.959  0.00  0.00    +0.000 C 
ATOM      4  O   UNL     1       2.114   4.731  19.522  0.00  0.00    +0.000 OA
ATOM      5  P   UNL     1       1.069   3.334  19.463  0.00  0.00    +0.000 P 
ATOM      6  O   UNL     1       2.249   2.161  19.969  0.00  0.00    +0.000 OA
ATOM      7  C   UNL     1       3.495   2.203  19.319  0.00  0.00    +0.000 C 
ATOM      8  C   UNL     1       4.163   3.497  19.671  0.00  0.00    +0.000 C 
ATOM      9  O   UNL     1       5.500   3.619  19.247  0.00  0.00    +0.000 OA
ATOM     10  H   UNL     1       0.099   4.260  19.907  0.00  0.00    +0.000 HD
ENDROOT
BRANCH   1  16
ATOM     11  O   UNL     1       7.897   5.758  14.009  0.00  0.00    +0.000 OA
ATOM     12  C   UNL     1       7.365   5.581  15.091  0.00  0.00    +0.000 A 
ATOM     13  N   UNL     1       7.751   6.351  16.152  0.00  0.00    +0.000 N 
ATOM     14  C   UNL     1       7.202   6.175  17.396  0.00  0.00    +0.000 A 
ATOM     15  O   UNL     1       7.605   6.862  18.320  0.00  0.00    +0.000 OA
ATOM     16  N   UNL     1       6.216   5.225  17.599  0.00  0.00    +0.000 N 
ATOM     17  C   UNL     1       5.810   4.450  16.541  0.00  0.00    +0.000 A 
ATOM     18  C   UNL     1       6.377   4.595  15.265  0.00  0.00    +0.000 A 
ATOM     19  H   UNL     1       8.492   7.074  16.019  0.00  0.00    +0.000 HD
BRANCH  18  20
ATOM     20  C   UNL     1       5.917   3.673  14.152  0.00  0.00    +0.000 C 
ATOM     21  F   UNL     1       6.873   3.503  13.167  0.00  0.00    +0.000 F 
ATOM     22  F   UNL     1       5.627   2.430  14.687  0.00  0.00    +0.000 F 
ATOM     23  F   UNL     1       4.776   4.188  13.567  0.00  0.00    +0.000 F 
ENDBRANCH  18  20
ENDBRANCH   1  16
BRANCH   5  24
ATOM     24  O   UNL     1       0.510   2.798  20.976  0.00  0.00    +0.000 OA
ATOM     25  H   UNL     1      -0.370   2.359  20.813  0.00  0.00    +0.000 HD
ENDBRANCH   5  24
BRANCH   5  26
ATOM     26  O   UNL     1       1.173   3.638  17.797  0.00  0.00    +0.000 OA
ATOM     27  H   UNL     1       1.587   4.533  17.719  0.00  0.00    +0.000 HD
ENDBRANCH   5  26
TORSDOF 4
ENDMDL
MODEL 2
REMARK VINA RESULT:      -7.2      5.693      7.318
REMARK  Name = 
REMARK  4 active torsions:
REMARK  status: ('A' for Active; 'I' for Inactive)
REMARK    1  A    between atoms: N_6  and  C_7
REMARK    2  A    between atoms: P_11  and  O_12
REMARK    3  A    between atoms: P_11  and  O_13
REMARK    4  A    between atoms: C_19  and  C_20
REMARK                            x       y       z     vdW  Elec       q    Type
REMARK                         _______ _______ _______ _____ _____    ______ ____
ROOT
ATOM      1  C   UNL     1       2.906   7.180  18.826  0.00  0.00    +0.000 C 
ATOM      2  C   UNL     1       3.170   6.140  19.936  0.00  0.00    +0.000 C 
ATOM      3  C   UNL     1       2.195   5.083  19.544  0.00  0.00    +0.000 C 
ATOM      4  O   UNL     1       2.490   3.817  20.094  0.00  0.00    +0.000 OA
ATOM      5  P   UNL     1       1.529   2.493  19.486  0.00  0.00    +0.000 P 
ATOM      6  O   UNL     1       1.616   2.918  17.802  0.00  0.00    +0.000 OA
ATOM      7  C   UNL     1       1.349   4.259  17.478  0.00  0.00    +0.000 C 
ATOM      8  C   UNL     1       2.428   5.109  18.076  0.00  0.00    +0.000 C 
ATOM      9  O   UNL     1       2.410   6.464  17.693  0.00  0.00    +0.000 OA
ATOM     10  H   UNL     1       2.161   1.784  20.532  0.00  0.00    +0.000 HD
ENDROOT
BRANCH   1  16
ATOM     11  O   UNL     1      -0.700  11.100  20.139  0.00  0.00    +0.000 OA
ATOM     12  C   UNL     1       0.117  10.230  19.890  0.00  0.00    +0.000 A 
ATOM     13  N   UNL     1       0.678  10.186  18.645  0.00  0.00    +0.000 N 
ATOM     14  C   UNL     1       1.582   9.212  18.306  0.00  0.00    +0.000 A 
ATOM     15  O   UNL     1       2.029   9.193  17.171  0.00  0.00    +0.000 OA
ATOM     16  N   UNL     1       1.970   8.262  19.235  0.00  0.00    +0.000 N 
ATOM     17  C   UNL     1       1.424   8.299  20.493  0.00  0.00    +0.000 A 
ATOM     18  C   UNL     1       0.476   9.271  20.854  0.00  0.00    +0.000 A 
ATOM     19  H   UNL     1       0.399  10.894  17.931  0.00  0.00    +0.000 HD
BRANCH  18  20
ATOM     20  C   UNL     1      -0.125   9.223  22.246  0.00  0.00    +0.000 C 
ATOM     21  F   UNL     1      -0.847  10.362  22.557  0.00  0.00    +0.000 F 
ATOM     22  F   UNL     1      -0.979   8.138  22.332  0.00  0.00    +0.000 F 
ATOM     23  F   UNL     1       0.883   9.077  23.181  0.00  0.00    +0.000 F 
ENDBRANCH  18  20
ENDBRANCH   1  16
BRANCH   5  24
ATOM     24  O   UNL     1       2.420   1.231  18.778  0.00  0.00    +0.000 OA
ATOM     25  H   UNL     1       2.777   0.681  19.529  0.00  0.00    +0.000 HD
ENDBRANCH   5  24
BRANCH   5  26
ATOM     26  O   UNL     1       0.298   3.352  20.278  0.00  0.00    +0.000 OA
ATOM     27  H   UNL     1       0.650   3.539  21.183  0.00  0.00    +0.000 HD
ENDBRANCH   5  26
TORSDOF 4
ENDMDL
MODEL 3
REMARK VINA RESULT:      -7.1      1.083      1.406
REMARK  Name = 
REMARK  4 active torsions:
REMARK  status: ('A' for Active; 'I' for Inactive)
REMARK    1  A    between atoms: N_6  and  C_7
REMARK    2  A    between atoms: P_11  and  O_12
REMARK    3  A    between atoms: P_11  and  O_13
REMARK    4  A    between atoms: C_19  and  C_20
REMARK                            x       y       z     vdW  Elec       q    Type
REMARK                         _______ _______ _______ _____ _____    ______ ____
ROOT
ATOM      1  C   UNL     1       5.764   4.199  17.998  0.00  0.00    +0.000 C 
ATOM      2  C   UNL     1       4.643   5.106  18.551  0.00  0.00    +0.000 C 
ATOM      3  C   UNL     1       3.445   4.306  18.172  0.00  0.00    +0.000 C 
ATOM      4  O   UNL     1       2.291   4.639  18.914  0.00  0.00    +0.000 OA
ATOM      5  P   UNL     1       0.921   3.581  18.686  0.00  0.00    +0.000 P 
ATOM      6  O   UNL     1       1.792   2.079  18.777  0.00  0.00    +0.000 OA
ATOM      7  C   UNL     1       2.961   1.982  18.002  0.00  0.00    +0.000 C 
ATOM      8  C   UNL     1       3.960   2.961  18.539  0.00  0.00    +0.000 C 
ATOM      9  O   UNL     1       5.253   2.864  17.989  0.00  0.00    +0.000 OA
ATOM     10  H   UNL     1       0.253   4.574  19.436  0.00  0.00    +0.000 HD
ENDROOT
BRANCH   1  16
ATOM     11  O   UNL     1       7.782   5.634  13.103  0.00  0.00    +0.000 OA
ATOM     12  C   UNL     1       7.293   5.308  14.171  0.00  0.00    +0.000 A 
ATOM     13  N   UNL     1       7.730   5.918  15.313  0.00  0.00    +0.000 N 
ATOM     14  C   UNL     1       7.231   5.570  16.542  0.00  0.00    +0.000 A 
ATOM     15  O   UNL     1       7.679   6.117  17.536  0.00  0.00    +0.000 OA
ATOM     16  N   UNL     1       6.246   4.604  16.650  0.00  0.00    +0.000 N 
ATOM     17  C   UNL     1       5.789   3.989  15.511  0.00  0.00    +0.000 A 
ATOM     18  C   UNL     1       6.304   4.311  14.245  0.00  0.00    +0.000 A 
ATOM     19  H   UNL     1       8.472   6.651  15.253  0.00  0.00    +0.000 HD
BRANCH  18  20
ATOM     20  C   UNL     1       5.790   3.558  13.034  0.00  0.00    +0.000 C 
ATOM     21  F   UNL     1       4.464   3.836  12.753  0.00  0.00    +0.000 F 
ATOM     22  F   UNL     1       6.545   3.910  11.929  0.00  0.00    +0.000 F 
ATOM     23  F   UNL     1       5.913   2.198  13.247  0.00  0.00    +0.000 F 
ENDBRANCH  18  20
ENDBRANCH   1  16
BRANCH   5  24
ATOM     24  O   UNL     1       0.345   2.845  20.105  0.00  0.00    +0.000 OA
ATOM     25  H   UNL     1       0.248   1.874  19.901  0.00  0.00    +0.000 HD
ENDBRANCH   5  24
BRANCH   5  26
ATOM     26  O   UNL     1       0.989   4.242  17.125  0.00  0.00    +0.000 OA
ATOM     27  H   UNL     1       0.047   4.322  16.833  0.00  0.00    +0.000 HD
ENDBRANCH   5  26
TORSDOF 4
ENDMDL
MODEL 4
REMARK VINA RESULT:      -7.0      1.816      2.222
REMARK  Name = 
REMARK  4 active torsions:
REMARK  status: ('A' for Active; 'I' for Inactive)
REMARK    1  A    between atoms: N_6  and  C_7
REMARK    2  A    between atoms: P_11  and  O_12
REMARK    3  A    between atoms: P_11  and  O_13
REMARK    4  A    between atoms: C_19  and  C_20
REMARK                            x       y       z     vdW  Elec       q    Type
REMARK                         _______ _______ _______ _____ _____    ______ ____
ROOT
ATOM      1  C   UNL     1       5.624   3.607  17.309  0.00  0.00    +0.000 C 
ATOM      2  C   UNL     1       5.685   4.619  18.474  0.00  0.00    +0.000 C 
ATOM      3  C   UNL     1       4.306   5.179  18.409  0.00  0.00    +0.000 C 
ATOM      4  O   UNL     1       3.901   5.807  19.606  0.00  0.00    +0.000 OA
ATOM      5  P   UNL     1       2.220   6.272  19.678  0.00  0.00    +0.000 P 
ATOM      6  O   UNL     1       1.561   4.800  19.027  0.00  0.00    +0.000 OA
ATOM      7  C   UNL     1       2.162   4.307  17.856  0.00  0.00    +0.000 C 
ATOM      8  C   UNL     1       3.569   3.908  18.184  0.00  0.00    +0.000 C 
ATOM      9  O   UNL     1       4.254   3.224  17.161  0.00  0.00    +0.000 OA
ATOM     10  H   UNL     1       2.633   6.929  20.858  0.00  0.00    +0.000 HD
ENDROOT
BRANCH   1  16
ATOM     11  O   UNL     1       7.909   5.470  12.683  0.00  0.00    +0.000 OA
ATOM     12  C   UNL     1       7.361   5.053  13.689  0.00  0.00    +0.000 A 
ATOM     13  N   UNL     1       7.778   5.510  14.907  0.00  0.00    +0.000 N 
ATOM     14  C   UNL     1       7.213   5.053  16.070  0.00  0.00    +0.000 A 
ATOM     15  O   UNL     1       7.643   5.465  17.135  0.00  0.00    +0.000 OA
ATOM     16  N   UNL     1       6.180   4.133  16.033  0.00  0.00    +0.000 N 
ATOM     17  C   UNL     1       5.743   3.671  14.817  0.00  0.00    +0.000 A 
ATOM     18  C   UNL     1       6.325   4.105  13.615  0.00  0.00    +0.000 A 
ATOM     19  H   UNL     1       8.554   6.206  14.956  0.00  0.00    +0.000 HD
BRANCH  18  20
ATOM     20  C   UNL     1       5.827   3.517  12.308  0.00  0.00    +0.000 C 
ATOM     21  F   UNL     1       6.415   4.099  11.200  0.00  0.00    +0.000 F 
ATOM     22  F   UNL     1       6.113   2.163  12.285  0.00  0.00    +0.000 F 
ATOM     23  F   UNL     1       4.458   3.688  12.215  0.00  0.00    +0.000 F 
ENDBRANCH  18  20
ENDBRANCH   1  16
BRANCH   5  24
ATOM     24  O   UNL     1       1.346   5.594  20.968  0.00  0.00    +0.000 OA
ATOM     25  H   UNL     1       0.447   6.024  20.958  0.00  0.00    +0.000 HD
ENDBRANCH   5  24
BRANCH   5  26
ATOM     26  O   UNL     1       2.718   7.325  18.444  0.00  0.00    +0.000 OA
ATOM     27  H   UNL     1       2.900   8.188  18.893  0.00  0.00    +0.000 HD
ENDBRANCH   5  26
TORSDOF 4
ENDMDL
MODEL 5
REMARK VINA RESULT:      -7.0      1.466      1.642
REMARK  Name = 
REMARK  4 active torsions:
REMARK  status: ('A' for Active; 'I' for Inactive)
REMARK    1  A    between atoms: N_6  and  C_7
REMARK    2  A    between atoms: P_11  and  O_12
REMARK    3  A    between atoms: P_11  and  O_13
REMARK    4  A    between atoms: C_19  and  C_20
REMARK                            x       y       z     vdW  Elec       q    Type
REMARK                         _______ _______ _______ _____ _____    ______ ____
ROOT
ATOM      1  C   UNL     1       5.165   5.603  17.348  0.00  0.00    +0.000 C 
ATOM      2  C   UNL     1       3.623   5.546  17.297  0.00  0.00    +0.000 C 
ATOM      3  C   UNL     1       3.396   4.141  17.739  0.00  0.00    +0.000 C 
ATOM      4  O   UNL     1       2.089   3.909  18.217  0.00  0.00    +0.000 OA
ATOM      5  P   UNL     1       1.829   2.354  18.968  0.00  0.00    +0.000 P 
ATOM      6  O   UNL     1       3.282   2.331  19.924  0.00  0.00    +0.000 OA
ATOM      7  C   UNL     1       4.476   2.662  19.260  0.00  0.00    +0.000 C 
ATOM      8  C   UNL     1       4.395   4.098  18.839  0.00  0.00    +0.000 C 
ATOM      9  O   UNL     1       5.586   4.642  18.319  0.00  0.00    +0.000 OA
ATOM     10  H   UNL     1       0.477   2.759  18.935  0.00  0.00    +0.000 HD
ENDROOT
BRANCH   1  16
ATOM     11  O   UNL     1       7.752   4.595  12.616  0.00  0.00    +0.000 OA
ATOM     12  C   UNL     1       7.137   4.822  13.645  0.00  0.00    +0.000 A 
ATOM     13  N   UNL     1       7.746   5.542  14.634  0.00  0.00    +0.000 N 
ATOM     14  C   UNL     1       7.108   5.802  15.820  0.00  0.00    +0.000 A 
ATOM     15  O   UNL     1       7.706   6.418  16.687  0.00  0.00    +0.000 OA
ATOM     16  N   UNL     1       5.814   5.361  16.031  0.00  0.00    +0.000 N 
ATOM     17  C   UNL     1       5.185   4.645  15.043  0.00  0.00    +0.000 A 
ATOM     18  C   UNL     1       5.828   4.345  13.832  0.00  0.00    +0.000 A 
ATOM     19  H   UNL     1       8.722   5.885  14.493  0.00  0.00    +0.000 HD
BRANCH  18  20
ATOM     20  C   UNL     1       5.093   3.507  12.803  0.00  0.00    +0.000 C 
ATOM     21  F   UNL     1       4.903   4.174  11.605  0.00  0.00    +0.000 F 
ATOM     22  F   UNL     1       5.827   2.363  12.545  0.00  0.00    +0.000 F 
ATOM     23  F   UNL     1       3.855   3.144  13.300  0.00  0.00    +0.000 F 
ENDBRANCH  18  20
ENDBRANCH   1  16
BRANCH   5  24
ATOM     24  O   UNL     1       1.279   2.421  20.575  0.00  0.00    +0.000 OA
ATOM     25  H   UNL     1       0.283   2.394  20.534  0.00  0.00    +0.000 HD
ENDBRANCH   5  24
BRANCH   5  26
ATOM     26  O   UNL     1       2.122   1.820  17.384  0.00  0.00    +0.000 OA
ATOM     27  H   UNL     1       1.341   2.121  16.858  0.00  0.00    +0.000 HD
ENDBRANCH   5  26
TORSDOF 4
ENDMDL
MODEL 6
REMARK VINA RESULT:      -6.9      3.713      5.001
REMARK  Name = 
REMARK  4 active torsions:
REMARK  status: ('A' for Active; 'I' for Inactive)
REMARK    1  A    between atoms: N_6  and  C_7
REMARK    2  A    between atoms: P_11  and  O_12
REMARK    3  A    between atoms: P_11  and  O_13
REMARK    4  A    between atoms: C_19  and  C_20
REMARK                            x       y       z     vdW  Elec       q    Type
REMARK                         _______ _______ _______ _____ _____    ______ ____
ROOT
ATOM      1  C   UNL     1       2.725   5.693  18.315  0.00  0.00    +0.000 C 
ATOM      2  C   UNL     1       2.020   5.630  19.687  0.00  0.00    +0.000 C 
ATOM      3  C   UNL     1       2.014   7.075  20.047  0.00  0.00    +0.000 C 
ATOM      4  O   UNL     1       1.057   7.403  21.032  0.00  0.00    +0.000 OA
ATOM      5  P   UNL     1       0.836   9.109  21.325  0.00  0.00    +0.000 P 
ATOM      6  O   UNL     1       0.796   9.610  19.661  0.00  0.00    +0.000 OA
ATOM      7  C   UNL     1       1.813   9.110  18.829  0.00  0.00    +0.000 C 
ATOM      8  C   UNL     1       1.639   7.626  18.718  0.00  0.00    +0.000 C 
ATOM      9  O   UNL     1       2.468   6.991  17.774  0.00  0.00    +0.000 OA
ATOM     10  H   UNL     1       0.059   8.644  22.409  0.00  0.00    +0.000 HD
ENDROOT
BRANCH   1  16
ATOM     11  O   UNL     1       8.074   4.475  18.385  0.00  0.00    +0.000 OA
ATOM     12  C   UNL     1       6.895   4.787  18.385  0.00  0.00    +0.000 A 
ATOM     13  N   UNL     1       5.958   3.837  18.678  0.00  0.00    +0.000 N 
ATOM     14  C   UNL     1       4.619   4.130  18.666  0.00  0.00    +0.000 A 
ATOM     15  O   UNL     1       3.819   3.239  18.898  0.00  0.00    +0.000 OA
ATOM     16  N   UNL     1       4.185   5.413  18.382  0.00  0.00    +0.000 N 
ATOM     17  C   UNL     1       5.114   6.382  18.095  0.00  0.00    +0.000 A 
ATOM     18  C   UNL     1       6.489   6.098  18.076  0.00  0.00    +0.000 A 
ATOM     19  H   UNL     1       6.265   2.863  18.896  0.00  0.00    +0.000 HD
BRANCH  18  20
ATOM     20  C   UNL     1       7.458   7.203  17.703  0.00  0.00    +0.000 C 
ATOM     21  F   UNL     1       8.477   7.357  18.627  0.00  0.00    +0.000 F 
ATOM     22  F   UNL     1       8.030   6.908  16.478  0.00  0.00    +0.000 F 
ATOM     23  F   UNL     1       6.777   8.402  17.603  0.00  0.00    +0.000 F 
ENDBRANCH  18  20
ENDBRANCH   1  16
BRANCH   5  24
ATOM     24  O   UNL     1      -0.750   9.673  21.093  0.00  0.00    +0.000 OA
ATOM     25  H   UNL     1      -1.356   8.979  21.474  0.00  0.00    +0.000 HD
ENDBRANCH   5  24
BRANCH   5  26
ATOM     26  O   UNL     1       2.430   8.964  21.889  0.00  0.00    +0.000 OA
ATOM     27  H   UNL     1       2.624   9.819  22.348  0.00  0.00    +0.000 HD
ENDBRANCH   5  26
TORSDOF 4
ENDMDL
MODEL 7
REMARK VINA RESULT:      -6.8      4.291      6.706
REMARK  Name = 
REMARK  4 active torsions:
REMARK  status: ('A' for Active; 'I' for Inactive)
REMARK    1  A    between atoms: N_6  and  C_7
REMARK    2  A    between atoms: P_11  and  O_12
REMARK    3  A    between atoms: P_11  and  O_13
REMARK    4  A    between atoms: C_19  and  C_20
REMARK                            x       y       z     vdW  Elec       q    Type
REMARK                         _______ _______ _______ _____ _____    ______ ____
ROOT
ATOM      1  C   UNL     1       3.663   4.828  19.137  0.00  0.00    +0.000 C 
ATOM      2  C   UNL     1       3.488   4.428  17.656  0.00  0.00    +0.000 C 
ATOM      3  C   UNL     1       4.572   5.239  17.034  0.00  0.00    +0.000 C 
ATOM      4  O   UNL     1       4.961   4.771  15.760  0.00  0.00    +0.000 OA
ATOM      5  P   UNL     1       6.380   5.530  15.084  0.00  0.00    +0.000 P 
ATOM      6  O   UNL     1       7.353   5.490  16.524  0.00  0.00    +0.000 OA
ATOM      7  C   UNL     1       6.743   5.943  17.707  0.00  0.00    +0.000 C 
ATOM      8  C   UNL     1       5.630   5.000  18.050  0.00  0.00    +0.000 C 
ATOM      9  O   UNL     1       5.031   5.208  19.307  0.00  0.00    +0.000 OA
ATOM     10  H   UNL     1       5.999   4.812  13.929  0.00  0.00    +0.000 HD
ENDROOT
BRANCH   1  16
ATOM     11  O   UNL     1       0.408   8.848  20.962  0.00  0.00    +0.000 OA
ATOM     12  C   UNL     1       1.118   7.964  20.514  0.00  0.00    +0.000 A 
ATOM     13  N   UNL     1       1.311   6.832  21.254  0.00  0.00    +0.000 N 
ATOM     14  C   UNL     1       2.120   5.819  20.807  0.00  0.00    +0.000 A 
ATOM     15  O   UNL     1       2.290   4.843  21.519  0.00  0.00    +0.000 OA
ATOM     16  N   UNL     1       2.742   5.911  19.574  0.00  0.00    +0.000 N 
ATOM     17  C   UNL     1       2.550   7.038  18.814  0.00  0.00    +0.000 A 
ATOM     18  C   UNL     1       1.747   8.099  19.263  0.00  0.00    +0.000 A 
ATOM     19  H   UNL     1       0.849   6.742  22.186  0.00  0.00    +0.000 HD
BRANCH  18  20
ATOM     20  C   UNL     1       1.618   9.336  18.395  0.00  0.00    +0.000 C 
ATOM     21  F   UNL     1       1.812  10.509  19.102  0.00  0.00    +0.000 F 
ATOM     22  F   UNL     1       2.564   9.281  17.387  0.00  0.00    +0.000 F 
ATOM     23  F   UNL     1       0.358   9.373  17.827  0.00  0.00    +0.000 F 
ENDBRANCH  18  20
ENDBRANCH   1  16
BRANCH   5  24
ATOM     24  O   UNL     1       7.648   4.463  14.707  0.00  0.00    +0.000 OA
ATOM     25  H   UNL     1       8.458   4.810  15.174  0.00  0.00    +0.000 HD
ENDBRANCH   5  24
BRANCH   5  26
ATOM     26  O   UNL     1       5.348   6.877  15.072  0.00  0.00    +0.000 OA
ATOM     27  H   UNL     1       4.560   6.608  15.606  0.00  0.00    +0.000 HD
ENDBRANCH   5  26
TORSDOF 4
ENDMDL
MODEL 8
REMARK VINA RESULT:      -6.5      4.608      6.854
REMARK  Name = 
REMARK  4 active torsions:
REMARK  status: ('A' for Active; 'I' for Inactive)
REMARK    1  A    between atoms: N_6  and  C_7
REMARK    2  A    between atoms: P_11  and  O_12
REMARK    3  A    between atoms: P_11  and  O_13
REMARK    4  A    between atoms: C_19  and  C_20
REMARK                            x       y       z     vdW  Elec       q    Type
REMARK                         _______ _______ _______ _____ _____    ______ ____
ROOT
ATOM      1  C   UNL     1       2.801   5.256  18.966  0.00  0.00    +0.000 C 
ATOM      2  C   UNL     1       3.243   5.357  17.490  0.00  0.00    +0.000 C 
ATOM      3  C   UNL     1       4.680   5.710  17.669  0.00  0.00    +0.000 C 
ATOM      4  O   UNL     1       5.468   5.444  16.528  0.00  0.00    +0.000 OA
ATOM      5  P   UNL     1       7.191   5.612  16.751  0.00  0.00    +0.000 P 
ATOM      6  O   UNL     1       7.293   4.780  18.274  0.00  0.00    +0.000 OA
ATOM      7  C   UNL     1       6.362   5.155  19.259  0.00  0.00    +0.000 C 
ATOM      8  C   UNL     1       4.995   4.773  18.779  0.00  0.00    +0.000 C 
ATOM      9  O   UNL     1       3.963   4.915  19.727  0.00  0.00    +0.000 OA
ATOM     10  H   UNL     1       7.211   5.455  15.347  0.00  0.00    +0.000 HD
ENDROOT
BRANCH   1  16
ATOM     11  O   UNL     1       0.617   9.832  21.058  0.00  0.00    +0.000 OA
ATOM     12  C   UNL     1       1.084   8.826  20.553  0.00  0.00    +0.000 A 
ATOM     13  N   UNL     1       1.194   7.695  21.311  0.00  0.00    +0.000 N 
ATOM     14  C   UNL     1       1.736   6.544  20.799  0.00  0.00    +0.000 A 
ATOM     15  O   UNL     1       1.847   5.571  21.525  0.00  0.00    +0.000 OA
ATOM     16  N   UNL     1       2.161   6.495  19.482  0.00  0.00    +0.000 N 
ATOM     17  C   UNL     1       2.047   7.620  18.704  0.00  0.00    +0.000 A 
ATOM     18  C   UNL     1       1.520   8.817  19.216  0.00  0.00    +0.000 A 
ATOM     19  H   UNL     1       0.878   7.710  22.306  0.00  0.00    +0.000 HD
BRANCH  18  20
ATOM     20  C   UNL     1       1.469  10.037  18.316  0.00  0.00    +0.000 C 
ATOM     21  F   UNL     1       2.034  11.157  18.898  0.00  0.00    +0.000 F 
ATOM     22  F   UNL     1       2.160   9.765  17.148  0.00  0.00    +0.000 F 
ATOM     23  F   UNL     1       0.154  10.326  18.002  0.00  0.00    +0.000 F 
ENDBRANCH  18  20
ENDBRANCH   1  16
BRANCH   5  24
ATOM     24  O   UNL     1       8.093   4.213  16.408  0.00  0.00    +0.000 OA
ATOM     25  H   UNL     1       8.637   4.021  17.221  0.00  0.00    +0.000 HD
ENDBRANCH   5  24
BRANCH   5  26
ATOM     26  O   UNL     1       6.753   7.237  16.962  0.00  0.00    +0.000 OA
ATOM     27  H   UNL     1       7.589   7.752  16.837  0.00  0.00    +0.000 HD
ENDBRANCH   5  26
TORSDOF 4
ENDMDL
MODEL 9
REMARK VINA RESULT:      -6.4      3.414      6.276
REMARK  Name = 
REMARK  4 active torsions:
REMARK  status: ('A' for Active; 'I' for Inactive)
REMARK    1  A    between atoms: N_6  and  C_7
REMARK    2  A    between atoms: P_11  and  O_12
REMARK    3  A    between atoms: P_11  and  O_13
REMARK    4  A    between atoms: C_19  and  C_20
REMARK                            x       y       z     vdW  Elec       q    Type
REMARK                         _______ _______ _______ _____ _____    ______ ____
ROOT
ATOM      1  C   UNL     1       4.698   6.197  18.815  0.00  0.00    +0.000 C 
ATOM      2  C   UNL     1       5.955   5.325  18.603  0.00  0.00    +0.000 C 
ATOM      3  C   UNL     1       5.852   5.066  17.139  0.00  0.00    +0.000 C 
ATOM      4  O   UNL     1       7.074   4.669  16.553  0.00  0.00    +0.000 OA
ATOM      5  P   UNL     1       7.076   4.581  14.810  0.00  0.00    +0.000 P 
ATOM      6  O   UNL     1       6.246   6.081  14.517  0.00  0.00    +0.000 OA
ATOM      7  C   UNL     1       5.076   6.307  15.263  0.00  0.00    +0.000 C 
ATOM      8  C   UNL     1       5.458   6.432  16.706  0.00  0.00    +0.000 C 
ATOM      9  O   UNL     1       4.424   6.842  17.569  0.00  0.00    +0.000 OA
ATOM     10  H   UNL     1       8.339   3.982  15.017  0.00  0.00    +0.000 HD
ENDROOT
BRANCH   1  16
ATOM     11  O   UNL     1       0.196   3.535  20.469  0.00  0.00    +0.000 OA
ATOM     12  C   UNL     1       1.221   4.088  20.109  0.00  0.00    +0.000 A 
ATOM     13  N   UNL     1       1.373   5.424  20.356  0.00  0.00    +0.000 N 
ATOM     14  C   UNL     1       2.495   6.099  19.949  0.00  0.00    +0.000 A 
ATOM     15  O   UNL     1       2.569   7.299  20.161  0.00  0.00    +0.000 OA
ATOM     16  N   UNL     1       3.518   5.431  19.300  0.00  0.00    +0.000 N 
ATOM     17  C   UNL     1       3.385   4.088  19.054  0.00  0.00    +0.000 A 
ATOM     18  C   UNL     1       2.234   3.382  19.438  0.00  0.00    +0.000 A 
ATOM     19  H   UNL     1       0.613   5.946  20.846  0.00  0.00    +0.000 HD
BRANCH  18  20
ATOM     20  C   UNL     1       2.131   1.908  19.091  0.00  0.00    +0.000 C 
ATOM     21  F   UNL     1       3.256   1.430  18.443  0.00  0.00    +0.000 F 
ATOM     22  F   UNL     1       1.965   1.181  20.256  0.00  0.00    +0.000 F 
ATOM     23  F   UNL     1       1.037   1.701  18.272  0.00  0.00    +0.000 F 
ENDBRANCH  18  20
ENDBRANCH   1  16
BRANCH   5  24
ATOM     24  O   UNL     1       8.235   5.563  14.048  0.00  0.00    +0.000 OA
ATOM     25  H   UNL     1       8.531   5.071  13.233  0.00  0.00    +0.000 HD
ENDBRANCH   5  24
BRANCH   5  26
ATOM     26  O   UNL     1       5.984   3.320  15.122  0.00  0.00    +0.000 OA
ATOM     27  H   UNL     1       5.407   3.649  15.855  0.00  0.00    +0.000 HD
ENDBRANCH   5  26
TORSDOF 4
ENDMDL
