MODEL 1
REMARK VINA RESULT:      -8.0      0.000      0.000
REMARK  Name = 
REMARK  3 active torsions:
REMARK  status: ('A' for Active; 'I' for Inactive)
REMARK    1  A    between atoms: N_3  and  C_4
REMARK    2  A    between atoms: C_13  and  C_14
REMARK    3  A    between atoms: N_19  and  C_20
REMARK                            x       y       z     vdW  Elec       q    Type
REMARK                         _______ _______ _______ _____ _____    ______ ____
ROOT
ATOM      1  O   UNL     1       2.310   7.311  18.406  0.00  0.00    +0.000 OA
ATOM      2  C   UNL     1       2.105   7.309  19.621  0.00  0.00    +0.000 C 
ATOM      3  N   UNL     1       2.377   6.241  20.444  0.00  0.00    +0.000 N 
ATOM      4  N   UNL     1       1.539   8.415  20.246  0.00  0.00    +0.000 N 
ATOM      5  C   UNL     1       1.386   8.641  21.682  0.00  0.00    +0.000 C 
ATOM      6  C   UNL     1      -0.063   9.005  21.994  0.00  0.00    +0.000 C 
ATOM      7  C   UNL     1      -0.585  10.182  21.154  0.00  0.00    +0.000 C 
ATOM      8  C   UNL     1      -0.274   9.970  19.662  0.00  0.00    +0.000 C 
ATOM      9  C   UNL     1       1.184   9.571  19.425  0.00  0.00    +0.000 C 
ATOM     10  H   UNL     1       1.891   6.217  21.322  0.00  0.00    +0.000 HD
ENDROOT
BRANCH   7  11
ATOM     11  C   UNL     1      -0.024  11.536  21.613  0.00  0.00    +0.000 C 
ATOM     12  O   UNL     1       1.148  11.840  21.391  0.00  0.00    +0.000 OA
ATOM     13  N   UNL     1      -0.909  12.441  22.173  0.00  0.00    +0.000 N 
ATOM     14  C   UNL     1      -0.540  13.859  22.292  0.00  0.00    +0.000 C 
ATOM     15  C   UNL     1      -1.660  14.761  21.733  0.00  0.00    +0.000 C 
ATOM     16  N   UNL     1      -2.988  14.403  22.277  0.00  0.00    +0.000 N 
ATOM     17  C   UNL     1      -3.334  12.972  22.252  0.00  0.00    +0.000 C 
ATOM     18  C   UNL     1      -2.186  12.125  22.823  0.00  0.00    +0.000 C 
BRANCH  16  19
ATOM     19  C   UNL     1      -3.708  15.258  23.099  0.00  0.00    +0.000 A 
ATOM     20  C   UNL     1      -4.929  15.792  22.647  0.00  0.00    +0.000 A 
ATOM     21  C   UNL     1      -5.685  16.678  23.424  0.00  0.00    +0.000 A 
ATOM     22  C   UNL     1      -5.235  17.054  24.685  0.00  0.00    +0.000 A 
ATOM     23  C   UNL     1      -4.032  16.544  25.162  0.00  0.00    +0.000 A 
ATOM     24  C   UNL     1      -3.286  15.662  24.377  0.00  0.00    +0.000 A 
ATOM     25  F   UNL     1      -2.155  15.167  24.908  0.00  0.00    +0.000 F 
ENDBRANCH  16  19
ENDBRANCH   7  11
BRANCH   3  26
ATOM     26  C   UNL     1       3.007   5.030  20.081  0.00  0.00    +0.000 A 
ATOM     27  C   UNL     1       4.273   4.962  19.495  0.00  0.00    +0.000 A 
ATOM     28  C   UNL     1       4.810   3.733  19.103  0.00  0.00    +0.000 A 
ATOM     29  C   UNL     1       4.095   2.558  19.313  0.00  0.00    +0.000 A 
ATOM     30  C   UNL     1       2.851   2.608  19.937  0.00  0.00    +0.000 A 
ATOM     31  C   UNL     1       2.313   3.838  20.326  0.00  0.00    +0.000 A 
ENDBRANCH   3  26
TORSDOF 3
ENDMDL
MODEL 2
REMARK VINA RESULT:      -8.0      0.863      1.210
REMARK  Name = 
REMARK  3 active torsions:
REMARK  status: ('A' for Active; 'I' for Inactive)
REMARK    1  A    between atoms: N_3  and  C_4
REMARK    2  A    between atoms: C_13  and  C_14
REMARK    3  A    between atoms: N_19  and  C_20
REMARK                            x       y       z     vdW  Elec       q    Type
REMARK                         _______ _______ _______ _____ _____    ______ ____
ROOT
ATOM      1  O   UNL     1       2.209   7.359  18.405  0.00  0.00    +0.000 OA
ATOM      2  C   UNL     1       2.026   7.356  19.623  0.00  0.00    +0.000 C 
ATOM      3  N   UNL     1       2.306   6.285  20.440  0.00  0.00    +0.000 N 
ATOM      4  N   UNL     1       1.479   8.465  20.261  0.00  0.00    +0.000 N 
ATOM      5  C   UNL     1       1.354   8.689  21.699  0.00  0.00    +0.000 C 
ATOM      6  C   UNL     1      -0.087   9.062  22.038  0.00  0.00    +0.000 C 
ATOM      7  C   UNL     1      -0.617  10.244  21.210  0.00  0.00    +0.000 C 
ATOM      8  C   UNL     1      -0.334  10.032  19.712  0.00  0.00    +0.000 C 
ATOM      9  C   UNL     1       1.116   9.625  19.448  0.00  0.00    +0.000 C 
ATOM     10  H   UNL     1       1.836   6.262  21.327  0.00  0.00    +0.000 HD
ENDROOT
BRANCH   7  11
ATOM     11  C   UNL     1      -0.039  11.594  21.661  0.00  0.00    +0.000 C 
ATOM     12  O   UNL     1       1.129  11.894  21.411  0.00  0.00    +0.000 OA
ATOM     13  N   UNL     1      -0.906  12.499  22.246  0.00  0.00    +0.000 N 
ATOM     14  C   UNL     1      -0.528  13.915  22.362  0.00  0.00    +0.000 C 
ATOM     15  C   UNL     1      -1.658  14.825  21.836  0.00  0.00    +0.000 C 
ATOM     16  N   UNL     1      -2.973  14.470  22.411  0.00  0.00    +0.000 N 
ATOM     17  C   UNL     1      -3.326  13.041  22.388  0.00  0.00    +0.000 C 
ATOM     18  C   UNL     1      -2.168  12.186  22.927  0.00  0.00    +0.000 C 
BRANCH  16  19
ATOM     19  C   UNL     1      -3.668  15.324  23.254  0.00  0.00    +0.000 A 
ATOM     20  C   UNL     1      -2.996  15.942  24.325  0.00  0.00    +0.000 A 
ATOM     21  C   UNL     1      -3.651  16.794  25.222  0.00  0.00    +0.000 A 
ATOM     22  C   UNL     1      -5.009  17.053  25.067  0.00  0.00    +0.000 A 
ATOM     23  C   UNL     1      -5.704  16.458  24.020  0.00  0.00    +0.000 A 
ATOM     24  C   UNL     1      -5.039  15.609  23.132  0.00  0.00    +0.000 A 
ATOM     25  F   UNL     1      -5.752  15.100  22.114  0.00  0.00    +0.000 F 
ENDBRANCH  16  19
ENDBRANCH   7  11
BRANCH   3  26
ATOM     26  C   UNL     1       2.922   5.071  20.064  0.00  0.00    +0.000 A 
ATOM     27  C   UNL     1       4.221   4.985  19.558  0.00  0.00    +0.000 A 
ATOM     28  C   UNL     1       4.745   3.758  19.146  0.00  0.00    +0.000 A 
ATOM     29  C   UNL     1       3.982   2.599  19.256  0.00  0.00    +0.000 A 
ATOM     30  C   UNL     1       2.701   2.664  19.800  0.00  0.00    +0.000 A 
ATOM     31  C   UNL     1       2.177   3.893  20.209  0.00  0.00    +0.000 A 
ENDBRANCH   3  26
TORSDOF 3
ENDMDL
MODEL 3
REMARK VINA RESULT:      -7.9      3.437      4.129
REMARK  Name = 
REMARK  3 active torsions:
REMARK  status: ('A' for Active; 'I' for Inactive)
REMARK    1  A    between atoms: N_3  and  C_4
REMARK    2  A    between atoms: C_13  and  C_14
REMARK    3  A    between atoms: N_19  and  C_20
REMARK                            x       y       z     vdW  Elec       q    Type
REMARK                         _______ _______ _______ _____ _____    ______ ____
ROOT
ATOM      1  O   UNL     1       2.456   8.192  17.696  0.00  0.00    +0.000 OA
ATOM      2  C   UNL     1       2.167   7.893  18.856  0.00  0.00    +0.000 C 
ATOM      3  N   UNL     1       2.444   6.671  19.426  0.00  0.00    +0.000 N 
ATOM      4  N   UNL     1       1.494   8.794  19.674  0.00  0.00    +0.000 N 
ATOM      5  C   UNL     1       1.228   8.665  21.105  0.00  0.00    +0.000 C 
ATOM      6  C   UNL     1      -0.258   8.884  21.374  0.00  0.00    +0.000 C 
ATOM      7  C   UNL     1      -0.790  10.205  20.793  0.00  0.00    +0.000 C 
ATOM      8  C   UNL     1      -0.363  10.367  19.323  0.00  0.00    +0.000 C 
ATOM      9  C   UNL     1       1.129  10.097  19.120  0.00  0.00    +0.000 C 
ATOM     10  H   UNL     1       1.900   6.419  20.231  0.00  0.00    +0.000 HD
ENDROOT
BRANCH   7  11
ATOM     11  C   UNL     1      -0.344  11.433  21.601  0.00  0.00    +0.000 C 
ATOM     12  O   UNL     1       0.074  11.311  22.753  0.00  0.00    +0.000 OA
ATOM     13  N   UNL     1      -0.315  12.653  20.951  0.00  0.00    +0.000 N 
ATOM     14  C   UNL     1       0.434  13.780  21.525  0.00  0.00    +0.000 C 
ATOM     15  C   UNL     1       1.355  14.418  20.464  0.00  0.00    +0.000 C 
ATOM     16  N   UNL     1       0.638  14.709  19.204  0.00  0.00    +0.000 N 
ATOM     17  C   UNL     1      -0.194  13.621  18.666  0.00  0.00    +0.000 C 
ATOM     18  C   UNL     1      -1.092  13.028  19.763  0.00  0.00    +0.000 C 
BRANCH  16  19
ATOM     19  C   UNL     1       0.433  16.004  18.751  0.00  0.00    +0.000 A 
ATOM     20  C   UNL     1      -0.858  16.563  18.804  0.00  0.00    +0.000 A 
ATOM     21  C   UNL     1      -1.128  17.855  18.338  0.00  0.00    +0.000 A 
ATOM     22  C   UNL     1      -0.104  18.629  17.804  0.00  0.00    +0.000 A 
ATOM     23  C   UNL     1       1.183  18.107  17.736  0.00  0.00    +0.000 A 
ATOM     24  C   UNL     1       1.441  16.816  18.203  0.00  0.00    +0.000 A 
ATOM     25  F   UNL     1       2.711  16.382  18.154  0.00  0.00    +0.000 F 
ENDBRANCH  16  19
ENDBRANCH   7  11
BRANCH   3  26
ATOM     26  C   UNL     1       3.169   5.609  18.842  0.00  0.00    +0.000 A 
ATOM     27  C   UNL     1       4.549   5.448  18.976  0.00  0.00    +0.000 A 
ATOM     28  C   UNL     1       5.212   4.409  18.318  0.00  0.00    +0.000 A 
ATOM     29  C   UNL     1       4.496   3.506  17.538  0.00  0.00    +0.000 A 
ATOM     30  C   UNL     1       3.113   3.629  17.433  0.00  0.00    +0.000 A 
ATOM     31  C   UNL     1       2.451   4.671  18.088  0.00  0.00    +0.000 A 
ENDBRANCH   3  26
TORSDOF 3
ENDMDL
MODEL 4
REMARK VINA RESULT:      -7.8      1.525      1.752
REMARK  Name = 
REMARK  3 active torsions:
REMARK  status: ('A' for Active; 'I' for Inactive)
REMARK    1  A    between atoms: N_3  and  C_4
REMARK    2  A    between atoms: C_13  and  C_14
REMARK    3  A    between atoms: N_19  and  C_20
REMARK                            x       y       z     vdW  Elec       q    Type
REMARK                         _______ _______ _______ _____ _____    ______ ____
ROOT
ATOM      1  O   UNL     1       2.208   8.475  17.283  0.00  0.00    +0.000 OA
ATOM      2  C   UNL     1       2.026   8.156  18.459  0.00  0.00    +0.000 C 
ATOM      3  N   UNL     1       2.324   6.914  18.973  0.00  0.00    +0.000 N 
ATOM      4  N   UNL     1       1.462   9.054  19.359  0.00  0.00    +0.000 N 
ATOM      5  C   UNL     1       1.334   8.897  20.806  0.00  0.00    +0.000 C 
ATOM      6  C   UNL     1      -0.112   9.147  21.225  0.00  0.00    +0.000 C 
ATOM      7  C   UNL     1      -0.661  10.495  20.728  0.00  0.00    +0.000 C 
ATOM      8  C   UNL     1      -0.377  10.681  19.227  0.00  0.00    +0.000 C 
ATOM      9  C   UNL     1       1.080  10.378  18.871  0.00  0.00    +0.000 C 
ATOM     10  H   UNL     1       1.855   6.657  19.822  0.00  0.00    +0.000 HD
ENDROOT
BRANCH   7  11
ATOM     11  C   UNL     1      -0.105  11.691  21.514  0.00  0.00    +0.000 C 
ATOM     12  O   UNL     1       1.106  11.909  21.554  0.00  0.00    +0.000 OA
ATOM     13  N   UNL     1      -1.014  12.575  22.067  0.00  0.00    +0.000 N 
ATOM     14  C   UNL     1      -0.578  13.909  22.502  0.00  0.00    +0.000 C 
ATOM     15  C   UNL     1      -1.510  14.999  21.932  0.00  0.00    +0.000 C 
ATOM     16  N   UNL     1      -2.937  14.690  22.166  0.00  0.00    +0.000 N 
ATOM     17  C   UNL     1      -3.370  13.326  21.824  0.00  0.00    +0.000 C 
ATOM     18  C   UNL     1      -2.409  12.285  22.420  0.00  0.00    +0.000 C 
BRANCH  16  19
ATOM     19  C   UNL     1      -3.737  15.465  22.993  0.00  0.00    +0.000 A 
ATOM     20  C   UNL     1      -3.185  16.044  24.151  0.00  0.00    +0.000 A 
ATOM     21  C   UNL     1      -3.949  16.814  25.034  0.00  0.00    +0.000 A 
ATOM     22  C   UNL     1      -5.299  17.029  24.779  0.00  0.00    +0.000 A 
ATOM     23  C   UNL     1      -5.877  16.471  23.644  0.00  0.00    +0.000 A 
ATOM     24  C   UNL     1      -5.104  15.702  22.770  0.00  0.00    +0.000 A 
ATOM     25  F   UNL     1      -5.706  15.227  21.667  0.00  0.00    +0.000 F 
ENDBRANCH  16  19
ENDBRANCH   7  11
BRANCH   3  26
ATOM     26  C   UNL     1       2.959   5.849  18.298  0.00  0.00    +0.000 A 
ATOM     27  C   UNL     1       4.296   5.873  17.897  0.00  0.00    +0.000 A 
ATOM     28  C   UNL     1       4.843   4.808  17.176  0.00  0.00    +0.000 A 
ATOM     29  C   UNL     1       4.062   3.697  16.869  0.00  0.00    +0.000 A 
ATOM     30  C   UNL     1       2.740   3.641  17.303  0.00  0.00    +0.000 A 
ATOM     31  C   UNL     1       2.193   4.708  18.020  0.00  0.00    +0.000 A 
ENDBRANCH   3  26
TORSDOF 3
ENDMDL
MODEL 5
REMARK VINA RESULT:      -7.8      0.898      1.140
REMARK  Name = 
REMARK  3 active torsions:
REMARK  status: ('A' for Active; 'I' for Inactive)
REMARK    1  A    between atoms: N_3  and  C_4
REMARK    2  A    between atoms: C_13  and  C_14
REMARK    3  A    between atoms: N_19  and  C_20
REMARK                            x       y       z     vdW  Elec       q    Type
REMARK                         _______ _______ _______ _____ _____    ______ ____
ROOT
ATOM      1  O   UNL     1       2.210   8.044  17.641  0.00  0.00    +0.000 OA
ATOM      2  C   UNL     1       2.024   7.828  18.840  0.00  0.00    +0.000 C 
ATOM      3  N   UNL     1       2.319   6.634  19.460  0.00  0.00    +0.000 N 
ATOM      4  N   UNL     1       1.459   8.801  19.658  0.00  0.00    +0.000 N 
ATOM      5  C   UNL     1       1.327   8.770  21.112  0.00  0.00    +0.000 C 
ATOM      6  C   UNL     1      -0.119   9.057  21.504  0.00  0.00    +0.000 C 
ATOM      7  C   UNL     1      -0.665  10.358  20.891  0.00  0.00    +0.000 C 
ATOM      8  C   UNL     1      -0.376  10.413  19.380  0.00  0.00    +0.000 C 
ATOM      9  C   UNL     1       1.081  10.079  19.056  0.00  0.00    +0.000 C 
ATOM     10  H   UNL     1       1.847   6.452  20.327  0.00  0.00    +0.000 HD
ENDROOT
BRANCH   7  11
ATOM     11  C   UNL     1      -0.109  11.617  21.572  0.00  0.00    +0.000 C 
ATOM     12  O   UNL     1       1.100  11.849  21.575  0.00  0.00    +0.000 OA
ATOM     13  N   UNL     1      -1.018  12.531  22.072  0.00  0.00    +0.000 N 
ATOM     14  C   UNL     1      -0.590  13.900  22.395  0.00  0.00    +0.000 C 
ATOM     15  C   UNL     1      -1.543  14.933  21.760  0.00  0.00    +0.000 C 
ATOM     16  N   UNL     1      -2.963  14.629  22.042  0.00  0.00    +0.000 N 
ATOM     17  C   UNL     1      -3.386  13.238  21.814  0.00  0.00    +0.000 C 
ATOM     18  C   UNL     1      -2.404  12.256  22.472  0.00  0.00    +0.000 C 
BRANCH  16  19
ATOM     19  C   UNL     1      -3.757  15.457  22.822  0.00  0.00    +0.000 A 
ATOM     20  C   UNL     1      -4.780  16.211  22.216  0.00  0.00    +0.000 A 
ATOM     21  C   UNL     1      -5.596  17.080  22.949  0.00  0.00    +0.000 A 
ATOM     22  C   UNL     1      -5.409  17.219  24.319  0.00  0.00    +0.000 A 
ATOM     23  C   UNL     1      -4.407  16.489  24.950  0.00  0.00    +0.000 A 
ATOM     24  C   UNL     1      -3.598  15.625  24.208  0.00  0.00    +0.000 A 
ATOM     25  F   UNL     1      -2.677  14.913  24.878  0.00  0.00    +0.000 F 
ENDBRANCH  16  19
ENDBRANCH   7  11
BRANCH   3  26
ATOM     26  C   UNL     1       2.953   5.514  18.881  0.00  0.00    +0.000 A 
ATOM     27  C   UNL     1       2.332   4.658  17.968  0.00  0.00    +0.000 A 
ATOM     28  C   UNL     1       2.999   3.530  17.483  0.00  0.00    +0.000 A 
ATOM     29  C   UNL     1       4.302   3.259  17.889  0.00  0.00    +0.000 A 
ATOM     30  C   UNL     1       4.948   4.129  18.765  0.00  0.00    +0.000 A 
ATOM     31  C   UNL     1       4.279   5.255  19.252  0.00  0.00    +0.000 A 
ENDBRANCH   3  26
TORSDOF 3
ENDMDL
MODEL 6
REMARK VINA RESULT:      -7.8      3.630      4.151
REMARK  Name = 
REMARK  3 active torsions:
REMARK  status: ('A' for Active; 'I' for Inactive)
REMARK    1  A    between atoms: N_3  and  C_4
REMARK    2  A    between atoms: C_13  and  C_14
REMARK    3  A    between atoms: N_19  and  C_20
REMARK                            x       y       z     vdW  Elec       q    Type
REMARK                         _______ _______ _______ _____ _____    ______ ____
ROOT
ATOM      1  O   UNL     1       2.780   6.683  17.902  0.00  0.00    +0.000 OA
ATOM      2  C   UNL     1       2.264   6.615  19.019  0.00  0.00    +0.000 C 
ATOM      3  N   UNL     1       2.082   5.439  19.711  0.00  0.00    +0.000 N 
ATOM      4  N   UNL     1       1.793   7.760  19.654  0.00  0.00    +0.000 N 
ATOM      5  C   UNL     1       1.315   7.877  21.030  0.00  0.00    +0.000 C 
ATOM      6  C   UNL     1      -0.058   8.545  21.041  0.00  0.00    +0.000 C 
ATOM      7  C   UNL     1      -0.085   9.887  20.291  0.00  0.00    +0.000 C 
ATOM      8  C   UNL     1       0.561   9.749  18.901  0.00  0.00    +0.000 C 
ATOM      9  C   UNL     1       1.915   9.039  18.958  0.00  0.00    +0.000 C 
ATOM     10  H   UNL     1       1.386   5.448  20.434  0.00  0.00    +0.000 HD
ENDROOT
BRANCH   7  11
ATOM     11  C   UNL     1       0.600  11.019  21.071  0.00  0.00    +0.000 C 
ATOM     12  O   UNL     1       1.349  10.768  22.016  0.00  0.00    +0.000 OA
ATOM     13  N   UNL     1       0.441  12.310  20.602  0.00  0.00    +0.000 N 
ATOM     14  C   UNL     1       1.342  13.379  21.056  0.00  0.00    +0.000 C 
ATOM     15  C   UNL     1       1.901  14.167  19.854  0.00  0.00    +0.000 C 
ATOM     16  N   UNL     1       0.835  14.590  18.920  0.00  0.00    +0.000 N 
ATOM     17  C   UNL     1      -0.133  13.553  18.529  0.00  0.00    +0.000 C 
ATOM     18  C   UNL     1      -0.658  12.805  19.764  0.00  0.00    +0.000 C 
BRANCH  16  19
ATOM     19  C   UNL     1       0.515  15.925  18.716  0.00  0.00    +0.000 A 
ATOM     20  C   UNL     1      -0.823  16.345  18.839  0.00  0.00    +0.000 A 
ATOM     21  C   UNL     1      -1.207  17.673  18.622  0.00  0.00    +0.000 A 
ATOM     22  C   UNL     1      -0.254  18.624  18.274  0.00  0.00    +0.000 A 
ATOM     23  C   UNL     1       1.076  18.243  18.144  0.00  0.00    +0.000 A 
ATOM     24  C   UNL     1       1.449  16.914  18.362  0.00  0.00    +0.000 A 
ATOM     25  F   UNL     1       2.754  16.614  18.266  0.00  0.00    +0.000 F 
ENDBRANCH  16  19
ENDBRANCH   7  11
BRANCH   3  26
ATOM     26  C   UNL     1       2.523   4.154  19.327  0.00  0.00    +0.000 A 
ATOM     27  C   UNL     1       1.924   3.400  18.315  0.00  0.00    +0.000 A 
ATOM     28  C   UNL     1       2.372   2.108  18.030  0.00  0.00    +0.000 A 
ATOM     29  C   UNL     1       3.440   1.565  18.739  0.00  0.00    +0.000 A 
ATOM     30  C   UNL     1       4.074   2.324  19.720  0.00  0.00    +0.000 A 
ATOM     31  C   UNL     1       3.623   3.614  20.007  0.00  0.00    +0.000 A 
ENDBRANCH   3  26
TORSDOF 3
ENDMDL
MODEL 7
REMARK VINA RESULT:      -7.7      3.181      4.083
REMARK  Name = 
REMARK  3 active torsions:
REMARK  status: ('A' for Active; 'I' for Inactive)
REMARK    1  A    between atoms: N_3  and  C_4
REMARK    2  A    between atoms: C_13  and  C_14
REMARK    3  A    between atoms: N_19  and  C_20
REMARK                            x       y       z     vdW  Elec       q    Type
REMARK                         _______ _______ _______ _____ _____    ______ ____
ROOT
ATOM      1  O   UNL     1       2.690   7.545  18.535  0.00  0.00    +0.000 OA
ATOM      2  C   UNL     1       2.178   7.391  19.646  0.00  0.00    +0.000 C 
ATOM      3  N   UNL     1       2.210   6.209  20.349  0.00  0.00    +0.000 N 
ATOM      4  N   UNL     1       1.490   8.432  20.260  0.00  0.00    +0.000 N 
ATOM      5  C   UNL     1       0.977   8.470  21.627  0.00  0.00    +0.000 C 
ATOM      6  C   UNL     1      -0.497   8.867  21.612  0.00  0.00    +0.000 C 
ATOM      7  C   UNL     1      -0.765  10.173  20.846  0.00  0.00    +0.000 C 
ATOM      8  C   UNL     1      -0.083  10.147  19.466  0.00  0.00    +0.000 C 
ATOM      9  C   UNL     1       1.380   9.706  19.550  0.00  0.00    +0.000 C 
ATOM     10  H   UNL     1       1.514   6.093  21.062  0.00  0.00    +0.000 HD
ENDROOT
BRANCH   7  11
ATOM     11  C   UNL     1      -0.318  11.421  21.622  0.00  0.00    +0.000 C 
ATOM     12  O   UNL     1       0.048  11.335  22.794  0.00  0.00    +0.000 OA
ATOM     13  N   UNL     1      -0.227  12.612  20.924  0.00  0.00    +0.000 N 
ATOM     14  C   UNL     1       0.530  13.741  21.484  0.00  0.00    +0.000 C 
ATOM     15  C   UNL     1       1.513  14.309  20.439  0.00  0.00    +0.000 C 
ATOM     16  N   UNL     1       0.857  14.567  19.138  0.00  0.00    +0.000 N 
ATOM     17  C   UNL     1       0.017  13.480  18.609  0.00  0.00    +0.000 C 
ATOM     18  C   UNL     1      -0.942  12.958  19.690  0.00  0.00    +0.000 C 
BRANCH  16  19
ATOM     19  C   UNL     1       0.709  15.847  18.625  0.00  0.00    +0.000 A 
ATOM     20  C   UNL     1       1.762  16.429  17.895  0.00  0.00    +0.000 A 
ATOM     21  C   UNL     1       1.677  17.726  17.374  0.00  0.00    +0.000 A 
ATOM     22  C   UNL     1       0.525  18.479  17.570  0.00  0.00    +0.000 A 
ATOM     23  C   UNL     1      -0.535  17.934  18.287  0.00  0.00    +0.000 A 
ATOM     24  C   UNL     1      -0.438  16.639  18.803  0.00  0.00    +0.000 A 
ATOM     25  F   UNL     1      -1.510  16.149  19.447  0.00  0.00    +0.000 F 
ENDBRANCH  16  19
ENDBRANCH   7  11
BRANCH   3  26
ATOM     26  C   UNL     1       2.891   5.026  19.986  0.00  0.00    +0.000 A 
ATOM     27  C   UNL     1       4.204   5.003  19.511  0.00  0.00    +0.000 A 
ATOM     28  C   UNL     1       4.795   3.802  19.111  0.00  0.00    +0.000 A 
ATOM     29  C   UNL     1       4.086   2.608  19.203  0.00  0.00    +0.000 A 
ATOM     30  C   UNL     1       2.792   2.612  19.718  0.00  0.00    +0.000 A 
ATOM     31  C   UNL     1       2.200   3.814  20.114  0.00  0.00    +0.000 A 
ENDBRANCH   3  26
TORSDOF 3
ENDMDL
MODEL 8
REMARK VINA RESULT:      -7.6      2.745      3.319
REMARK  Name = 
REMARK  3 active torsions:
REMARK  status: ('A' for Active; 'I' for Inactive)
REMARK    1  A    between atoms: N_3  and  C_4
REMARK    2  A    between atoms: C_13  and  C_14
REMARK    3  A    between atoms: N_19  and  C_20
REMARK                            x       y       z     vdW  Elec       q    Type
REMARK                         _______ _______ _______ _____ _____    ______ ____
ROOT
ATOM      1  O   UNL     1       2.313   8.569  17.263  0.00  0.00    +0.000 OA
ATOM      2  C   UNL     1       2.210   8.122  18.407  0.00  0.00    +0.000 C 
ATOM      3  N   UNL     1       2.707   6.901  18.802  0.00  0.00    +0.000 N 
ATOM      4  N   UNL     1       1.536   8.839  19.391  0.00  0.00    +0.000 N 
ATOM      5  C   UNL     1       1.469   8.537  20.819  0.00  0.00    +0.000 C 
ATOM      6  C   UNL     1       0.012   8.522  21.273  0.00  0.00    +0.000 C 
ATOM      7  C   UNL     1      -0.749   9.807  20.906  0.00  0.00    +0.000 C 
ATOM      8  C   UNL     1      -0.532  10.167  19.425  0.00  0.00    +0.000 C 
ATOM      9  C   UNL     1       0.945  10.126  19.029  0.00  0.00    +0.000 C 
ATOM     10  H   UNL     1       2.304   6.500  19.629  0.00  0.00    +0.000 HD
ENDROOT
BRANCH   7  11
ATOM     11  C   UNL     1      -0.364  11.001  21.792  0.00  0.00    +0.000 C 
ATOM     12  O   UNL     1       0.275  10.833  22.831  0.00  0.00    +0.000 OA
ATOM     13  N   UNL     1      -0.655  12.269  21.322  0.00  0.00    +0.000 N 
ATOM     14  C   UNL     1      -0.003  13.445  21.916  0.00  0.00    +0.000 C 
ATOM     15  C   UNL     1       0.589  14.352  20.818  0.00  0.00    +0.000 C 
ATOM     16  N   UNL     1      -0.389  14.641  19.746  0.00  0.00    +0.000 N 
ATOM     17  C   UNL     1      -1.120  13.484  19.206  0.00  0.00    +0.000 C 
ATOM     18  C   UNL     1      -1.690  12.621  20.343  0.00  0.00    +0.000 C 
BRANCH  16  19
ATOM     19  C   UNL     1      -0.881  15.918  19.518  0.00  0.00    +0.000 A 
ATOM     20  C   UNL     1      -0.429  16.648  18.403  0.00  0.00    +0.000 A 
ATOM     21  C   UNL     1      -0.872  17.948  18.136  0.00  0.00    +0.000 A 
ATOM     22  C   UNL     1      -1.789  18.557  18.985  0.00  0.00    +0.000 A 
ATOM     23  C   UNL     1      -2.257  17.865  20.096  0.00  0.00    +0.000 A 
ATOM     24  C   UNL     1      -1.806  16.567  20.353  0.00  0.00    +0.000 A 
ATOM     25  F   UNL     1      -2.327  15.931  21.415  0.00  0.00    +0.000 F 
ENDBRANCH  16  19
ENDBRANCH   7  11
BRANCH   3  26
ATOM     26  C   UNL     1       3.481   6.011  18.027  0.00  0.00    +0.000 A 
ATOM     27  C   UNL     1       4.702   6.353  17.442  0.00  0.00    +0.000 A 
ATOM     28  C   UNL     1       5.385   5.441  16.634  0.00  0.00    +0.000 A 
ATOM     29  C   UNL     1       4.865   4.168  16.421  0.00  0.00    +0.000 A 
ATOM     30  C   UNL     1       3.670   3.799  17.035  0.00  0.00    +0.000 A 
ATOM     31  C   UNL     1       2.986   4.713  17.840  0.00  0.00    +0.000 A 
ENDBRANCH   3  26
TORSDOF 3
ENDMDL
MODEL 9
REMARK VINA RESULT:      -7.5      3.380      4.291
REMARK  Name = 
REMARK  3 active torsions:
REMARK  status: ('A' for Active; 'I' for Inactive)
REMARK    1  A    between atoms: N_3  and  C_4
REMARK    2  A    between atoms: C_13  and  C_14
REMARK    3  A    between atoms: N_19  and  C_20
REMARK                            x       y       z     vdW  Elec       q    Type
REMARK                         _______ _______ _______ _____ _____    ______ ____
ROOT
ATOM      1  O   UNL     1       2.616   7.437  18.949  0.00  0.00    +0.000 OA
ATOM      2  C   UNL     1       2.015   7.377  20.023  0.00  0.00    +0.000 C 
ATOM      3  N   UNL     1       1.919   6.236  20.786  0.00  0.00    +0.000 N 
ATOM      4  N   UNL     1       1.351   8.490  20.528  0.00  0.00    +0.000 N 
ATOM      5  C   UNL     1       0.742   8.636  21.848  0.00  0.00    +0.000 C 
ATOM      6  C   UNL     1      -0.698   9.119  21.698  0.00  0.00    +0.000 C 
ATOM      7  C   UNL     1      -0.824  10.393  20.848  0.00  0.00    +0.000 C 
ATOM      8  C   UNL     1      -0.046  10.249  19.528  0.00  0.00    +0.000 C 
ATOM      9  C   UNL     1       1.375   9.726  19.747  0.00  0.00    +0.000 C 
ATOM     10  H   UNL     1       1.166   6.203  21.449  0.00  0.00    +0.000 HD
ENDROOT
BRANCH   7  11
ATOM     11  C   UNL     1      -0.356  11.654  21.590  0.00  0.00    +0.000 C 
ATOM     12  O   UNL     1       0.055  11.586  22.749  0.00  0.00    +0.000 OA
ATOM     13  N   UNL     1      -0.301  12.837  20.875  0.00  0.00    +0.000 N 
ATOM     14  C   UNL     1       0.469  13.977  21.391  0.00  0.00    +0.000 C 
ATOM     15  C   UNL     1       1.407  14.539  20.302  0.00  0.00    +0.000 C 
ATOM     16  N   UNL     1       0.700  14.776  19.025  0.00  0.00    +0.000 N 
ATOM     17  C   UNL     1      -0.152  13.677  18.542  0.00  0.00    +0.000 C 
ATOM     18  C   UNL     1      -1.065  13.163  19.666  0.00  0.00    +0.000 C 
BRANCH  16  19
ATOM     19  C   UNL     1       0.523  16.048  18.502  0.00  0.00    +0.000 A 
ATOM     20  C   UNL     1      -0.748  16.650  18.553  0.00  0.00    +0.000 A 
ATOM     21  C   UNL     1      -0.990  17.921  18.020  0.00  0.00    +0.000 A 
ATOM     22  C   UNL     1       0.043  18.630  17.417  0.00  0.00    +0.000 A 
ATOM     23  C   UNL     1       1.311  18.064  17.348  0.00  0.00    +0.000 A 
ATOM     24  C   UNL     1       1.541  16.794  17.883  0.00  0.00    +0.000 A 
ATOM     25  F   UNL     1       2.796  16.318  17.828  0.00  0.00    +0.000 F 
ENDBRANCH  16  19
ENDBRANCH   7  11
BRANCH   3  26
ATOM     26  C   UNL     1       2.548   4.996  20.539  0.00  0.00    +0.000 A 
ATOM     27  C   UNL     1       2.204   3.810  21.191  0.00  0.00    +0.000 A 
ATOM     28  C   UNL     1       2.911   2.631  20.943  0.00  0.00    +0.000 A 
ATOM     29  C   UNL     1       3.955   2.621  20.023  0.00  0.00    +0.000 A 
ATOM     30  C   UNL     1       4.279   3.787  19.333  0.00  0.00    +0.000 A 
ATOM     31  C   UNL     1       3.573   4.967  19.585  0.00  0.00    +0.000 A 
ENDBRANCH   3  26
TORSDOF 3
ENDMDL
