MODEL 1
REMARK VINA RESULT:      -8.2      0.000      0.000
REMARK  Name = 
REMARK  10 active torsions:
REMARK  status: ('A' for Active; 'I' for Inactive)
REMARK    1  A    between atoms: C_1  and  O_2
REMARK    2  A    between atoms: O_2  and  C_3
REMARK    3  A    between atoms: C_6  and  C_7
REMARK    4  A    between atoms: C_9  and  C_10
REMARK    5  A    between atoms: C_10  and  C_11
REMARK    6  A    between atoms: C_14  and  O_15
REMARK    7  A    between atoms: C_16  and  C_17
REMARK    8  A    between atoms: C_17  and  N_18
REMARK    9  A    between atoms: N_18  and  C_19
REMARK   10  A    between atoms: C_19  and  C_20
REMARK                            x       y       z     vdW  Elec       q    Type
REMARK                         _______ _______ _______ _____ _____    ______ ____
ROOT
ATOM      1  C   UNL     1       1.998   5.457  18.997  0.00  0.00    +0.000 C 
ATOM      2  C   UNL     1       1.940   4.433  20.138  0.00  0.00    +0.000 C 
ATOM      3  C   UNL     1       3.250   3.677  20.326  0.00  0.00    +0.000 C 
ATOM      4  C   UNL     1       3.777   3.121  19.002  0.00  0.00    +0.000 C 
ATOM      5  C   UNL     1       3.789   4.224  17.931  0.00  0.00    +0.000 C 
ATOM      6  O   UNL     1       2.491   4.823  17.800  0.00  0.00    +0.000 OA
ENDROOT
BRANCH   4   7
ATOM      7  O   UNL     1       5.078   2.574  19.202  0.00  0.00    +0.000 OA
ATOM      8  H   UNL     1       5.089   1.666  18.851  0.00  0.00    +0.000 HD
ENDBRANCH   4   7
BRANCH   1   9
ATOM      9  C   UNL     1       2.792   6.746  19.291  0.00  0.00    +0.000 C 
BRANCH   9  12
ATOM     10  C   UNL     1       0.578   9.485  20.338  0.00  0.00    +0.000 A 
ATOM     11  C   UNL     1       1.180   8.284  20.642  0.00  0.00    +0.000 A 
ATOM     12  C   UNL     1       1.965   7.969  19.510  0.00  0.00    +0.000 A 
ATOM     13  N   UNL     1       1.837   8.906  18.562  0.00  0.00    +0.000 NA
ATOM     14  O   UNL     1       0.965   9.855  19.083  0.00  0.00    +0.000 OA
BRANCH  10  18
ATOM     15  C   UNL     1      -1.830  12.187  22.644  0.00  0.00    +0.000 A 
ATOM     16  C   UNL     1      -1.285  11.042  23.214  0.00  0.00    +0.000 A 
ATOM     17  C   UNL     1      -0.519  10.161  22.445  0.00  0.00    +0.000 A 
ATOM     18  C   UNL     1      -0.288  10.397  21.083  0.00  0.00    +0.000 A 
ATOM     19  C   UNL     1      -0.888  11.527  20.504  0.00  0.00    +0.000 A 
ATOM     20  C   UNL     1      -1.651  12.419  21.280  0.00  0.00    +0.000 A 
BRANCH  15  22
ATOM     21  C   UNL     1      -3.723  12.384  24.056  0.00  0.00    +0.000 C 
ATOM     22  O   UNL     1      -2.550  12.967  23.505  0.00  0.00    +0.000 OA
ENDBRANCH  15  22
ENDBRANCH  10  18
ENDBRANCH   9  12
ENDBRANCH   1   9
BRANCH   5  23
ATOM     23  C   UNL     1       4.252   3.690  16.551  0.00  0.00    +0.000 C 
BRANCH  23  24
ATOM     24  N   UNL     1       5.662   3.246  16.492  0.00  0.00    +0.000 NA
ATOM     25  H   UNL     1       5.693   2.406  15.910  0.00  0.00    +0.000 HD
BRANCH  24  26
ATOM     26  C   UNL     1       6.545   4.246  15.885  0.00  0.00    +0.000 C 
BRANCH  26  27
ATOM     27  C   UNL     1       7.086   5.247  16.883  0.00  0.00    +0.000 A 
ATOM     28  C   UNL     1       7.112   6.610  16.544  0.00  0.00    +0.000 A 
ATOM     29  C   UNL     1       7.606   7.562  17.437  0.00  0.00    +0.000 A 
ATOM     30  C   UNL     1       8.062   7.165  18.691  0.00  0.00    +0.000 A 
ATOM     31  C   UNL     1       8.010   5.821  19.057  0.00  0.00    +0.000 A 
ATOM     32  C   UNL     1       7.519   4.867  18.161  0.00  0.00    +0.000 A 
ENDBRANCH  26  27
ENDBRANCH  24  26
ENDBRANCH  23  24
ENDBRANCH   5  23
TORSDOF 9
ENDMDL
MODEL 2
REMARK VINA RESULT:      -8.2      0.701      1.053
REMARK  Name = 
REMARK  10 active torsions:
REMARK  status: ('A' for Active; 'I' for Inactive)
REMARK    1  A    between atoms: C_1  and  O_2
REMARK    2  A    between atoms: O_2  and  C_3
REMARK    3  A    between atoms: C_6  and  C_7
REMARK    4  A    between atoms: C_9  and  C_10
REMARK    5  A    between atoms: C_10  and  C_11
REMARK    6  A    between atoms: C_14  and  O_15
REMARK    7  A    between atoms: C_16  and  C_17
REMARK    8  A    between atoms: C_17  and  N_18
REMARK    9  A    between atoms: N_18  and  C_19
REMARK   10  A    between atoms: C_19  and  C_20
REMARK                            x       y       z     vdW  Elec       q    Type
REMARK                         _______ _______ _______ _____ _____    ______ ____
ROOT
ATOM      1  C   UNL     1       1.779   5.123  19.455  0.00  0.00    +0.000 C 
ATOM      2  C   UNL     1       1.600   3.980  20.463  0.00  0.00    +0.000 C 
ATOM      3  C   UNL     1       2.832   3.089  20.577  0.00  0.00    +0.000 C 
ATOM      4  C   UNL     1       3.341   2.649  19.203  0.00  0.00    +0.000 C 
ATOM      5  C   UNL     1       3.480   3.865  18.274  0.00  0.00    +0.000 C 
ATOM      6  O   UNL     1       2.244   4.593  18.197  0.00  0.00    +0.000 OA
ENDROOT
BRANCH   4   7
ATOM      7  O   UNL     1       4.581   1.963  19.355  0.00  0.00    +0.000 OA
ATOM      8  H   UNL     1       4.399   1.013  19.460  0.00  0.00    +0.000 HD
ENDBRANCH   4   7
BRANCH   1   9
ATOM      9  C   UNL     1       2.679   6.289  19.914  0.00  0.00    +0.000 C 
BRANCH   9  12
ATOM     10  C   UNL     1       0.835   9.327  20.850  0.00  0.00    +0.000 A 
ATOM     11  C   UNL     1       1.359   8.110  21.229  0.00  0.00    +0.000 A 
ATOM     12  C   UNL     1       1.989   7.604  20.071  0.00  0.00    +0.000 A 
ATOM     13  N   UNL     1       1.844   8.444  19.039  0.00  0.00    +0.000 NA
ATOM     14  O   UNL     1       1.118   9.524  19.530  0.00  0.00    +0.000 OA
BRANCH  10  18
ATOM     15  C   UNL     1      -1.290  12.509  22.792  0.00  0.00    +0.000 A 
ATOM     16  C   UNL     1      -0.387  12.766  21.766  0.00  0.00    +0.000 A 
ATOM     17  C   UNL     1       0.313  11.721  21.157  0.00  0.00    +0.000 A 
ATOM     18  C   UNL     1       0.135  10.392  21.566  0.00  0.00    +0.000 A 
ATOM     19  C   UNL     1      -0.737  10.148  22.637  0.00  0.00    +0.000 A 
ATOM     20  C   UNL     1      -1.450  11.199  23.244  0.00  0.00    +0.000 A 
BRANCH  15  22
ATOM     21  C   UNL     1      -3.330  13.650  23.184  0.00  0.00    +0.000 C 
ATOM     22  O   UNL     1      -1.913  13.616  23.295  0.00  0.00    +0.000 OA
ENDBRANCH  15  22
ENDBRANCH  10  18
ENDBRANCH   9  12
ENDBRANCH   1   9
BRANCH   5  23
ATOM     23  C   UNL     1       3.927   3.459  16.846  0.00  0.00    +0.000 C 
BRANCH  23  24
ATOM     24  N   UNL     1       5.380   3.228  16.688  0.00  0.00    +0.000 NA
ATOM     25  H   UNL     1       5.494   2.390  16.114  0.00  0.00    +0.000 HD
BRANCH  24  26
ATOM     26  C   UNL     1       6.059   4.335  16.008  0.00  0.00    +0.000 C 
BRANCH  26  27
ATOM     27  C   UNL     1       6.780   5.265  16.959  0.00  0.00    +0.000 A 
ATOM     28  C   UNL     1       6.910   6.624  16.625  0.00  0.00    +0.000 A 
ATOM     29  C   UNL     1       7.570   7.511  17.476  0.00  0.00    +0.000 A 
ATOM     30  C   UNL     1       8.094   7.055  18.682  0.00  0.00    +0.000 A 
ATOM     31  C   UNL     1       7.943   5.718  19.045  0.00  0.00    +0.000 A 
ATOM     32  C   UNL     1       7.285   4.828  18.192  0.00  0.00    +0.000 A 
ENDBRANCH  26  27
ENDBRANCH  24  26
ENDBRANCH  23  24
ENDBRANCH   5  23
TORSDOF 9
ENDMDL
MODEL 3
REMARK VINA RESULT:      -8.0      1.844      4.170
REMARK  Name = 
REMARK  10 active torsions:
REMARK  status: ('A' for Active; 'I' for Inactive)
REMARK    1  A    between atoms: C_1  and  O_2
REMARK    2  A    between atoms: O_2  and  C_3
REMARK    3  A    between atoms: C_6  and  C_7
REMARK    4  A    between atoms: C_9  and  C_10
REMARK    5  A    between atoms: C_10  and  C_11
REMARK    6  A    between atoms: C_14  and  O_15
REMARK    7  A    between atoms: C_16  and  C_17
REMARK    8  A    between atoms: C_17  and  N_18
REMARK    9  A    between atoms: N_18  and  C_19
REMARK   10  A    between atoms: C_19  and  C_20
REMARK                            x       y       z     vdW  Elec       q    Type
REMARK                         _______ _______ _______ _____ _____    ______ ____
ROOT
ATOM      1  C   UNL     1       4.531   6.978  17.451  0.00  0.00    +0.000 C 
ATOM      2  C   UNL     1       5.129   6.780  16.052  0.00  0.00    +0.000 C 
ATOM      3  C   UNL     1       5.179   5.317  15.629  0.00  0.00    +0.000 C 
ATOM      4  C   UNL     1       5.801   4.435  16.714  0.00  0.00    +0.000 C 
ATOM      5  C   UNL     1       5.135   4.716  18.071  0.00  0.00    +0.000 C 
ATOM      6  O   UNL     1       5.200   6.114  18.392  0.00  0.00    +0.000 OA
ENDROOT
BRANCH   4   7
ATOM      7  O   UNL     1       5.672   3.065  16.343  0.00  0.00    +0.000 OA
ATOM      8  H   UNL     1       5.326   2.569  17.106  0.00  0.00    +0.000 HD
ENDBRANCH   4   7
BRANCH   1   9
ATOM      9  C   UNL     1       3.002   6.812  17.559  0.00  0.00    +0.000 C 
BRANCH   9  12
ATOM     10  C   UNL     1       1.104   9.184  19.625  0.00  0.00    +0.000 A 
ATOM     11  C   UNL     1       1.671   7.935  19.496  0.00  0.00    +0.000 A 
ATOM     12  C   UNL     1       2.282   7.938  18.222  0.00  0.00    +0.000 A 
ATOM     13  N   UNL     1       2.086   9.106  17.599  0.00  0.00    +0.000 NA
ATOM     14  O   UNL     1       1.345   9.886  18.480  0.00  0.00    +0.000 OA
BRANCH  10  18
ATOM     15  C   UNL     1      -1.127  11.175  22.702  0.00  0.00    +0.000 A 
ATOM     16  C   UNL     1      -1.041  11.703  21.419  0.00  0.00    +0.000 A 
ATOM     17  C   UNL     1      -0.294  11.053  20.432  0.00  0.00    +0.000 A 
ATOM     18  C   UNL     1       0.395   9.864  20.708  0.00  0.00    +0.000 A 
ATOM     19  C   UNL     1       0.347   9.369  22.020  0.00  0.00    +0.000 A 
ATOM     20  C   UNL     1      -0.413  10.017  23.011  0.00  0.00    +0.000 A 
BRANCH  15  22
ATOM     21  C   UNL     1      -2.236  13.220  23.157  0.00  0.00    +0.000 C 
ATOM     22  O   UNL     1      -1.895  11.903  23.568  0.00  0.00    +0.000 OA
ENDBRANCH  15  22
ENDBRANCH  10  18
ENDBRANCH   9  12
ENDBRANCH   1   9
BRANCH   5  23
ATOM     23  C   UNL     1       5.781   3.894  19.217  0.00  0.00    +0.000 C 
BRANCH  23  24
ATOM     24  N   UNL     1       5.306   2.498  19.329  0.00  0.00    +0.000 NA
ATOM     25  H   UNL     1       6.125   1.910  19.498  0.00  0.00    +0.000 HD
BRANCH  24  26
ATOM     26  C   UNL     1       4.376   2.304  20.445  0.00  0.00    +0.000 C 
BRANCH  26  27
ATOM     27  C   UNL     1       2.943   2.638  20.091  0.00  0.00    +0.000 A 
ATOM     28  C   UNL     1       2.231   3.547  20.892  0.00  0.00    +0.000 A 
ATOM     29  C   UNL     1       0.908   3.878  20.598  0.00  0.00    +0.000 A 
ATOM     30  C   UNL     1       0.283   3.317  19.487  0.00  0.00    +0.000 A 
ATOM     31  C   UNL     1       0.986   2.441  18.662  0.00  0.00    +0.000 A 
ATOM     32  C   UNL     1       2.311   2.107  18.958  0.00  0.00    +0.000 A 
ENDBRANCH  26  27
ENDBRANCH  24  26
ENDBRANCH  23  24
ENDBRANCH   5  23
TORSDOF 9
ENDMDL
MODEL 4
REMARK VINA RESULT:      -8.0      0.938      1.519
REMARK  Name = 
REMARK  10 active torsions:
REMARK  status: ('A' for Active; 'I' for Inactive)
REMARK    1  A    between atoms: C_1  and  O_2
REMARK    2  A    between atoms: O_2  and  C_3
REMARK    3  A    between atoms: C_6  and  C_7
REMARK    4  A    between atoms: C_9  and  C_10
REMARK    5  A    between atoms: C_10  and  C_11
REMARK    6  A    between atoms: C_14  and  O_15
REMARK    7  A    between atoms: C_16  and  C_17
REMARK    8  A    between atoms: C_17  and  N_18
REMARK    9  A    between atoms: N_18  and  C_19
REMARK   10  A    between atoms: C_19  and  C_20
REMARK                            x       y       z     vdW  Elec       q    Type
REMARK                         _______ _______ _______ _____ _____    ______ ____
ROOT
ATOM      1  C   UNL     1       1.762   5.118  19.485  0.00  0.00    +0.000 C 
ATOM      2  C   UNL     1       1.435   4.270  20.720  0.00  0.00    +0.000 C 
ATOM      3  C   UNL     1       2.605   3.402  21.172  0.00  0.00    +0.000 C 
ATOM      4  C   UNL     1       3.210   2.618  20.007  0.00  0.00    +0.000 C 
ATOM      5  C   UNL     1       3.494   3.558  18.825  0.00  0.00    +0.000 C 
ATOM      6  O   UNL     1       2.309   4.277  18.448  0.00  0.00    +0.000 OA
ENDROOT
BRANCH   4   7
ATOM      7  O   UNL     1       4.396   1.958  20.445  0.00  0.00    +0.000 OA
ATOM      8  H   UNL     1       4.493   2.100  21.403  0.00  0.00    +0.000 HD
ENDBRANCH   4   7
BRANCH   1   9
ATOM      9  C   UNL     1       2.675   6.337  19.729  0.00  0.00    +0.000 C 
BRANCH   9  12
ATOM     10  C   UNL     1       0.814   9.333  20.760  0.00  0.00    +0.000 A 
ATOM     11  C   UNL     1       1.378   8.126  21.109  0.00  0.00    +0.000 A 
ATOM     12  C   UNL     1       1.967   7.637  19.922  0.00  0.00    +0.000 A 
ATOM     13  N   UNL     1       1.761   8.478  18.902  0.00  0.00    +0.000 NA
ATOM     14  O   UNL     1       1.036   9.541  19.429  0.00  0.00    +0.000 OA
BRANCH  10  18
ATOM     15  C   UNL     1      -1.280  12.469  22.807  0.00  0.00    +0.000 A 
ATOM     16  C   UNL     1      -0.379  12.751  21.786  0.00  0.00    +0.000 A 
ATOM     17  C   UNL     1       0.311  11.720  21.142  0.00  0.00    +0.000 A 
ATOM     18  C   UNL     1       0.125  10.381  21.510  0.00  0.00    +0.000 A 
ATOM     19  C   UNL     1      -0.746  10.110  22.578  0.00  0.00    +0.000 A 
ATOM     20  C   UNL     1      -1.447  11.147  23.220  0.00  0.00    +0.000 A 
BRANCH  15  22
ATOM     21  C   UNL     1      -3.302  13.647  23.181  0.00  0.00    +0.000 C 
ATOM     22  O   UNL     1      -1.892  13.565  23.347  0.00  0.00    +0.000 OA
ENDBRANCH  15  22
ENDBRANCH  10  18
ENDBRANCH   9  12
ENDBRANCH   1   9
BRANCH   5  23
ATOM     23  C   UNL     1       4.045   2.795  17.593  0.00  0.00    +0.000 C 
BRANCH  23  24
ATOM     24  N   UNL     1       5.110   3.500  16.845  0.00  0.00    +0.000 NA
ATOM     25  H   UNL     1       5.088   3.154  15.884  0.00  0.00    +0.000 HD
BRANCH  24  26
ATOM     26  C   UNL     1       4.907   4.951  16.806  0.00  0.00    +0.000 C 
BRANCH  26  27
ATOM     27  C   UNL     1       6.055   5.730  17.410  0.00  0.00    +0.000 A 
ATOM     28  C   UNL     1       6.729   5.206  18.527  0.00  0.00    +0.000 A 
ATOM     29  C   UNL     1       7.791   5.897  19.112  0.00  0.00    +0.000 A 
ATOM     30  C   UNL     1       8.206   7.114  18.578  0.00  0.00    +0.000 A 
ATOM     31  C   UNL     1       7.571   7.630  17.449  0.00  0.00    +0.000 A 
ATOM     32  C   UNL     1       6.505   6.941  16.864  0.00  0.00    +0.000 A 
ENDBRANCH  26  27
ENDBRANCH  24  26
ENDBRANCH  23  24
ENDBRANCH   5  23
TORSDOF 9
ENDMDL
MODEL 5
REMARK VINA RESULT:      -7.9      1.552      2.654
REMARK  Name = 
REMARK  10 active torsions:
REMARK  status: ('A' for Active; 'I' for Inactive)
REMARK    1  A    between atoms: C_1  and  O_2
REMARK    2  A    between atoms: O_2  and  C_3
REMARK    3  A    between atoms: C_6  and  C_7
REMARK    4  A    between atoms: C_9  and  C_10
REMARK    5  A    between atoms: C_10  and  C_11
REMARK    6  A    between atoms: C_14  and  O_15
REMARK    7  A    between atoms: C_16  and  C_17
REMARK    8  A    between atoms: C_17  and  N_18
REMARK    9  A    between atoms: N_18  and  C_19
REMARK   10  A    between atoms: C_19  and  C_20
REMARK                            x       y       z     vdW  Elec       q    Type
REMARK                         _______ _______ _______ _____ _____    ______ ____
ROOT
ATOM      1  C   UNL     1       1.940   5.052  19.372  0.00  0.00    +0.000 C 
ATOM      2  C   UNL     1       1.771   3.955  20.432  0.00  0.00    +0.000 C 
ATOM      3  C   UNL     1       3.026   3.111  20.619  0.00  0.00    +0.000 C 
ATOM      4  C   UNL     1       3.582   2.620  19.280  0.00  0.00    +0.000 C 
ATOM      5  C   UNL     1       3.707   3.793  18.295  0.00  0.00    +0.000 C 
ATOM      6  O   UNL     1       2.452   4.476  18.153  0.00  0.00    +0.000 OA
ENDROOT
BRANCH   4   7
ATOM      7  O   UNL     1       4.840   1.983  19.495  0.00  0.00    +0.000 OA
ATOM      8  H   UNL     1       5.371   2.540  20.090  0.00  0.00    +0.000 HD
ENDBRANCH   4   7
BRANCH   1   9
ATOM      9  C   UNL     1       2.790   6.267  19.794  0.00  0.00    +0.000 C 
BRANCH   9  12
ATOM     10  C   UNL     1       0.803   9.223  20.694  0.00  0.00    +0.000 A 
ATOM     11  C   UNL     1       1.372   8.031  21.084  0.00  0.00    +0.000 A 
ATOM     12  C   UNL     1       2.043   7.551  19.937  0.00  0.00    +0.000 A 
ATOM     13  N   UNL     1       1.880   8.384  18.902  0.00  0.00    +0.000 NA
ATOM     14  O   UNL     1       1.100   9.432  19.379  0.00  0.00    +0.000 OA
BRANCH  10  18
ATOM     15  C   UNL     1      -1.522  12.281  22.606  0.00  0.00    +0.000 A 
ATOM     16  C   UNL     1      -0.841  12.530  21.420  0.00  0.00    +0.000 A 
ATOM     17  C   UNL     1      -0.071  11.530  20.819  0.00  0.00    +0.000 A 
ATOM     18  C   UNL     1       0.045  10.258  21.397  0.00  0.00    +0.000 A 
ATOM     19  C   UNL     1      -0.602  10.033  22.621  0.00  0.00    +0.000 A 
ATOM     20  C   UNL     1      -1.385  11.037  23.221  0.00  0.00    +0.000 A 
BRANCH  15  22
ATOM     21  C   UNL     1      -3.184  13.918  22.187  0.00  0.00    +0.000 C 
ATOM     22  O   UNL     1      -2.244  13.340  23.083  0.00  0.00    +0.000 OA
ENDBRANCH  15  22
ENDBRANCH  10  18
ENDBRANCH   9  12
ENDBRANCH   1   9
BRANCH   5  23
ATOM     23  C   UNL     1       4.202   3.331  16.900  0.00  0.00    +0.000 C 
BRANCH  23  24
ATOM     24  N   UNL     1       5.658   3.465  16.678  0.00  0.00    +0.000 NA
ATOM     25  H   UNL     1       5.945   2.697  16.067  0.00  0.00    +0.000 HD
BRANCH  24  26
ATOM     26  C   UNL     1       6.017   4.723  16.017  0.00  0.00    +0.000 C 
BRANCH  26  27
ATOM     27  C   UNL     1       6.399   4.545  14.564  0.00  0.00    +0.000 A 
ATOM     28  C   UNL     1       7.469   5.289  14.038  0.00  0.00    +0.000 A 
ATOM     29  C   UNL     1       7.849   5.153  12.703  0.00  0.00    +0.000 A 
ATOM     30  C   UNL     1       7.176   4.255  11.878  0.00  0.00    +0.000 A 
ATOM     31  C   UNL     1       6.136   3.483  12.393  0.00  0.00    +0.000 A 
ATOM     32  C   UNL     1       5.753   3.622  13.729  0.00  0.00    +0.000 A 
ENDBRANCH  26  27
ENDBRANCH  24  26
ENDBRANCH  23  24
ENDBRANCH   5  23
TORSDOF 9
ENDMDL
MODEL 6
REMARK VINA RESULT:      -7.9      1.241      1.610
REMARK  Name = 
REMARK  10 active torsions:
REMARK  status: ('A' for Active; 'I' for Inactive)
REMARK    1  A    between atoms: C_1  and  O_2
REMARK    2  A    between atoms: O_2  and  C_3
REMARK    3  A    between atoms: C_6  and  C_7
REMARK    4  A    between atoms: C_9  and  C_10
REMARK    5  A    between atoms: C_10  and  C_11
REMARK    6  A    between atoms: C_14  and  O_15
REMARK    7  A    between atoms: C_16  and  C_17
REMARK    8  A    between atoms: C_17  and  N_18
REMARK    9  A    between atoms: N_18  and  C_19
REMARK   10  A    between atoms: C_19  and  C_20
REMARK                            x       y       z     vdW  Elec       q    Type
REMARK                         _______ _______ _______ _____ _____    ______ ____
ROOT
ATOM      1  C   UNL     1       1.454   4.248  19.356  0.00  0.00    +0.000 C 
ATOM      2  C   UNL     1       1.161   2.871  19.966  0.00  0.00    +0.000 C 
ATOM      3  C   UNL     1       2.342   1.912  19.865  0.00  0.00    +0.000 C 
ATOM      4  C   UNL     1       2.915   1.869  18.447  0.00  0.00    +0.000 C 
ATOM      5  C   UNL     1       3.166   3.295  17.932  0.00  0.00    +0.000 C 
ATOM      6  O   UNL     1       1.972   4.088  18.020  0.00  0.00    +0.000 OA
ENDROOT
BRANCH   4   7
ATOM      7  O   UNL     1       4.112   1.095  18.443  0.00  0.00    +0.000 OA
ATOM      8  H   UNL     1       4.770   1.540  19.005  0.00  0.00    +0.000 HD
ENDBRANCH   4   7
BRANCH   1   9
ATOM      9  C   UNL     1       2.374   5.168  20.185  0.00  0.00    +0.000 C 
BRANCH   9  12
ATOM     10  C   UNL     1       0.979   8.511  20.797  0.00  0.00    +0.000 A 
ATOM     11  C   UNL     1       1.084   7.195  21.191  0.00  0.00    +0.000 A 
ATOM     12  C   UNL     1       1.954   6.599  20.251  0.00  0.00    +0.000 A 
ATOM     13  N   UNL     1       2.343   7.485  19.327  0.00  0.00    +0.000 NA
ATOM     14  O   UNL     1       1.728   8.684  19.670  0.00  0.00    +0.000 OA
BRANCH  10  18
ATOM     15  C   UNL     1      -0.903  11.920  22.601  0.00  0.00    +0.000 A 
ATOM     16  C   UNL     1      -1.031  10.651  23.153  0.00  0.00    +0.000 A 
ATOM     17  C   UNL     1      -0.429   9.546  22.543  0.00  0.00    +0.000 A 
ATOM     18  C   UNL     1       0.308   9.683  21.358  0.00  0.00    +0.000 A 
ATOM     19  C   UNL     1       0.386  10.959  20.780  0.00  0.00    +0.000 A 
ATOM     20  C   UNL     1      -0.211  12.072  21.399  0.00  0.00    +0.000 A 
BRANCH  15  22
ATOM     21  C   UNL     1      -2.941  12.792  23.438  0.00  0.00    +0.000 C 
ATOM     22  O   UNL     1      -1.532  12.912  23.300  0.00  0.00    +0.000 OA
ENDBRANCH  15  22
ENDBRANCH  10  18
ENDBRANCH   9  12
ENDBRANCH   1   9
BRANCH   5  23
ATOM     23  C   UNL     1       3.684   3.305  16.471  0.00  0.00    +0.000 C 
BRANCH  23  24
ATOM     24  N   UNL     1       4.758   4.283  16.193  0.00  0.00    +0.000 NA
ATOM     25  H   UNL     1       4.725   4.497  15.194  0.00  0.00    +0.000 HD
BRANCH  24  26
ATOM     26  C   UNL     1       4.582   5.540  16.927  0.00  0.00    +0.000 C 
BRANCH  26  27
ATOM     27  C   UNL     1       5.858   6.040  17.568  0.00  0.00    +0.000 A 
ATOM     28  C   UNL     1       6.451   5.289  18.597  0.00  0.00    +0.000 A 
ATOM     29  C   UNL     1       7.627   5.720  19.212  0.00  0.00    +0.000 A 
ATOM     30  C   UNL     1       8.238   6.899  18.793  0.00  0.00    +0.000 A 
ATOM     31  C   UNL     1       7.683   7.636  17.749  0.00  0.00    +0.000 A 
ATOM     32  C   UNL     1       6.503   7.207  17.135  0.00  0.00    +0.000 A 
ENDBRANCH  26  27
ENDBRANCH  24  26
ENDBRANCH  23  24
ENDBRANCH   5  23
TORSDOF 9
ENDMDL
MODEL 7
REMARK VINA RESULT:      -7.9      1.550      1.753
REMARK  Name = 
REMARK  10 active torsions:
REMARK  status: ('A' for Active; 'I' for Inactive)
REMARK    1  A    between atoms: C_1  and  O_2
REMARK    2  A    between atoms: O_2  and  C_3
REMARK    3  A    between atoms: C_6  and  C_7
REMARK    4  A    between atoms: C_9  and  C_10
REMARK    5  A    between atoms: C_10  and  C_11
REMARK    6  A    between atoms: C_14  and  O_15
REMARK    7  A    between atoms: C_16  and  C_17
REMARK    8  A    between atoms: C_17  and  N_18
REMARK    9  A    between atoms: N_18  and  C_19
REMARK   10  A    between atoms: C_19  and  C_20
REMARK                            x       y       z     vdW  Elec       q    Type
REMARK                         _______ _______ _______ _____ _____    ______ ____
ROOT
ATOM      1  C   UNL     1       1.748   4.908  19.706  0.00  0.00    +0.000 C 
ATOM      2  C   UNL     1       1.716   3.705  20.658  0.00  0.00    +0.000 C 
ATOM      3  C   UNL     1       3.033   2.937  20.690  0.00  0.00    +0.000 C 
ATOM      4  C   UNL     1       3.536   2.617  19.280  0.00  0.00    +0.000 C 
ATOM      5  C   UNL     1       3.522   3.885  18.412  0.00  0.00    +0.000 C 
ATOM      6  O   UNL     1       2.220   4.489  18.409  0.00  0.00    +0.000 OA
ENDROOT
BRANCH   4   7
ATOM      7  O   UNL     1       4.842   2.053  19.360  0.00  0.00    +0.000 OA
ATOM      8  H   UNL     1       5.220   2.268  20.231  0.00  0.00    +0.000 HD
ENDBRANCH   4   7
BRANCH   1   9
ATOM      9  C   UNL     1       2.543   6.134  20.199  0.00  0.00    +0.000 C 
BRANCH   9  12
ATOM     10  C   UNL     1       1.142   9.443  19.431  0.00  0.00    +0.000 A 
ATOM     11  C   UNL     1       1.377   8.458  20.365  0.00  0.00    +0.000 A 
ATOM     12  C   UNL     1       2.081   7.450  19.668  0.00  0.00    +0.000 A 
ATOM     13  N   UNL     1       2.250   7.784  18.383  0.00  0.00    +0.000 NA
ATOM     14  O   UNL     1       1.659   9.034  18.236  0.00  0.00    +0.000 OA
BRANCH  10  18
ATOM     15  C   UNL     1      -0.669  13.315  19.796  0.00  0.00    +0.000 A 
ATOM     16  C   UNL     1      -1.379  12.158  20.093  0.00  0.00    +0.000 A 
ATOM     17  C   UNL     1      -0.781  10.901  19.950  0.00  0.00    +0.000 A 
ATOM     18  C   UNL     1       0.538  10.772  19.496  0.00  0.00    +0.000 A 
ATOM     19  C   UNL     1       1.228  11.944  19.147  0.00  0.00    +0.000 A 
ATOM     20  C   UNL     1       0.630  13.208  19.300  0.00  0.00    +0.000 A 
BRANCH  15  22
ATOM     21  C   UNL     1      -1.787  14.749  21.316  0.00  0.00    +0.000 C 
ATOM     22  O   UNL     1      -1.365  14.476  19.987  0.00  0.00    +0.000 OA
ENDBRANCH  15  22
ENDBRANCH  10  18
ENDBRANCH   9  12
ENDBRANCH   1   9
BRANCH   5  23
ATOM     23  C   UNL     1       3.959   3.596  16.953  0.00  0.00    +0.000 C 
BRANCH  23  24
ATOM     24  N   UNL     1       5.393   3.277  16.780  0.00  0.00    +0.000 NA
ATOM     25  H   UNL     1       5.451   2.427  16.216  0.00  0.00    +0.000 HD
BRANCH  24  26
ATOM     26  C   UNL     1       6.127   4.334  16.078  0.00  0.00    +0.000 C 
BRANCH  26  27
ATOM     27  C   UNL     1       6.837   5.289  17.012  0.00  0.00    +0.000 A 
ATOM     28  C   UNL     1       6.948   6.644  16.657  0.00  0.00    +0.000 A 
ATOM     29  C   UNL     1       7.597   7.553  17.493  0.00  0.00    +0.000 A 
ATOM     30  C   UNL     1       8.129   7.124  18.706  0.00  0.00    +0.000 A 
ATOM     31  C   UNL     1       7.997   5.790  19.089  0.00  0.00    +0.000 A 
ATOM     32  C   UNL     1       7.350   4.878  18.252  0.00  0.00    +0.000 A 
ENDBRANCH  26  27
ENDBRANCH  24  26
ENDBRANCH  23  24
ENDBRANCH   5  23
TORSDOF 9
ENDMDL
MODEL 8
REMARK VINA RESULT:      -7.8      1.613      2.542
REMARK  Name = 
REMARK  10 active torsions:
REMARK  status: ('A' for Active; 'I' for Inactive)
REMARK    1  A    between atoms: C_1  and  O_2
REMARK    2  A    between atoms: O_2  and  C_3
REMARK    3  A    between atoms: C_6  and  C_7
REMARK    4  A    between atoms: C_9  and  C_10
REMARK    5  A    between atoms: C_10  and  C_11
REMARK    6  A    between atoms: C_14  and  O_15
REMARK    7  A    between atoms: C_16  and  C_17
REMARK    8  A    between atoms: C_17  and  N_18
REMARK    9  A    between atoms: N_18  and  C_19
REMARK   10  A    between atoms: C_19  and  C_20
REMARK                            x       y       z     vdW  Elec       q    Type
REMARK                         _______ _______ _______ _____ _____    ______ ____
ROOT
ATOM      1  C   UNL     1       1.694   4.811  19.851  0.00  0.00    +0.000 C 
ATOM      2  C   UNL     1       1.658   3.548  20.721  0.00  0.00    +0.000 C 
ATOM      3  C   UNL     1       2.973   2.776  20.703  0.00  0.00    +0.000 C 
ATOM      4  C   UNL     1       3.477   2.550  19.276  0.00  0.00    +0.000 C 
ATOM      5  C   UNL     1       3.468   3.873  18.494  0.00  0.00    +0.000 C 
ATOM      6  O   UNL     1       2.166   4.479  18.529  0.00  0.00    +0.000 OA
ENDROOT
BRANCH   4   7
ATOM      7  O   UNL     1       4.782   1.978  19.320  0.00  0.00    +0.000 OA
ATOM      8  H   UNL     1       5.211   2.119  18.457  0.00  0.00    +0.000 HD
ENDBRANCH   4   7
BRANCH   1   9
ATOM      9  C   UNL     1       2.491   6.000  20.425  0.00  0.00    +0.000 C 
BRANCH   9  12
ATOM     10  C   UNL     1       0.564   9.117  20.685  0.00  0.00    +0.000 A 
ATOM     11  C   UNL     1       0.954   7.930  21.263  0.00  0.00    +0.000 A 
ATOM     12  C   UNL     1       1.819   7.329  20.321  0.00  0.00    +0.000 A 
ATOM     13  N   UNL     1       1.937   8.087  19.225  0.00  0.00    +0.000 NA
ATOM     14  O   UNL     1       1.146   9.208  19.454  0.00  0.00    +0.000 OA
BRANCH  10  18
ATOM     15  C   UNL     1      -1.697  12.467  22.128  0.00  0.00    +0.000 A 
ATOM     16  C   UNL     1      -1.204  11.502  22.999  0.00  0.00    +0.000 A 
ATOM     17  C   UNL     1      -0.487  10.405  22.512  0.00  0.00    +0.000 A 
ATOM     18  C   UNL     1      -0.253  10.241  21.140  0.00  0.00    +0.000 A 
ATOM     19  C   UNL     1      -0.800  11.192  20.265  0.00  0.00    +0.000 A 
ATOM     20  C   UNL     1      -1.514  12.301  20.755  0.00  0.00    +0.000 A 
BRANCH  15  22
ATOM     21  C   UNL     1      -1.663  14.214  23.729  0.00  0.00    +0.000 C 
ATOM     22  O   UNL     1      -2.372  13.490  22.733  0.00  0.00    +0.000 OA
ENDBRANCH  15  22
ENDBRANCH  10  18
ENDBRANCH   9  12
ENDBRANCH   1   9
BRANCH   5  23
ATOM     23  C   UNL     1       3.906   3.681  17.019  0.00  0.00    +0.000 C 
BRANCH  23  24
ATOM     24  N   UNL     1       5.367   3.592  16.807  0.00  0.00    +0.000 NA
ATOM     25  H   UNL     1       5.538   2.791  16.195  0.00  0.00    +0.000 HD
BRANCH  24  26
ATOM     26  C   UNL     1       5.917   4.783  16.153  0.00  0.00    +0.000 C 
BRANCH  26  27
ATOM     27  C   UNL     1       6.281   4.552  14.703  0.00  0.00    +0.000 A 
ATOM     28  C   UNL     1       7.378   5.236  14.152  0.00  0.00    +0.000 A 
ATOM     29  C   UNL     1       7.742   5.050  12.818  0.00  0.00    +0.000 A 
ATOM     30  C   UNL     1       7.024   4.163  12.020  0.00  0.00    +0.000 A 
ATOM     31  C   UNL     1       5.955   3.450  12.561  0.00  0.00    +0.000 A 
ATOM     32  C   UNL     1       5.588   3.638  13.896  0.00  0.00    +0.000 A 
ENDBRANCH  26  27
ENDBRANCH  24  26
ENDBRANCH  23  24
ENDBRANCH   5  23
TORSDOF 9
ENDMDL
MODEL 9
REMARK VINA RESULT:      -7.8      1.502      2.600
REMARK  Name = 
REMARK  10 active torsions:
REMARK  status: ('A' for Active; 'I' for Inactive)
REMARK    1  A    between atoms: C_1  and  O_2
REMARK    2  A    between atoms: O_2  and  C_3
REMARK    3  A    between atoms: C_6  and  C_7
REMARK    4  A    between atoms: C_9  and  C_10
REMARK    5  A    between atoms: C_10  and  C_11
REMARK    6  A    between atoms: C_14  and  O_15
REMARK    7  A    between atoms: C_16  and  C_17
REMARK    8  A    between atoms: C_17  and  N_18
REMARK    9  A    between atoms: N_18  and  C_19
REMARK   10  A    between atoms: C_19  and  C_20
REMARK                            x       y       z     vdW  Elec       q    Type
REMARK                         _______ _______ _______ _____ _____    ______ ____
ROOT
ATOM      1  C   UNL     1       2.649   5.663  18.635  0.00  0.00    +0.000 C 
ATOM      2  C   UNL     1       2.231   4.252  18.203  0.00  0.00    +0.000 C 
ATOM      3  C   UNL     1       2.996   3.155  18.936  0.00  0.00    +0.000 C 
ATOM      4  C   UNL     1       4.505   3.405  18.911  0.00  0.00    +0.000 C 
ATOM      5  C   UNL     1       4.812   4.844  19.355  0.00  0.00    +0.000 C 
ATOM      6  O   UNL     1       4.084   5.791  18.558  0.00  0.00    +0.000 OA
ENDROOT
BRANCH   4   7
ATOM      7  O   UNL     1       5.157   2.451  19.747  0.00  0.00    +0.000 OA
ATOM      8  H   UNL     1       5.935   2.106  19.273  0.00  0.00    +0.000 HD
ENDBRANCH   4   7
BRANCH   1   9
ATOM      9  C   UNL     1       2.140   6.122  20.017  0.00  0.00    +0.000 C 
BRANCH   9  12
ATOM     10  C   UNL     1       0.853   9.484  20.751  0.00  0.00    +0.000 A 
ATOM     11  C   UNL     1       1.075   8.194  21.182  0.00  0.00    +0.000 A 
ATOM     12  C   UNL     1       1.716   7.550  20.100  0.00  0.00    +0.000 A 
ATOM     13  N   UNL     1       1.860   8.383  19.062  0.00  0.00    +0.000 NA
ATOM     14  O   UNL     1       1.316   9.595  19.472  0.00  0.00    +0.000 OA
BRANCH  10  18
ATOM     15  C   UNL     1      -0.810  13.054  22.454  0.00  0.00    +0.000 A 
ATOM     16  C   UNL     1       0.150  13.114  21.450  0.00  0.00    +0.000 A 
ATOM     17  C   UNL     1       0.697  11.942  20.919  0.00  0.00    +0.000 A 
ATOM     18  C   UNL     1       0.305  10.681  21.387  0.00  0.00    +0.000 A 
ATOM     19  C   UNL     1      -0.624  10.632  22.437  0.00  0.00    +0.000 A 
ATOM     20  C   UNL     1      -1.182  11.810  22.965  0.00  0.00    +0.000 A 
BRANCH  15  22
ATOM     21  C   UNL     1      -2.154  14.257  23.991  0.00  0.00    +0.000 C 
ATOM     22  O   UNL     1      -1.269  14.269  22.878  0.00  0.00    +0.000 OA
ENDBRANCH  15  22
ENDBRANCH  10  18
ENDBRANCH   9  12
ENDBRANCH   1   9
BRANCH   5  23
ATOM     23  C   UNL     1       6.327   5.166  19.280  0.00  0.00    +0.000 C 
BRANCH  23  24
ATOM     24  N   UNL     1       7.054   4.501  18.176  0.00  0.00    +0.000 NA
ATOM     25  H   UNL     1       6.467   3.733  17.844  0.00  0.00    +0.000 HD
BRANCH  24  26
ATOM     26  C   UNL     1       7.305   5.397  17.044  0.00  0.00    +0.000 C 
BRANCH  26  27
ATOM     27  C   UNL     1       6.799   4.850  15.727  0.00  0.00    +0.000 A 
ATOM     28  C   UNL     1       7.532   5.094  14.553  0.00  0.00    +0.000 A 
ATOM     29  C   UNL     1       7.096   4.607  13.321  0.00  0.00    +0.000 A 
ATOM     30  C   UNL     1       5.929   3.851  13.247  0.00  0.00    +0.000 A 
ATOM     31  C   UNL     1       5.209   3.570  14.407  0.00  0.00    +0.000 A 
ATOM     32  C   UNL     1       5.644   4.060  15.641  0.00  0.00    +0.000 A 
ENDBRANCH  26  27
ENDBRANCH  24  26
ENDBRANCH  23  24
ENDBRANCH   5  23
TORSDOF 9
ENDMDL
