MODEL 1
REMARK VINA RESULT:      -7.7      0.000      0.000
REMARK  Name = 
REMARK  5 active torsions:
REMARK  status: ('A' for Active; 'I' for Inactive)
REMARK    1  A    between atoms: N_1  and  C_2
REMARK    2  A    between atoms: C_5  and  S_6
REMARK    3  A    between atoms: S_6  and  C_7
REMARK    4  A    between atoms: C_12  and  C_13
REMARK    5  A    between atoms: C_13  and  C_15
REMARK                            x       y       z     vdW  Elec       q    Type
REMARK                         _______ _______ _______ _____ _____    ______ ____
ROOT
ATOM      1  C   UNL     1       5.411   6.516  17.072  0.00  0.00    +0.000 A 
ATOM      2  C   UNL     1       4.263   6.888  17.786  0.00  0.00    +0.000 A 
ATOM      3  C   UNL     1       3.222   5.981  18.015  0.00  0.00    +0.000 A 
ATOM      4  C   UNL     1       3.315   4.668  17.559  0.00  0.00    +0.000 A 
ATOM      5  C   UNL     1       4.458   4.278  16.859  0.00  0.00    +0.000 A 
ATOM      6  C   UNL     1       5.530   5.171  16.662  0.00  0.00    +0.000 A 
ENDROOT
BRANCH   1   7
ATOM      7  N   UNL     1       6.477   7.429  17.008  0.00  0.00    +0.000 N 
ATOM      8  H   UNL     1       6.745   7.704  16.069  0.00  0.00    +0.000 HD
ATOM      9  H   UNL     1       7.282   7.107  17.559  0.00  0.00    +0.000 HD
ENDBRANCH   1   7
BRANCH   6  10
ATOM     10  C   UNL     1       6.769   4.679  15.978  0.00  0.00    +0.000 C 
ATOM     11  O   UNL     1       7.775   4.420  16.626  0.00  0.00    +0.000 OA
BRANCH  10  12
ATOM     12  C   UNL     1       6.794   4.547  14.485  0.00  0.00    +0.000 A 
ATOM     13  C   UNL     1       7.670   5.320  13.704  0.00  0.00    +0.000 A 
ATOM     14  C   UNL     1       7.770   5.098  12.331  0.00  0.00    +0.000 A 
ATOM     15  C   UNL     1       6.971   4.133  11.721  0.00  0.00    +0.000 A 
ATOM     16  C   UNL     1       6.061   3.398  12.483  0.00  0.00    +0.000 A 
ATOM     17  C   UNL     1       5.965   3.607  13.862  0.00  0.00    +0.000 A 
ENDBRANCH  10  12
ENDBRANCH   6  10
BRANCH   4  18
ATOM     18  S   UNL     1       1.940   3.561  17.797  0.00  0.00    +0.000 S 
BRANCH  18  19
ATOM     19  C   UNL     1       2.676   2.238  18.777  0.00  0.00    +0.000 C 
ATOM     20  F   UNL     1       3.371   1.337  18.043  0.00  0.00    +0.000 F 
ATOM     21  F   UNL     1       3.528   2.742  19.703  0.00  0.00    +0.000 F 
ATOM     22  F   UNL     1       1.720   1.552  19.448  0.00  0.00    +0.000 F 
ENDBRANCH  18  19
ENDBRANCH   4  18
TORSDOF 5
ENDMDL
MODEL 2
REMARK VINA RESULT:      -7.6      0.888      1.116
REMARK  Name = 
REMARK  5 active torsions:
REMARK  status: ('A' for Active; 'I' for Inactive)
REMARK    1  A    between atoms: N_1  and  C_2
REMARK    2  A    between atoms: C_5  and  S_6
REMARK    3  A    between atoms: S_6  and  C_7
REMARK    4  A    between atoms: C_12  and  C_13
REMARK    5  A    between atoms: C_13  and  C_15
REMARK                            x       y       z     vdW  Elec       q    Type
REMARK                         _______ _______ _______ _____ _____    ______ ____
ROOT
ATOM      1  C   UNL     1       5.391   6.565  17.064  0.00  0.00    +0.000 A 
ATOM      2  C   UNL     1       4.252   6.995  17.761  0.00  0.00    +0.000 A 
ATOM      3  C   UNL     1       3.189   6.124  18.026  0.00  0.00    +0.000 A 
ATOM      4  C   UNL     1       3.249   4.792  17.624  0.00  0.00    +0.000 A 
ATOM      5  C   UNL     1       4.382   4.345  16.942  0.00  0.00    +0.000 A 
ATOM      6  C   UNL     1       5.476   5.202  16.709  0.00  0.00    +0.000 A 
ENDROOT
BRANCH   1   7
ATOM      7  N   UNL     1       6.480   7.447  16.964  0.00  0.00    +0.000 N 
ATOM      8  H   UNL     1       6.399   8.288  17.526  0.00  0.00    +0.000 HD
ATOM      9  H   UNL     1       6.703   7.660  15.985  0.00  0.00    +0.000 HD
ENDBRANCH   1   7
BRANCH   6  10
ATOM     10  C   UNL     1       6.702   4.651  16.048  0.00  0.00    +0.000 C 
ATOM     11  O   UNL     1       7.678   4.330  16.716  0.00  0.00    +0.000 OA
BRANCH  10  12
ATOM     12  C   UNL     1       6.755   4.535  14.555  0.00  0.00    +0.000 A 
ATOM     13  C   UNL     1       7.646   5.315  13.798  0.00  0.00    +0.000 A 
ATOM     14  C   UNL     1       7.771   5.107  12.425  0.00  0.00    +0.000 A 
ATOM     15  C   UNL     1       6.983   4.150  11.790  0.00  0.00    +0.000 A 
ATOM     16  C   UNL     1       6.058   3.408  12.528  0.00  0.00    +0.000 A 
ATOM     17  C   UNL     1       5.937   3.602  13.907  0.00  0.00    +0.000 A 
ENDBRANCH  10  12
ENDBRANCH   6  10
BRANCH   4  18
ATOM     18  S   UNL     1       1.846   3.731  17.906  0.00  0.00    +0.000 S 
BRANCH  18  19
ATOM     19  C   UNL     1       1.840   3.572  19.703  0.00  0.00    +0.000 C 
ATOM     20  F   UNL     1       3.066   3.688  20.266  0.00  0.00    +0.000 F 
ATOM     21  F   UNL     1       1.049   4.518  20.266  0.00  0.00    +0.000 F 
ATOM     22  F   UNL     1       1.344   2.367  20.073  0.00  0.00    +0.000 F 
ENDBRANCH  18  19
ENDBRANCH   4  18
TORSDOF 5
ENDMDL
MODEL 3
REMARK VINA RESULT:      -7.5      1.774      2.227
REMARK  Name = 
REMARK  5 active torsions:
REMARK  status: ('A' for Active; 'I' for Inactive)
REMARK    1  A    between atoms: N_1  and  C_2
REMARK    2  A    between atoms: C_5  and  S_6
REMARK    3  A    between atoms: S_6  and  C_7
REMARK    4  A    between atoms: C_12  and  C_13
REMARK    5  A    between atoms: C_13  and  C_15
REMARK                            x       y       z     vdW  Elec       q    Type
REMARK                         _______ _______ _______ _____ _____    ______ ____
ROOT
ATOM      1  C   UNL     1       5.928   5.463  17.932  0.00  0.00    +0.000 A 
ATOM      2  C   UNL     1       5.734   4.725  19.110  0.00  0.00    +0.000 A 
ATOM      3  C   UNL     1       4.798   3.687  19.173  0.00  0.00    +0.000 A 
ATOM      4  C   UNL     1       4.049   3.341  18.050  0.00  0.00    +0.000 A 
ATOM      5  C   UNL     1       4.240   4.056  16.867  0.00  0.00    +0.000 A 
ATOM      6  C   UNL     1       5.212   5.073  16.781  0.00  0.00    +0.000 A 
ENDROOT
BRANCH   1   7
ATOM      7  N   UNL     1       6.985   6.388  17.896  0.00  0.00    +0.000 N 
ATOM      8  H   UNL     1       7.896   6.001  18.116  0.00  0.00    +0.000 HD
ATOM      9  H   UNL     1       6.775   7.221  18.457  0.00  0.00    +0.000 HD
ENDBRANCH   1   7
BRANCH   6  10
ATOM     10  C   UNL     1       5.437   5.753  15.465  0.00  0.00    +0.000 C 
ATOM     11  O   UNL     1       5.127   6.928  15.312  0.00  0.00    +0.000 OA
BRANCH  10  12
ATOM     12  C   UNL     1       6.001   4.979  14.313  0.00  0.00    +0.000 A 
ATOM     13  C   UNL     1       5.244   3.987  13.666  0.00  0.00    +0.000 A 
ATOM     14  C   UNL     1       5.736   3.363  12.520  0.00  0.00    +0.000 A 
ATOM     15  C   UNL     1       6.999   3.694  12.033  0.00  0.00    +0.000 A 
ATOM     16  C   UNL     1       7.777   4.640  12.702  0.00  0.00    +0.000 A 
ATOM     17  C   UNL     1       7.286   5.280  13.844  0.00  0.00    +0.000 A 
ENDBRANCH  10  12
ENDBRANCH   6  10
BRANCH   4  18
ATOM     18  S   UNL     1       2.810   2.069  18.185  0.00  0.00    +0.000 S 
BRANCH  18  19
ATOM     19  C   UNL     1       1.332   3.014  18.605  0.00  0.00    +0.000 C 
ATOM     20  F   UNL     1       0.208   2.263  18.684  0.00  0.00    +0.000 F 
ATOM     21  F   UNL     1       1.482   3.637  19.799  0.00  0.00    +0.000 F 
ATOM     22  F   UNL     1       1.103   3.977  17.680  0.00  0.00    +0.000 F 
ENDBRANCH  18  19
ENDBRANCH   4  18
TORSDOF 5
ENDMDL
MODEL 4
REMARK VINA RESULT:      -7.5      1.041      1.211
REMARK  Name = 
REMARK  5 active torsions:
REMARK  status: ('A' for Active; 'I' for Inactive)
REMARK    1  A    between atoms: N_1  and  C_2
REMARK    2  A    between atoms: C_5  and  S_6
REMARK    3  A    between atoms: S_6  and  C_7
REMARK    4  A    between atoms: C_12  and  C_13
REMARK    5  A    between atoms: C_13  and  C_15
REMARK                            x       y       z     vdW  Elec       q    Type
REMARK                         _______ _______ _______ _____ _____    ______ ____
ROOT
ATOM      1  C   UNL     1       5.205   6.380  16.942  0.00  0.00    +0.000 A 
ATOM      2  C   UNL     1       4.114   6.741  17.747  0.00  0.00    +0.000 A 
ATOM      3  C   UNL     1       3.435   5.792  18.521  0.00  0.00    +0.000 A 
ATOM      4  C   UNL     1       3.847   4.462  18.531  0.00  0.00    +0.000 A 
ATOM      5  C   UNL     1       4.941   4.090  17.746  0.00  0.00    +0.000 A 
ATOM      6  C   UNL     1       5.658   5.045  16.998  0.00  0.00    +0.000 A 
ENDROOT
BRANCH   1   7
ATOM      7  N   UNL     1       5.930   7.404  16.310  0.00  0.00    +0.000 N 
ATOM      8  H   UNL     1       5.366   8.173  15.963  0.00  0.00    +0.000 HD
ATOM      9  H   UNL     1       6.557   7.031  15.588  0.00  0.00    +0.000 HD
ENDBRANCH   1   7
BRANCH   6  10
ATOM     10  C   UNL     1       6.874   4.609  16.240  0.00  0.00    +0.000 C 
ATOM     11  O   UNL     1       7.919   4.362  16.830  0.00  0.00    +0.000 OA
BRANCH  10  12
ATOM     12  C   UNL     1       6.828   4.521  14.745  0.00  0.00    +0.000 A 
ATOM     13  C   UNL     1       7.713   5.266  13.947  0.00  0.00    +0.000 A 
ATOM     14  C   UNL     1       7.742   5.080  12.565  0.00  0.00    +0.000 A 
ATOM     15  C   UNL     1       6.864   4.180  11.965  0.00  0.00    +0.000 A 
ATOM     16  C   UNL     1       5.946   3.475  12.747  0.00  0.00    +0.000 A 
ATOM     17  C   UNL     1       5.921   3.647  14.134  0.00  0.00    +0.000 A 
ENDBRANCH  10  12
ENDBRANCH   6  10
BRANCH   4  18
ATOM     18  S   UNL     1       2.914   3.265  19.463  0.00  0.00    +0.000 S 
BRANCH  18  19
ATOM     19  C   UNL     1       1.709   2.689  18.252  0.00  0.00    +0.000 C 
ATOM     20  F   UNL     1       2.238   1.902  17.285  0.00  0.00    +0.000 F 
ATOM     21  F   UNL     1       0.725   1.977  18.853  0.00  0.00    +0.000 F 
ATOM     22  F   UNL     1       1.117   3.738  17.631  0.00  0.00    +0.000 F 
ENDBRANCH  18  19
ENDBRANCH   4  18
TORSDOF 5
ENDMDL
MODEL 5
REMARK VINA RESULT:      -7.5      1.310      1.475
REMARK  Name = 
REMARK  5 active torsions:
REMARK  status: ('A' for Active; 'I' for Inactive)
REMARK    1  A    between atoms: N_1  and  C_2
REMARK    2  A    between atoms: C_5  and  S_6
REMARK    3  A    between atoms: S_6  and  C_7
REMARK    4  A    between atoms: C_12  and  C_13
REMARK    5  A    between atoms: C_13  and  C_15
REMARK                            x       y       z     vdW  Elec       q    Type
REMARK                         _______ _______ _______ _____ _____    ______ ____
ROOT
ATOM      1  C   UNL     1       5.231   6.202  17.210  0.00  0.00    +0.000 A 
ATOM      2  C   UNL     1       4.113   6.396  18.035  0.00  0.00    +0.000 A 
ATOM      3  C   UNL     1       3.396   5.314  18.556  0.00  0.00    +0.000 A 
ATOM      4  C   UNL     1       3.795   4.006  18.290  0.00  0.00    +0.000 A 
ATOM      5  C   UNL     1       4.915   3.796  17.483  0.00  0.00    +0.000 A 
ATOM      6  C   UNL     1       5.669   4.879  16.989  0.00  0.00    +0.000 A 
ENDROOT
BRANCH   1   7
ATOM      7  N   UNL     1       5.990   7.326  16.845  0.00  0.00    +0.000 N 
ATOM      8  H   UNL     1       6.910   7.116  16.472  0.00  0.00    +0.000 HD
ATOM      9  H   UNL     1       6.032   8.015  17.605  0.00  0.00    +0.000 HD
ENDBRANCH   1   7
BRANCH   6  10
ATOM     10  C   UNL     1       6.911   4.598  16.198  0.00  0.00    +0.000 C 
ATOM     11  O   UNL     1       7.991   4.472  16.761  0.00  0.00    +0.000 OA
BRANCH  10  12
ATOM     12  C   UNL     1       6.840   4.518  14.704  0.00  0.00    +0.000 A 
ATOM     13  C   UNL     1       7.685   5.297  13.895  0.00  0.00    +0.000 A 
ATOM     14  C   UNL     1       7.694   5.121  12.512  0.00  0.00    +0.000 A 
ATOM     15  C   UNL     1       6.835   4.197  11.921  0.00  0.00    +0.000 A 
ATOM     16  C   UNL     1       5.955   3.457  12.714  0.00  0.00    +0.000 A 
ATOM     17  C   UNL     1       5.950   3.620  14.103  0.00  0.00    +0.000 A 
ENDBRANCH  10  12
ENDBRANCH   6  10
BRANCH   4  18
ATOM     18  S   UNL     1       2.815   2.651  18.903  0.00  0.00    +0.000 S 
BRANCH  18  19
ATOM     19  C   UNL     1       1.134   3.270  18.699  0.00  0.00    +0.000 C 
ATOM     20  F   UNL     1       0.711   4.051  19.722  0.00  0.00    +0.000 F 
ATOM     21  F   UNL     1       1.025   4.004  17.565  0.00  0.00    +0.000 F 
ATOM     22  F   UNL     1       0.256   2.243  18.594  0.00  0.00    +0.000 F 
ENDBRANCH  18  19
ENDBRANCH   4  18
TORSDOF 5
ENDMDL
MODEL 6
REMARK VINA RESULT:      -7.4      0.729      1.490
REMARK  Name = 
REMARK  5 active torsions:
REMARK  status: ('A' for Active; 'I' for Inactive)
REMARK    1  A    between atoms: N_1  and  C_2
REMARK    2  A    between atoms: C_5  and  S_6
REMARK    3  A    between atoms: S_6  and  C_7
REMARK    4  A    between atoms: C_12  and  C_13
REMARK    5  A    between atoms: C_13  and  C_15
REMARK                            x       y       z     vdW  Elec       q    Type
REMARK                         _______ _______ _______ _____ _____    ______ ____
ROOT
ATOM      1  C   UNL     1       5.480   6.615  17.044  0.00  0.00    +0.000 A 
ATOM      2  C   UNL     1       4.324   7.069  17.696  0.00  0.00    +0.000 A 
ATOM      3  C   UNL     1       3.250   6.210  17.957  0.00  0.00    +0.000 A 
ATOM      4  C   UNL     1       3.316   4.865  17.597  0.00  0.00    +0.000 A 
ATOM      5  C   UNL     1       4.466   4.395  16.961  0.00  0.00    +0.000 A 
ATOM      6  C   UNL     1       5.570   5.241  16.734  0.00  0.00    +0.000 A 
ENDROOT
BRANCH   1   7
ATOM      7  N   UNL     1       6.574   7.491  16.948  0.00  0.00    +0.000 N 
ATOM      8  H   UNL     1       7.482   7.047  17.037  0.00  0.00    +0.000 HD
ATOM      9  H   UNL     1       6.473   8.290  17.584  0.00  0.00    +0.000 HD
ENDBRANCH   1   7
BRANCH   6  10
ATOM     10  C   UNL     1       6.812   4.667  16.124  0.00  0.00    +0.000 C 
ATOM     11  O   UNL     1       7.777   4.390  16.826  0.00  0.00    +0.000 OA
BRANCH  10  12
ATOM     12  C   UNL     1       6.894   4.474  14.640  0.00  0.00    +0.000 A 
ATOM     13  C   UNL     1       6.091   3.522  13.989  0.00  0.00    +0.000 A 
ATOM     14  C   UNL     1       6.088   3.439  12.597  0.00  0.00    +0.000 A 
ATOM     15  C   UNL     1       6.912   4.276  11.847  0.00  0.00    +0.000 A 
ATOM     16  C   UNL     1       7.751   5.188  12.491  0.00  0.00    +0.000 A 
ATOM     17  C   UNL     1       7.750   5.285  13.886  0.00  0.00    +0.000 A 
ENDBRANCH  10  12
ENDBRANCH   6  10
BRANCH   4  18
ATOM     18  S   UNL     1       1.903   3.817  17.872  0.00  0.00    +0.000 S 
BRANCH  18  19
ATOM     19  C   UNL     1       2.118   3.324  19.592  0.00  0.00    +0.000 C 
ATOM     20  F   UNL     1       3.262   3.783  20.154  0.00  0.00    +0.000 F 
ATOM     21  F   UNL     1       1.091   3.773  20.354  0.00  0.00    +0.000 F 
ATOM     22  F   UNL     1       2.134   1.974  19.704  0.00  0.00    +0.000 F 
ENDBRANCH  18  19
ENDBRANCH   4  18
TORSDOF 5
ENDMDL
MODEL 7
REMARK VINA RESULT:      -7.4      0.958      1.213
REMARK  Name = 
REMARK  5 active torsions:
REMARK  status: ('A' for Active; 'I' for Inactive)
REMARK    1  A    between atoms: N_1  and  C_2
REMARK    2  A    between atoms: C_5  and  S_6
REMARK    3  A    between atoms: S_6  and  C_7
REMARK    4  A    between atoms: C_12  and  C_13
REMARK    5  A    between atoms: C_13  and  C_15
REMARK                            x       y       z     vdW  Elec       q    Type
REMARK                         _______ _______ _______ _____ _____    ______ ____
ROOT
ATOM      1  C   UNL     1       4.922   6.199  16.612  0.00  0.00    +0.000 A 
ATOM      2  C   UNL     1       3.818   6.516  17.418  0.00  0.00    +0.000 A 
ATOM      3  C   UNL     1       3.355   5.632  18.400  0.00  0.00    +0.000 A 
ATOM      4  C   UNL     1       4.002   4.418  18.620  0.00  0.00    +0.000 A 
ATOM      5  C   UNL     1       5.111   4.094  17.836  0.00  0.00    +0.000 A 
ATOM      6  C   UNL     1       5.611   4.996  16.876  0.00  0.00    +0.000 A 
ENDROOT
BRANCH   1   7
ATOM      7  N   UNL     1       5.422   7.191  15.753  0.00  0.00    +0.000 N 
ATOM      8  H   UNL     1       5.603   8.085  16.196  0.00  0.00    +0.000 HD
ATOM      9  H   UNL     1       4.841   7.289  14.913  0.00  0.00    +0.000 HD
ENDBRANCH   1   7
BRANCH   6  10
ATOM     10  C   UNL     1       6.853   4.637  16.119  0.00  0.00    +0.000 C 
ATOM     11  O   UNL     1       7.916   4.483  16.708  0.00  0.00    +0.000 OA
BRANCH  10  12
ATOM     12  C   UNL     1       6.807   4.510  14.627  0.00  0.00    +0.000 A 
ATOM     13  C   UNL     1       7.696   5.230  13.811  0.00  0.00    +0.000 A 
ATOM     14  C   UNL     1       7.724   5.008  12.434  0.00  0.00    +0.000 A 
ATOM     15  C   UNL     1       6.842   4.097  11.857  0.00  0.00    +0.000 A 
ATOM     16  C   UNL     1       5.921   3.417  12.656  0.00  0.00    +0.000 A 
ATOM     17  C   UNL     1       5.896   3.625  14.038  0.00  0.00    +0.000 A 
ENDBRANCH  10  12
ENDBRANCH   6  10
BRANCH   4  18
ATOM     18  S   UNL     1       3.340   3.281  19.821  0.00  0.00    +0.000 S 
BRANCH  18  19
ATOM     19  C   UNL     1       2.557   2.034  18.780  0.00  0.00    +0.000 C 
ATOM     20  F   UNL     1       1.483   1.440  19.352  0.00  0.00    +0.000 F 
ATOM     21  F   UNL     1       2.138   2.577  17.611  0.00  0.00    +0.000 F 
ATOM     22  F   UNL     1       3.437   1.051  18.469  0.00  0.00    +0.000 F 
ENDBRANCH  18  19
ENDBRANCH   4  18
TORSDOF 5
ENDMDL
MODEL 8
REMARK VINA RESULT:      -7.3      1.072      1.709
REMARK  Name = 
REMARK  5 active torsions:
REMARK  status: ('A' for Active; 'I' for Inactive)
REMARK    1  A    between atoms: N_1  and  C_2
REMARK    2  A    between atoms: C_5  and  S_6
REMARK    3  A    between atoms: S_6  and  C_7
REMARK    4  A    between atoms: C_12  and  C_13
REMARK    5  A    between atoms: C_13  and  C_15
REMARK                            x       y       z     vdW  Elec       q    Type
REMARK                         _______ _______ _______ _____ _____    ______ ____
ROOT
ATOM      1  C   UNL     1       5.216   6.370  16.949  0.00  0.00    +0.000 A 
ATOM      2  C   UNL     1       4.100   6.742  17.713  0.00  0.00    +0.000 A 
ATOM      3  C   UNL     1       3.399   5.807  18.483  0.00  0.00    +0.000 A 
ATOM      4  C   UNL     1       3.814   4.478  18.531  0.00  0.00    +0.000 A 
ATOM      5  C   UNL     1       4.932   4.094  17.788  0.00  0.00    +0.000 A 
ATOM      6  C   UNL     1       5.670   5.037  17.045  0.00  0.00    +0.000 A 
ENDROOT
BRANCH   1   7
ATOM      7  N   UNL     1       5.959   7.383  16.321  0.00  0.00    +0.000 N 
ATOM      8  H   UNL     1       5.660   7.606  15.377  0.00  0.00    +0.000 HD
ATOM      9  H   UNL     1       6.967   7.198  16.371  0.00  0.00    +0.000 HD
ENDBRANCH   1   7
BRANCH   6  10
ATOM     10  C   UNL     1       6.910   4.590  16.334  0.00  0.00    +0.000 C 
ATOM     11  O   UNL     1       7.947   4.396  16.956  0.00  0.00    +0.000 OA
BRANCH  10  12
ATOM     12  C   UNL     1       6.897   4.424  14.844  0.00  0.00    +0.000 A 
ATOM     13  C   UNL     1       5.971   3.571  14.219  0.00  0.00    +0.000 A 
ATOM     14  C   UNL     1       5.889   3.522  12.828  0.00  0.00    +0.000 A 
ATOM     15  C   UNL     1       6.752   4.290  12.051  0.00  0.00    +0.000 A 
ATOM     16  C   UNL     1       7.710   5.100  12.666  0.00  0.00    +0.000 A 
ATOM     17  C   UNL     1       7.789   5.164  14.060  0.00  0.00    +0.000 A 
ENDBRANCH  10  12
ENDBRANCH   6  10
BRANCH   4  18
ATOM     18  S   UNL     1       2.854   3.297  19.457  0.00  0.00    +0.000 S 
BRANCH  18  19
ATOM     19  C   UNL     1       1.655   2.733  18.234  0.00  0.00    +0.000 C 
ATOM     20  F   UNL     1       0.646   1.996  18.757  0.00  0.00    +0.000 F 
ATOM     21  F   UNL     1       1.090   3.785  17.592  0.00  0.00    +0.000 F 
ATOM     22  F   UNL     1       2.258   1.969  17.291  0.00  0.00    +0.000 F 
ENDBRANCH  18  19
ENDBRANCH   4  18
TORSDOF 5
ENDMDL
MODEL 9
REMARK VINA RESULT:      -7.3      3.564      6.513
REMARK  Name = 
REMARK  5 active torsions:
REMARK  status: ('A' for Active; 'I' for Inactive)
REMARK    1  A    between atoms: N_1  and  C_2
REMARK    2  A    between atoms: C_5  and  S_6
REMARK    3  A    between atoms: S_6  and  C_7
REMARK    4  A    between atoms: C_12  and  C_13
REMARK    5  A    between atoms: C_13  and  C_15
REMARK                            x       y       z     vdW  Elec       q    Type
REMARK                         _______ _______ _______ _____ _____    ______ ____
ROOT
ATOM      1  C   UNL     1       3.487   6.422  17.761  0.00  0.00    +0.000 A 
ATOM      2  C   UNL     1       4.604   7.087  17.233  0.00  0.00    +0.000 A 
ATOM      3  C   UNL     1       5.613   6.393  16.558  0.00  0.00    +0.000 A 
ATOM      4  C   UNL     1       5.519   5.016  16.367  0.00  0.00    +0.000 A 
ATOM      5  C   UNL     1       4.407   4.341  16.874  0.00  0.00    +0.000 A 
ATOM      6  C   UNL     1       3.364   5.038  17.517  0.00  0.00    +0.000 A 
ENDROOT
BRANCH   1   7
ATOM      7  N   UNL     1       2.444   7.197  18.294  0.00  0.00    +0.000 N 
ATOM      8  H   UNL     1       2.234   7.014  19.269  0.00  0.00    +0.000 HD
ATOM      9  H   UNL     1       1.604   7.153  17.705  0.00  0.00    +0.000 HD
ENDBRANCH   1   7
BRANCH   6  10
ATOM     10  C   UNL     1       2.153   4.279  17.967  0.00  0.00    +0.000 C 
ATOM     11  O   UNL     1       1.138   4.266  17.282  0.00  0.00    +0.000 OA
BRANCH  10  12
ATOM     12  C   UNL     1       2.167   3.568  19.286  0.00  0.00    +0.000 A 
ATOM     13  C   UNL     1       3.343   2.974  19.776  0.00  0.00    +0.000 A 
ATOM     14  C   UNL     1       3.371   2.425  21.058  0.00  0.00    +0.000 A 
ATOM     15  C   UNL     1       2.221   2.428  21.844  0.00  0.00    +0.000 A 
ATOM     16  C   UNL     1       1.035   2.970  21.341  0.00  0.00    +0.000 A 
ATOM     17  C   UNL     1       1.003   3.533  20.062  0.00  0.00    +0.000 A 
ENDBRANCH  10  12
ENDBRANCH   6  10
BRANCH   4  18
ATOM     18  S   UNL     1       6.859   4.150  15.574  0.00  0.00    +0.000 S 
BRANCH  18  19
ATOM     19  C   UNL     1       6.408   4.260  13.831  0.00  0.00    +0.000 C 
ATOM     20  F   UNL     1       5.128   4.649  13.621  0.00  0.00    +0.000 F 
ATOM     21  F   UNL     1       7.206   5.142  13.183  0.00  0.00    +0.000 F 
ATOM     22  F   UNL     1       6.564   3.060  13.222  0.00  0.00    +0.000 F 
ENDBRANCH  18  19
ENDBRANCH   4  18
TORSDOF 5
ENDMDL
