MODEL 1
REMARK VINA RESULT:      -8.0      0.000      0.000
REMARK  Name = 
REMARK  7 active torsions:
REMARK  status: ('A' for Active; 'I' for Inactive)
REMARK    1  A    between atoms: C_2  and  C_3
REMARK    2  A    between atoms: C_7  and  C_8
REMARK    3  A    between atoms: C_8  and  N_9
REMARK    4  A    between atoms: N_9  and  C_10
REMARK    5  A    between atoms: C_10  and  C_11
REMARK    6  A    between atoms: C_11  and  O_12
REMARK    7  A    between atoms: O_12  and  C_13
REMARK                            x       y       z     vdW  Elec       q    Type
REMARK                         _______ _______ _______ _____ _____    ______ ____
ROOT
ATOM      1  N   UNL     1       1.487   4.335  19.793  0.00  0.00    +0.000 NA
ATOM      2  H   UNL     1       0.663   4.833  19.460  0.00  0.00    +0.000 HD
ENDROOT
BRANCH   1   3
ATOM      3  C   UNL     1       2.477   5.314  20.250  0.00  0.00    +0.000 C 
BRANCH   3   8
ATOM      4  C   UNL     1       1.045   8.865  20.322  0.00  0.00    +0.000 A 
ATOM      5  C   UNL     1       1.446   9.318  19.058  0.00  0.00    +0.000 A 
ATOM      6  C   UNL     1       2.163   8.493  18.187  0.00  0.00    +0.000 A 
ATOM      7  C   UNL     1       2.487   7.193  18.566  0.00  0.00    +0.000 A 
ATOM      8  C   UNL     1       2.112   6.716  19.826  0.00  0.00    +0.000 A 
ATOM      9  C   UNL     1       1.413   7.567  20.703  0.00  0.00    +0.000 A 
BRANCH   4  11
ATOM     10  C   UNL     1      -0.195  10.948  20.918  0.00  0.00    +0.000 C 
ATOM     11  C   UNL     1       0.244   9.715  21.212  0.00  0.00    +0.000 C 
ATOM     12  C   UNL     1      -0.296   9.252  22.533  0.00  0.00    +0.000 C 
ATOM     13  C   UNL     1      -0.900  10.524  23.132  0.00  0.00    +0.000 C 
ATOM     14  C   UNL     1      -1.091  11.498  21.974  0.00  0.00    +0.000 C 
ENDBRANCH   4  11
ENDBRANCH   3   8
ENDBRANCH   1   3
BRANCH   1  15
ATOM     15  C   UNL     1       2.002   3.465  18.722  0.00  0.00    +0.000 C 
BRANCH  15  16
ATOM     16  C   UNL     1       3.486   3.135  18.905  0.00  0.00    +0.000 C 
BRANCH  16  17
ATOM     17  O   UNL     1       4.205   3.140  17.670  0.00  0.00    +0.000 OA
BRANCH  17  18
ATOM     18  C   UNL     1       5.237   4.046  17.627  0.00  0.00    +0.000 A 
ATOM     19  C   UNL     1       5.599   4.601  18.861  0.00  0.00    +0.000 A 
ATOM     20  C   UNL     1       6.637   5.549  18.953  0.00  0.00    +0.000 A 
ATOM     21  C   UNL     1       7.330   5.956  17.815  0.00  0.00    +0.000 A 
ATOM     22  C   UNL     1       6.966   5.394  16.609  0.00  0.00    +0.000 A 
ATOM     23  C   UNL     1       5.950   4.467  16.511  0.00  0.00    +0.000 A 
ATOM     24  O   UNL     1       5.789   4.062  15.218  0.00  0.00    +0.000 OA
ATOM     25  C   UNL     1       6.847   4.762  14.549  0.00  0.00    +0.000 C 
ATOM     26  O   UNL     1       7.554   5.669  15.412  0.00  0.00    +0.000 OA
ENDBRANCH  17  18
ENDBRANCH  16  17
ENDBRANCH  15  16
ENDBRANCH   1  15
TORSDOF 7
ENDMDL
MODEL 2
REMARK VINA RESULT:      -7.7      1.151      1.982
REMARK  Name = 
REMARK  7 active torsions:
REMARK  status: ('A' for Active; 'I' for Inactive)
REMARK    1  A    between atoms: C_2  and  C_3
REMARK    2  A    between atoms: C_7  and  C_8
REMARK    3  A    between atoms: C_8  and  N_9
REMARK    4  A    between atoms: N_9  and  C_10
REMARK    5  A    between atoms: C_10  and  C_11
REMARK    6  A    between atoms: C_11  and  O_12
REMARK    7  A    between atoms: O_12  and  C_13
REMARK                            x       y       z     vdW  Elec       q    Type
REMARK                         _______ _______ _______ _____ _____    ______ ____
ROOT
ATOM      1  N   UNL     1       2.149   5.146  20.128  0.00  0.00    +0.000 NA
ATOM      2  H   UNL     1       1.219   5.245  19.726  0.00  0.00    +0.000 HD
ENDROOT
BRANCH   1   3
ATOM      3  C   UNL     1       3.029   6.156  19.532  0.00  0.00    +0.000 C 
BRANCH   3   8
ATOM      4  C   UNL     1       0.940   9.312  20.114  0.00  0.00    +0.000 A 
ATOM      5  C   UNL     1       0.960   9.862  18.825  0.00  0.00    +0.000 A 
ATOM      6  C   UNL     1       1.630   9.225  17.777  0.00  0.00    +0.000 A 
ATOM      7  C   UNL     1       2.290   8.020  18.001  0.00  0.00    +0.000 A 
ATOM      8  C   UNL     1       2.300   7.452  19.279  0.00  0.00    +0.000 A 
ATOM      9  C   UNL     1       1.642   8.118  20.331  0.00  0.00    +0.000 A 
BRANCH   4  11
ATOM     10  C   UNL     1      -0.352   9.317  22.251  0.00  0.00    +0.000 C 
ATOM     11  C   UNL     1       0.187   9.954  21.200  0.00  0.00    +0.000 C 
ATOM     12  C   UNL     1       0.033  11.440  21.333  0.00  0.00    +0.000 C 
ATOM     13  C   UNL     1      -0.949  11.589  22.496  0.00  0.00    +0.000 C 
ATOM     14  C   UNL     1      -0.938  10.260  23.244  0.00  0.00    +0.000 C 
ENDBRANCH   4  11
ENDBRANCH   3   8
ENDBRANCH   1   3
BRANCH   1  15
ATOM     15  C   UNL     1       2.636   3.773  19.914  0.00  0.00    +0.000 C 
BRANCH  15  16
ATOM     16  C   UNL     1       3.275   3.591  18.535  0.00  0.00    +0.000 C 
BRANCH  16  17
ATOM     17  O   UNL     1       4.702   3.558  18.593  0.00  0.00    +0.000 OA
BRANCH  17  18
ATOM     18  C   UNL     1       5.320   4.166  17.528  0.00  0.00    +0.000 A 
ATOM     19  C   UNL     1       4.952   3.684  16.265  0.00  0.00    +0.000 A 
ATOM     20  C   UNL     1       5.518   4.217  15.091  0.00  0.00    +0.000 A 
ATOM     21  C   UNL     1       6.459   5.242  15.159  0.00  0.00    +0.000 A 
ATOM     22  C   UNL     1       6.805   5.712  16.409  0.00  0.00    +0.000 A 
ATOM     23  C   UNL     1       6.257   5.193  17.563  0.00  0.00    +0.000 A 
ATOM     24  O   UNL     1       6.755   5.827  18.663  0.00  0.00    +0.000 OA
ATOM     25  C   UNL     1       7.596   6.831  18.076  0.00  0.00    +0.000 C 
ATOM     26  O   UNL     1       7.691   6.717  16.646  0.00  0.00    +0.000 OA
ENDBRANCH  17  18
ENDBRANCH  16  17
ENDBRANCH  15  16
ENDBRANCH   1  15
TORSDOF 7
ENDMDL
MODEL 3
REMARK VINA RESULT:      -7.7      1.131      1.839
REMARK  Name = 
REMARK  7 active torsions:
REMARK  status: ('A' for Active; 'I' for Inactive)
REMARK    1  A    between atoms: C_2  and  C_3
REMARK    2  A    between atoms: C_7  and  C_8
REMARK    3  A    between atoms: C_8  and  N_9
REMARK    4  A    between atoms: N_9  and  C_10
REMARK    5  A    between atoms: C_10  and  C_11
REMARK    6  A    between atoms: C_11  and  O_12
REMARK    7  A    between atoms: O_12  and  C_13
REMARK                            x       y       z     vdW  Elec       q    Type
REMARK                         _______ _______ _______ _____ _____    ______ ____
ROOT
ATOM      1  N   UNL     1       2.037   4.631  19.614  0.00  0.00    +0.000 NA
ATOM      2  H   UNL     1       1.139   4.873  20.031  0.00  0.00    +0.000 HD
ENDROOT
BRANCH   1   3
ATOM      3  C   UNL     1       2.970   5.740  19.828  0.00  0.00    +0.000 C 
BRANCH   3   8
ATOM      4  C   UNL     1       1.069   9.043  20.204  0.00  0.00    +0.000 A 
ATOM      5  C   UNL     1       1.186   9.545  18.901  0.00  0.00    +0.000 A 
ATOM      6  C   UNL     1       1.863   8.830  17.908  0.00  0.00    +0.000 A 
ATOM      7  C   UNL     1       2.430   7.594  18.203  0.00  0.00    +0.000 A 
ATOM      8  C   UNL     1       2.341   7.071  19.498  0.00  0.00    +0.000 A 
ATOM      9  C   UNL     1       1.679   7.814  20.494  0.00  0.00    +0.000 A 
BRANCH   4  11
ATOM     10  C   UNL     1       0.074  11.090  21.229  0.00  0.00    +0.000 C 
ATOM     11  C   UNL     1       0.309   9.769  21.230  0.00  0.00    +0.000 C 
ATOM     12  C   UNL     1      -0.415   9.093  22.356  0.00  0.00    +0.000 C 
ATOM     13  C   UNL     1      -0.895  10.263  23.218  0.00  0.00    +0.000 C 
ATOM     14  C   UNL     1      -0.837  11.504  22.334  0.00  0.00    +0.000 C 
ENDBRANCH   4  11
ENDBRANCH   3   8
ENDBRANCH   1   3
BRANCH   1  15
ATOM     15  C   UNL     1       1.849   4.315  18.188  0.00  0.00    +0.000 C 
BRANCH  15  16
ATOM     16  C   UNL     1       2.721   3.142  17.733  0.00  0.00    +0.000 C 
BRANCH  16  17
ATOM     17  O   UNL     1       4.022   3.164  18.323  0.00  0.00    +0.000 OA
BRANCH  17  18
ATOM     18  C   UNL     1       4.972   3.798  17.560  0.00  0.00    +0.000 A 
ATOM     19  C   UNL     1       4.834   3.638  16.175  0.00  0.00    +0.000 A 
ATOM     20  C   UNL     1       5.748   4.230  15.282  0.00  0.00    +0.000 A 
ATOM     21  C   UNL     1       6.812   4.993  15.757  0.00  0.00    +0.000 A 
ATOM     22  C   UNL     1       6.929   5.148  17.123  0.00  0.00    +0.000 A 
ATOM     23  C   UNL     1       6.040   4.569  18.004  0.00  0.00    +0.000 A 
ATOM     24  O   UNL     1       6.368   4.874  19.292  0.00  0.00    +0.000 OA
ATOM     25  C   UNL     1       7.488   5.754  19.118  0.00  0.00    +0.000 C 
ATOM     26  O   UNL     1       7.898   5.874  17.745  0.00  0.00    +0.000 OA
ENDBRANCH  17  18
ENDBRANCH  16  17
ENDBRANCH  15  16
ENDBRANCH   1  15
TORSDOF 7
ENDMDL
MODEL 4
REMARK VINA RESULT:      -7.5      5.170      7.449
REMARK  Name = 
REMARK  7 active torsions:
REMARK  status: ('A' for Active; 'I' for Inactive)
REMARK    1  A    between atoms: C_2  and  C_3
REMARK    2  A    between atoms: C_7  and  C_8
REMARK    3  A    between atoms: C_8  and  N_9
REMARK    4  A    between atoms: N_9  and  C_10
REMARK    5  A    between atoms: C_10  and  C_11
REMARK    6  A    between atoms: C_11  and  O_12
REMARK    7  A    between atoms: O_12  and  C_13
REMARK                            x       y       z     vdW  Elec       q    Type
REMARK                         _______ _______ _______ _____ _____    ______ ____
ROOT
ATOM      1  N   UNL     1       7.059   7.415  16.782  0.00  0.00    +0.000 NA
ATOM      2  H   UNL     1       6.388   8.172  16.656  0.00  0.00    +0.000 HD
ENDROOT
BRANCH   1   3
ATOM      3  C   UNL     1       6.324   6.160  16.964  0.00  0.00    +0.000 C 
BRANCH   3   8
ATOM      4  C   UNL     1       2.834   5.564  18.422  0.00  0.00    +0.000 A 
ATOM      5  C   UNL     1       2.288   6.848  18.287  0.00  0.00    +0.000 A 
ATOM      6  C   UNL     1       3.027   7.894  17.729  0.00  0.00    +0.000 A 
ATOM      7  C   UNL     1       4.329   7.671  17.289  0.00  0.00    +0.000 A 
ATOM      8  C   UNL     1       4.907   6.404  17.421  0.00  0.00    +0.000 A 
ATOM      9  C   UNL     1       4.159   5.366  18.010  0.00  0.00    +0.000 A 
BRANCH   4  11
ATOM     10  C   UNL     1       1.648   4.323  20.235  0.00  0.00    +0.000 C 
ATOM     11  C   UNL     1       2.035   4.454  18.957  0.00  0.00    +0.000 C 
ATOM     12  C   UNL     1       1.439   3.376  18.100  0.00  0.00    +0.000 C 
ATOM     13  C   UNL     1       0.861   2.394  19.121  0.00  0.00    +0.000 C 
ATOM     14  C   UNL     1       0.739   3.159  20.435  0.00  0.00    +0.000 C 
ENDBRANCH   4  11
ENDBRANCH   3   8
ENDBRANCH   1   3
BRANCH   1  15
ATOM     15  C   UNL     1       7.943   7.725  17.918  0.00  0.00    +0.000 C 
BRANCH  15  16
ATOM     16  C   UNL     1       8.243   9.223  18.029  0.00  0.00    +0.000 C 
BRANCH  16  17
ATOM     17  O   UNL     1       8.998   9.546  19.198  0.00  0.00    +0.000 OA
BRANCH  17  18
ATOM     18  C   UNL     1       9.566  10.796  19.170  0.00  0.00    +0.000 A 
ATOM     19  C   UNL     1      10.152  11.161  17.952  0.00  0.00    +0.000 A 
ATOM     20  C   UNL     1      10.776  12.414  17.793  0.00  0.00    +0.000 A 
ATOM     21  C   UNL     1      10.822  13.323  18.849  0.00  0.00    +0.000 A 
ATOM     22  C   UNL     1      10.233  12.951  20.039  0.00  0.00    +0.000 A 
ATOM     23  C   UNL     1       9.622  11.725  20.203  0.00  0.00    +0.000 A 
ATOM     24  O   UNL     1       9.115  11.602  21.463  0.00  0.00    +0.000 OA
ATOM     25  C   UNL     1       9.399  12.889  22.029  0.00  0.00    +0.000 C 
ATOM     26  O   UNL     1      10.175  13.727  21.156  0.00  0.00    +0.000 OA
ENDBRANCH  17  18
ENDBRANCH  16  17
ENDBRANCH  15  16
ENDBRANCH   1  15
TORSDOF 7
ENDMDL
MODEL 5
REMARK VINA RESULT:      -7.5      2.809      7.622
REMARK  Name = 
REMARK  7 active torsions:
REMARK  status: ('A' for Active; 'I' for Inactive)
REMARK    1  A    between atoms: C_2  and  C_3
REMARK    2  A    between atoms: C_7  and  C_8
REMARK    3  A    between atoms: C_8  and  N_9
REMARK    4  A    between atoms: N_9  and  C_10
REMARK    5  A    between atoms: C_10  and  C_11
REMARK    6  A    between atoms: C_11  and  O_12
REMARK    7  A    between atoms: O_12  and  C_13
REMARK                            x       y       z     vdW  Elec       q    Type
REMARK                         _______ _______ _______ _____ _____    ______ ____
ROOT
ATOM      1  N   UNL     1       2.971   7.233  17.609  0.00  0.00    +0.000 NA
ATOM      2  H   UNL     1       3.052   6.250  17.865  0.00  0.00    +0.000 HD
ENDROOT
BRANCH   1   3
ATOM      3  C   UNL     1       4.302   7.744  17.272  0.00  0.00    +0.000 C 
BRANCH   3   8
ATOM      4  C   UNL     1       6.213   5.047  15.338  0.00  0.00    +0.000 A 
ATOM      5  C   UNL     1       7.056   4.569  16.350  0.00  0.00    +0.000 A 
ATOM      6  C   UNL     1       7.009   5.099  17.642  0.00  0.00    +0.000 A 
ATOM      7  C   UNL     1       6.111   6.119  17.946  0.00  0.00    +0.000 A 
ATOM      8  C   UNL     1       5.265   6.627  16.955  0.00  0.00    +0.000 A 
ATOM      9  C   UNL     1       5.341   6.100  15.651  0.00  0.00    +0.000 A 
BRANCH   4  11
ATOM     10  C   UNL     1       7.240   4.525  13.123  0.00  0.00    +0.000 C 
ATOM     11  C   UNL     1       6.224   4.449  13.997  0.00  0.00    +0.000 C 
ATOM     12  C   UNL     1       5.133   3.560  13.479  0.00  0.00    +0.000 C 
ATOM     13  C   UNL     1       5.522   3.341  12.015  0.00  0.00    +0.000 C 
ATOM     14  C   UNL     1       6.999   3.707  11.902  0.00  0.00    +0.000 C 
ENDBRANCH   4  11
ENDBRANCH   3   8
ENDBRANCH   1   3
BRANCH   1  15
ATOM     15  C   UNL     1       2.338   7.978  18.711  0.00  0.00    +0.000 C 
BRANCH  15  16
ATOM     16  C   UNL     1       1.943   7.068  19.876  0.00  0.00    +0.000 C 
BRANCH  16  17
ATOM     17  O   UNL     1       2.968   6.132  20.214  0.00  0.00    +0.000 OA
BRANCH  17  18
ATOM     18  C   UNL     1       2.576   4.819  20.138  0.00  0.00    +0.000 A 
ATOM     19  C   UNL     1       2.072   4.273  21.325  0.00  0.00    +0.000 A 
ATOM     20  C   UNL     1       1.642   2.933  21.383  0.00  0.00    +0.000 A 
ATOM     21  C   UNL     1       1.707   2.117  20.255  0.00  0.00    +0.000 A 
ATOM     22  C   UNL     1       2.199   2.672  19.092  0.00  0.00    +0.000 A 
ATOM     23  C   UNL     1       2.623   3.982  19.028  0.00  0.00    +0.000 A 
ATOM     24  O   UNL     1       3.058   4.289  17.772  0.00  0.00    +0.000 OA
ATOM     25  C   UNL     1       2.788   3.076  17.055  0.00  0.00    +0.000 C 
ATOM     26  O   UNL     1       2.311   2.018  17.903  0.00  0.00    +0.000 OA
ENDBRANCH  17  18
ENDBRANCH  16  17
ENDBRANCH  15  16
ENDBRANCH   1  15
TORSDOF 7
ENDMDL
MODEL 6
REMARK VINA RESULT:      -7.4      3.435      7.242
REMARK  Name = 
REMARK  7 active torsions:
REMARK  status: ('A' for Active; 'I' for Inactive)
REMARK    1  A    between atoms: C_2  and  C_3
REMARK    2  A    between atoms: C_7  and  C_8
REMARK    3  A    between atoms: C_8  and  N_9
REMARK    4  A    between atoms: N_9  and  C_10
REMARK    5  A    between atoms: C_10  and  C_11
REMARK    6  A    between atoms: C_11  and  O_12
REMARK    7  A    between atoms: O_12  and  C_13
REMARK                            x       y       z     vdW  Elec       q    Type
REMARK                         _______ _______ _______ _____ _____    ______ ____
ROOT
ATOM      1  N   UNL     1       2.867   6.730  19.804  0.00  0.00    +0.000 NA
ATOM      2  H   UNL     1       2.313   7.585  19.801  0.00  0.00    +0.000 HD
ENDROOT
BRANCH   1   3
ATOM      3  C   UNL     1       2.852   6.152  18.457  0.00  0.00    +0.000 C 
BRANCH   3   8
ATOM      4  C   UNL     1       5.749   4.818  16.338  0.00  0.00    +0.000 A 
ATOM      5  C   UNL     1       6.706   4.601  17.339  0.00  0.00    +0.000 A 
ATOM      6  C   UNL     1       6.426   4.873  18.680  0.00  0.00    +0.000 A 
ATOM      7  C   UNL     1       5.175   5.364  19.046  0.00  0.00    +0.000 A 
ATOM      8  C   UNL     1       4.202   5.603  18.070  0.00  0.00    +0.000 A 
ATOM      9  C   UNL     1       4.508   5.349  16.719  0.00  0.00    +0.000 A 
BRANCH   4  11
ATOM     10  C   UNL     1       5.247   3.716  14.155  0.00  0.00    +0.000 C 
ATOM     11  C   UNL     1       6.027   4.478  14.937  0.00  0.00    +0.000 C 
ATOM     12  C   UNL     1       7.174   5.051  14.159  0.00  0.00    +0.000 C 
ATOM     13  C   UNL     1       7.128   4.275  12.841  0.00  0.00    +0.000 C 
ATOM     14  C   UNL     1       5.734   3.663  12.748  0.00  0.00    +0.000 C 
ENDBRANCH   4  11
ENDBRANCH   3   8
ENDBRANCH   1   3
BRANCH   1  15
ATOM     15  C   UNL     1       2.340   5.806  20.824  0.00  0.00    +0.000 C 
BRANCH  15  16
ATOM     16  C   UNL     1       1.029   5.147  20.388  0.00  0.00    +0.000 C 
BRANCH  16  17
ATOM     17  O   UNL     1       1.044   3.729  20.558  0.00  0.00    +0.000 OA
BRANCH  17  18
ATOM     18  C   UNL     1       1.935   3.076  19.742  0.00  0.00    +0.000 A 
ATOM     19  C   UNL     1       1.598   3.055  18.382  0.00  0.00    +0.000 A 
ATOM     20  C   UNL     1       2.423   2.411  17.439  0.00  0.00    +0.000 A 
ATOM     21  C   UNL     1       3.600   1.780  17.839  0.00  0.00    +0.000 A 
ATOM     22  C   UNL     1       3.921   1.817  19.181  0.00  0.00    +0.000 A 
ATOM     23  C   UNL     1       3.118   2.444  20.109  0.00  0.00    +0.000 A 
ATOM     24  O   UNL     1       3.655   2.345  21.359  0.00  0.00    +0.000 OA
ATOM     25  C   UNL     1       4.896   1.673  21.101  0.00  0.00    +0.000 C 
ATOM     26  O   UNL     1       5.039   1.267  19.729  0.00  0.00    +0.000 OA
ENDBRANCH  17  18
ENDBRANCH  16  17
ENDBRANCH  15  16
ENDBRANCH   1  15
TORSDOF 7
ENDMDL
MODEL 7
REMARK VINA RESULT:      -7.3      1.090      2.024
REMARK  Name = 
REMARK  7 active torsions:
REMARK  status: ('A' for Active; 'I' for Inactive)
REMARK    1  A    between atoms: C_2  and  C_3
REMARK    2  A    between atoms: C_7  and  C_8
REMARK    3  A    between atoms: C_8  and  N_9
REMARK    4  A    between atoms: N_9  and  C_10
REMARK    5  A    between atoms: C_10  and  C_11
REMARK    6  A    between atoms: C_11  and  O_12
REMARK    7  A    between atoms: O_12  and  C_13
REMARK                            x       y       z     vdW  Elec       q    Type
REMARK                         _______ _______ _______ _____ _____    ______ ____
ROOT
ATOM      1  N   UNL     1       1.469   4.480  20.138  0.00  0.00    +0.000 NA
ATOM      2  H   UNL     1       0.659   4.953  19.741  0.00  0.00    +0.000 HD
ENDROOT
BRANCH   1   3
ATOM      3  C   UNL     1       2.584   5.430  20.202  0.00  0.00    +0.000 C 
BRANCH   3   8
ATOM      4  C   UNL     1       1.061   8.942  20.307  0.00  0.00    +0.000 A 
ATOM      5  C   UNL     1       1.388   9.391  19.019  0.00  0.00    +0.000 A 
ATOM      6  C   UNL     1       2.084   8.575  18.124  0.00  0.00    +0.000 A 
ATOM      7  C   UNL     1       2.461   7.289  18.500  0.00  0.00    +0.000 A 
ATOM      8  C   UNL     1       2.161   6.816  19.782  0.00  0.00    +0.000 A 
ATOM      9  C   UNL     1       1.482   7.659  20.683  0.00  0.00    +0.000 A 
BRANCH   4  11
ATOM     10  C   UNL     1      -0.319   9.351  22.346  0.00  0.00    +0.000 C 
ATOM     11  C   UNL     1       0.280   9.781  21.225  0.00  0.00    +0.000 C 
ATOM     12  C   UNL     1       0.160  11.269  21.086  0.00  0.00    +0.000 C 
ATOM     13  C   UNL     1      -0.867  11.641  22.158  0.00  0.00    +0.000 C 
ATOM     14  C   UNL     1      -0.922  10.466  23.129  0.00  0.00    +0.000 C 
ENDBRANCH   4  11
ENDBRANCH   3   8
ENDBRANCH   1   3
BRANCH   1  15
ATOM     15  C   UNL     1       1.786   3.288  19.333  0.00  0.00    +0.000 C 
BRANCH  15  16
ATOM     16  C   UNL     1       3.217   3.317  18.789  0.00  0.00    +0.000 C 
BRANCH  16  17
ATOM     17  O   UNL     1       3.308   3.959  17.517  0.00  0.00    +0.000 OA
BRANCH  17  18
ATOM     18  C   UNL     1       4.594   4.212  17.108  0.00  0.00    +0.000 A 
ATOM     19  C   UNL     1       4.850   3.973  15.751  0.00  0.00    +0.000 A 
ATOM     20  C   UNL     1       6.131   4.186  15.206  0.00  0.00    +0.000 A 
ATOM     21  C   UNL     1       7.177   4.642  16.006  0.00  0.00    +0.000 A 
ATOM     22  C   UNL     1       6.906   4.880  17.338  0.00  0.00    +0.000 A 
ATOM     23  C   UNL     1       5.655   4.672  17.880  0.00  0.00    +0.000 A 
ATOM     24  O   UNL     1       5.644   4.984  19.207  0.00  0.00    +0.000 OA
ATOM     25  C   UNL     1       6.977   5.475  19.411  0.00  0.00    +0.000 C 
ATOM     26  O   UNL     1       7.808   5.343  18.246  0.00  0.00    +0.000 OA
ENDBRANCH  17  18
ENDBRANCH  16  17
ENDBRANCH  15  16
ENDBRANCH   1  15
TORSDOF 7
ENDMDL
MODEL 8
REMARK VINA RESULT:      -7.3      5.453      7.970
REMARK  Name = 
REMARK  7 active torsions:
REMARK  status: ('A' for Active; 'I' for Inactive)
REMARK    1  A    between atoms: C_2  and  C_3
REMARK    2  A    between atoms: C_7  and  C_8
REMARK    3  A    between atoms: C_8  and  N_9
REMARK    4  A    between atoms: N_9  and  C_10
REMARK    5  A    between atoms: C_10  and  C_11
REMARK    6  A    between atoms: C_11  and  O_12
REMARK    7  A    between atoms: O_12  and  C_13
REMARK                            x       y       z     vdW  Elec       q    Type
REMARK                         _______ _______ _______ _____ _____    ______ ____
ROOT
ATOM      1  N   UNL     1       7.757   7.684  17.135  0.00  0.00    +0.000 NA
ATOM      2  H   UNL     1       7.066   7.537  16.401  0.00  0.00    +0.000 HD
ENDROOT
BRANCH   1   3
ATOM      3  C   UNL     1       7.578   6.655  18.163  0.00  0.00    +0.000 C 
BRANCH   3   8
ATOM      4  C   UNL     1       4.455   4.468  18.522  0.00  0.00    +0.000 A 
ATOM      5  C   UNL     1       4.329   4.000  17.206  0.00  0.00    +0.000 A 
ATOM      6  C   UNL     1       5.240   4.375  16.215  0.00  0.00    +0.000 A 
ATOM      7  C   UNL     1       6.298   5.225  16.525  0.00  0.00    +0.000 A 
ATOM      8  C   UNL     1       6.444   5.719  17.825  0.00  0.00    +0.000 A 
ATOM      9  C   UNL     1       5.504   5.352  18.808  0.00  0.00    +0.000 A 
BRANCH   4  11
ATOM     10  C   UNL     1       3.522   2.808  20.137  0.00  0.00    +0.000 C 
ATOM     11  C   UNL     1       3.530   4.026  19.574  0.00  0.00    +0.000 C 
ATOM     12  C   UNL     1       2.547   4.938  20.246  0.00  0.00    +0.000 C 
ATOM     13  C   UNL     1       1.727   3.987  21.121  0.00  0.00    +0.000 C 
ATOM     14  C   UNL     1       2.552   2.712  21.264  0.00  0.00    +0.000 C 
ENDBRANCH   4  11
ENDBRANCH   3   8
ENDBRANCH   1   3
BRANCH   1  15
ATOM     15  C   UNL     1       7.624   9.049  17.670  0.00  0.00    +0.000 C 
BRANCH  15  16
ATOM     16  C   UNL     1       8.787   9.428  18.592  0.00  0.00    +0.000 C 
BRANCH  16  17
ATOM     17  O   UNL     1       9.565  10.510  18.078  0.00  0.00    +0.000 OA
BRANCH  17  18
ATOM     18  C   UNL     1       9.745  11.541  18.967  0.00  0.00    +0.000 A 
ATOM     19  C   UNL     1       9.634  11.194  20.319  0.00  0.00    +0.000 A 
ATOM     20  C   UNL     1       9.790  12.161  21.332  0.00  0.00    +0.000 A 
ATOM     21  C   UNL     1      10.060  13.489  21.010  0.00  0.00    +0.000 A 
ATOM     22  C   UNL     1      10.174  13.813  19.674  0.00  0.00    +0.000 A 
ATOM     23  C   UNL     1      10.021  12.873  18.677  0.00  0.00    +0.000 A 
ATOM     24  O   UNL     1      10.186  13.440  17.448  0.00  0.00    +0.000 OA
ATOM     25  C   UNL     1      10.530  14.792  17.784  0.00  0.00    +0.000 C 
ATOM     26  O   UNL     1      10.453  15.056  19.195  0.00  0.00    +0.000 OA
ENDBRANCH  17  18
ENDBRANCH  16  17
ENDBRANCH  15  16
ENDBRANCH   1  15
TORSDOF 7
ENDMDL
MODEL 9
REMARK VINA RESULT:      -7.1      1.433      2.175
REMARK  Name = 
REMARK  7 active torsions:
REMARK  status: ('A' for Active; 'I' for Inactive)
REMARK    1  A    between atoms: C_2  and  C_3
REMARK    2  A    between atoms: C_7  and  C_8
REMARK    3  A    between atoms: C_8  and  N_9
REMARK    4  A    between atoms: N_9  and  C_10
REMARK    5  A    between atoms: C_10  and  C_11
REMARK    6  A    between atoms: C_11  and  O_12
REMARK    7  A    between atoms: O_12  and  C_13
REMARK                            x       y       z     vdW  Elec       q    Type
REMARK                         _______ _______ _______ _____ _____    ______ ____
ROOT
ATOM      1  N   UNL     1       3.062   4.245  20.687  0.00  0.00    +0.000 NA
ATOM      2  H   UNL     1       3.190   3.802  21.595  0.00  0.00    +0.000 HD
ENDROOT
BRANCH   1   3
ATOM      3  C   UNL     1       1.930   5.172  20.769  0.00  0.00    +0.000 C 
BRANCH   3   8
ATOM      4  C   UNL     1       1.652   8.697  19.299  0.00  0.00    +0.000 A 
ATOM      5  C   UNL     1       2.433   8.545  18.145  0.00  0.00    +0.000 A 
ATOM      6  C   UNL     1       3.038   7.324  17.837  0.00  0.00    +0.000 A 
ATOM      7  C   UNL     1       2.867   6.228  18.678  0.00  0.00    +0.000 A 
ATOM      8  C   UNL     1       2.104   6.350  19.844  0.00  0.00    +0.000 A 
ATOM      9  C   UNL     1       1.521   7.594  20.155  0.00  0.00    +0.000 A 
BRANCH   4  11
ATOM     10  C   UNL     1       0.783  10.963  18.714  0.00  0.00    +0.000 C 
ATOM     11  C   UNL     1       0.970   9.965  19.591  0.00  0.00    +0.000 C 
ATOM     12  C   UNL     1       0.280  10.252  20.891  0.00  0.00    +0.000 C 
ATOM     13  C   UNL     1      -0.114  11.725  20.762  0.00  0.00    +0.000 C 
ATOM     14  C   UNL     1      -0.056  12.059  19.275  0.00  0.00    +0.000 C 
ENDBRANCH   4  11
ENDBRANCH   3   8
ENDBRANCH   1   3
BRANCH   1  15
ATOM     15  C   UNL     1       2.875   3.210  19.656  0.00  0.00    +0.000 C 
BRANCH  15  16
ATOM     16  C   UNL     1       4.205   2.654  19.142  0.00  0.00    +0.000 C 
BRANCH  16  17
ATOM     17  O   UNL     1       5.277   3.590  19.269  0.00  0.00    +0.000 OA
BRANCH  17  18
ATOM     18  C   UNL     1       5.601   4.234  18.101  0.00  0.00    +0.000 A 
ATOM     19  C   UNL     1       4.971   3.741  16.950  0.00  0.00    +0.000 A 
ATOM     20  C   UNL     1       5.222   4.308  15.686  0.00  0.00    +0.000 A 
ATOM     21  C   UNL     1       6.105   5.377  15.550  0.00  0.00    +0.000 A 
ATOM     22  C   UNL     1       6.711   5.856  16.693  0.00  0.00    +0.000 A 
ATOM     23  C   UNL     1       6.472   5.305  17.934  0.00  0.00    +0.000 A 
ATOM     24  O   UNL     1       7.184   5.956  18.898  0.00  0.00    +0.000 OA
ATOM     25  C   UNL     1       7.818   7.002  18.149  0.00  0.00    +0.000 C 
ATOM     26  O   UNL     1       7.582   6.902  16.735  0.00  0.00    +0.000 OA
ENDBRANCH  17  18
ENDBRANCH  16  17
ENDBRANCH  15  16
ENDBRANCH   1  15
TORSDOF 7
ENDMDL
