MODEL 1
REMARK VINA RESULT:      -7.7      0.000      0.000
REMARK  Name = 
REMARK  10 active torsions:
REMARK  status: ('A' for Active; 'I' for Inactive)
REMARK    1  A    between atoms: C_1  and  O_2
REMARK    2  A    between atoms: O_2  and  C_3
REMARK    3  A    between atoms: C_7  and  O_8
REMARK    4  A    between atoms: C_9  and  C_10
REMARK    5  A    between atoms: C_10  and  N_11
REMARK    6  A    between atoms: C_14  and  O_15
REMARK    7  A    between atoms: O_15  and  C_16
REMARK    8  A    between atoms: C_19  and  C_20
REMARK    9  A    between atoms: N_22  and  C_23
REMARK   10  A    between atoms: C_23  and  C_24
REMARK                            x       y       z     vdW  Elec       q    Type
REMARK                         _______ _______ _______ _____ _____    ______ ____
ROOT
ATOM      1  O   UNL     1       2.552   6.432  20.002  0.00  0.00    +0.000 OA
ENDROOT
BRANCH   1   5
ATOM      2  N   UNL     1       3.549   3.025  18.410  0.00  0.00    +0.000 NA
ATOM      3  C   UNL     1       3.264   3.091  19.836  0.00  0.00    +0.000 C 
ATOM      4  C   UNL     1       2.030   3.879  20.276  0.00  0.00    +0.000 C 
ATOM      5  C   UNL     1       1.830   5.237  19.597  0.00  0.00    +0.000 C 
ATOM      6  C   UNL     1       1.917   5.062  18.078  0.00  0.00    +0.000 C 
ATOM      7  C   UNL     1       2.888   4.002  17.539  0.00  0.00    +0.000 C 
BRANCH   2   8
ATOM      8  C   UNL     1       5.003   2.997  18.103  0.00  0.00    +0.000 C 
BRANCH   8  14
ATOM      9  C   UNL     1       6.225   4.387  16.327  0.00  0.00    +0.000 A 
ATOM     10  C   UNL     1       6.878   5.559  15.908  0.00  0.00    +0.000 A 
ATOM     11  C   UNL     1       7.081   6.607  16.802  0.00  0.00    +0.000 A 
ATOM     12  C   UNL     1       6.594   6.492  18.105  0.00  0.00    +0.000 A 
ATOM     13  C   UNL     1       5.908   5.342  18.496  0.00  0.00    +0.000 A 
ATOM     14  C   UNL     1       5.691   4.266  17.627  0.00  0.00    +0.000 A 
BRANCH   9  16
ATOM     15  C   UNL     1       6.214   3.906  14.050  0.00  0.00    +0.000 C 
ATOM     16  O   UNL     1       6.044   3.411  15.379  0.00  0.00    +0.000 OA
ENDBRANCH   9  16
BRANCH  13  17
ATOM     17  O   UNL     1       5.469   5.249  19.789  0.00  0.00    +0.000 OA
ATOM     18  H   UNL     1       6.037   5.822  20.328  0.00  0.00    +0.000 HD
ENDBRANCH  13  17
ENDBRANCH   8  14
ENDBRANCH   2   8
ENDBRANCH   1   5
BRANCH   1  19
ATOM     19  C   UNL     1       1.914   7.628  19.884  0.00  0.00    +0.000 A 
ATOM     20  C   UNL     1       1.206   8.090  20.977  0.00  0.00    +0.000 A 
ATOM     21  C   UNL     1       0.404   9.222  20.872  0.00  0.00    +0.000 A 
ATOM     22  C   UNL     1       0.366   9.971  19.691  0.00  0.00    +0.000 A 
ATOM     23  C   UNL     1       1.265   9.635  18.666  0.00  0.00    +0.000 A 
ATOM     24  C   UNL     1       2.037   8.455  18.764  0.00  0.00    +0.000 A 
BRANCH  22  25
ATOM     25  C   UNL     1      -0.680  11.043  19.630  0.00  0.00    +0.000 C 
ATOM     26  O   UNL     1      -1.111  11.400  18.535  0.00  0.00    +0.000 OA
ATOM     27  N   UNL     1      -1.071  11.667  20.795  0.00  0.00    +0.000 N 
ATOM     28  H   UNL     1      -0.663  11.425  21.686  0.00  0.00    +0.000 HD
BRANCH  27  29
ATOM     29  C   UNL     1      -1.940  12.834  20.757  0.00  0.00    +0.000 C 
BRANCH  29  30
ATOM     30  C   UNL     1      -2.986  12.860  21.861  0.00  0.00    +0.000 A 
ATOM     31  C   UNL     1      -4.287  13.299  21.590  0.00  0.00    +0.000 A 
ATOM     32  C   UNL     1      -5.242  13.254  22.610  0.00  0.00    +0.000 A 
ATOM     33  C   UNL     1      -4.875  12.772  23.858  0.00  0.00    +0.000 A 
ATOM     34  C   UNL     1      -3.566  12.354  24.046  0.00  0.00    +0.000 A 
ATOM     35  N   UNL     1      -2.617  12.399  23.080  0.00  0.00    +0.000 NA
ENDBRANCH  29  30
ENDBRANCH  27  29
ENDBRANCH  22  25
ENDBRANCH   1  19
TORSDOF 9
ENDMDL
MODEL 2
REMARK VINA RESULT:      -7.7      5.964     10.340
REMARK  Name = 
REMARK  10 active torsions:
REMARK  status: ('A' for Active; 'I' for Inactive)
REMARK    1  A    between atoms: C_1  and  O_2
REMARK    2  A    between atoms: O_2  and  C_3
REMARK    3  A    between atoms: C_7  and  O_8
REMARK    4  A    between atoms: C_9  and  C_10
REMARK    5  A    between atoms: C_10  and  N_11
REMARK    6  A    between atoms: C_14  and  O_15
REMARK    7  A    between atoms: O_15  and  C_16
REMARK    8  A    between atoms: C_19  and  C_20
REMARK    9  A    between atoms: N_22  and  C_23
REMARK   10  A    between atoms: C_23  and  C_24
REMARK                            x       y       z     vdW  Elec       q    Type
REMARK                         _______ _______ _______ _____ _____    ______ ____
ROOT
ATOM      1  O   UNL     1       8.257  10.053  18.073  0.00  0.00    +0.000 OA
ENDROOT
BRANCH   1   5
ATOM      2  N   UNL     1      10.222  13.324  18.837  0.00  0.00    +0.000 NA
ATOM      3  C   UNL     1       9.255  12.828  19.807  0.00  0.00    +0.000 C 
ATOM      4  C   UNL     1       9.273  11.332  20.122  0.00  0.00    +0.000 C 
ATOM      5  C   UNL     1       9.392  10.397  18.915  0.00  0.00    +0.000 C 
ATOM      6  C   UNL     1      10.573  10.839  18.047  0.00  0.00    +0.000 C 
ATOM      7  C   UNL     1      10.871  12.343  17.962  0.00  0.00    +0.000 C 
BRANCH   2   8
ATOM      8  C   UNL     1       9.703  14.449  18.016  0.00  0.00    +0.000 C 
BRANCH   8  14
ATOM      9  C   UNL     1       7.869  15.998  18.919  0.00  0.00    +0.000 A 
ATOM     10  C   UNL     1       6.520  16.365  19.062  0.00  0.00    +0.000 A 
ATOM     11  C   UNL     1       5.516  15.570  18.516  0.00  0.00    +0.000 A 
ATOM     12  C   UNL     1       5.870  14.429  17.793  0.00  0.00    +0.000 A 
ATOM     13  C   UNL     1       7.215  14.101  17.620  0.00  0.00    +0.000 A 
ATOM     14  C   UNL     1       8.251  14.873  18.160  0.00  0.00    +0.000 A 
BRANCH   9  16
ATOM     15  C   UNL     1       8.219  17.760  20.400  0.00  0.00    +0.000 C 
ATOM     16  O   UNL     1       8.799  16.848  19.466  0.00  0.00    +0.000 OA
ENDBRANCH   9  16
BRANCH  13  17
ATOM     17  O   UNL     1       7.527  12.960  16.932  0.00  0.00    +0.000 OA
ATOM     18  H   UNL     1       8.459  13.028  16.669  0.00  0.00    +0.000 HD
ENDBRANCH  13  17
ENDBRANCH   8  14
ENDBRANCH   2   8
ENDBRANCH   1   5
BRANCH   1  19
ATOM     19  C   UNL     1       7.876   8.748  18.027  0.00  0.00    +0.000 A 
ATOM     20  C   UNL     1       6.891   8.399  17.122  0.00  0.00    +0.000 A 
ATOM     21  C   UNL     1       6.343   7.120  17.133  0.00  0.00    +0.000 A 
ATOM     22  C   UNL     1       6.836   6.132  17.993  0.00  0.00    +0.000 A 
ATOM     23  C   UNL     1       7.990   6.422  18.740  0.00  0.00    +0.000 A 
ATOM     24  C   UNL     1       8.506   7.739  18.758  0.00  0.00    +0.000 A 
BRANCH  22  25
ATOM     25  C   UNL     1       6.040   4.865  18.058  0.00  0.00    +0.000 C 
ATOM     26  O   UNL     1       5.579   4.390  17.022  0.00  0.00    +0.000 OA
ATOM     27  N   UNL     1       5.768   4.305  19.288  0.00  0.00    +0.000 N 
ATOM     28  H   UNL     1       6.084   4.735  20.145  0.00  0.00    +0.000 HD
BRANCH  27  29
ATOM     29  C   UNL     1       4.845   3.186  19.407  0.00  0.00    +0.000 C 
BRANCH  29  30
ATOM     30  C   UNL     1       3.403   3.599  19.659  0.00  0.00    +0.000 A 
ATOM     31  C   UNL     1       2.350   2.776  19.244  0.00  0.00    +0.000 A 
ATOM     32  C   UNL     1       1.038   3.154  19.542  0.00  0.00    +0.000 A 
ATOM     33  C   UNL     1       0.817   4.330  20.243  0.00  0.00    +0.000 A 
ATOM     34  C   UNL     1       1.915   5.091  20.621  0.00  0.00    +0.000 A 
ATOM     35  N   UNL     1       3.195   4.756  20.333  0.00  0.00    +0.000 NA
ENDBRANCH  29  30
ENDBRANCH  27  29
ENDBRANCH  22  25
ENDBRANCH   1  19
TORSDOF 9
ENDMDL
MODEL 3
REMARK VINA RESULT:      -7.6      2.456     11.264
REMARK  Name = 
REMARK  10 active torsions:
REMARK  status: ('A' for Active; 'I' for Inactive)
REMARK    1  A    between atoms: C_1  and  O_2
REMARK    2  A    between atoms: O_2  and  C_3
REMARK    3  A    between atoms: C_7  and  O_8
REMARK    4  A    between atoms: C_9  and  C_10
REMARK    5  A    between atoms: C_10  and  N_11
REMARK    6  A    between atoms: C_14  and  O_15
REMARK    7  A    between atoms: O_15  and  C_16
REMARK    8  A    between atoms: C_19  and  C_20
REMARK    9  A    between atoms: N_22  and  C_23
REMARK   10  A    between atoms: C_23  and  C_24
REMARK                            x       y       z     vdW  Elec       q    Type
REMARK                         _______ _______ _______ _____ _____    ______ ____
ROOT
ATOM      1  O   UNL     1       0.921  10.114  19.711  0.00  0.00    +0.000 OA
ENDROOT
BRANCH   1   5
ATOM      2  N   UNL     1       0.473  13.893  20.522  0.00  0.00    +0.000 NA
ATOM      3  C   UNL     1       1.803  13.377  20.230  0.00  0.00    +0.000 C 
ATOM      4  C   UNL     1       1.950  12.429  19.040  0.00  0.00    +0.000 C 
ATOM      5  C   UNL     1       0.883  11.336  18.924  0.00  0.00    +0.000 C 
ATOM      6  C   UNL     1      -0.507  11.973  19.013  0.00  0.00    +0.000 C 
ATOM      7  C   UNL     1      -0.671  13.196  19.926  0.00  0.00    +0.000 C 
BRANCH   2   8
ATOM      8  C   UNL     1       0.226  14.089  21.975  0.00  0.00    +0.000 C 
BRANCH   8  14
ATOM      9  C   UNL     1      -1.158  12.131  22.886  0.00  0.00    +0.000 A 
ATOM     10  C   UNL     1      -2.333  11.604  23.448  0.00  0.00    +0.000 A 
ATOM     11  C   UNL     1      -3.434  12.427  23.671  0.00  0.00    +0.000 A 
ATOM     12  C   UNL     1      -3.340  13.786  23.364  0.00  0.00    +0.000 A 
ATOM     13  C   UNL     1      -2.153  14.305  22.848  0.00  0.00    +0.000 A 
ATOM     14  C   UNL     1      -1.028  13.507  22.605  0.00  0.00    +0.000 A 
BRANCH   9  16
ATOM     15  C   UNL     1      -0.471   9.912  23.028  0.00  0.00    +0.000 C 
ATOM     16  O   UNL     1      -0.110  11.259  22.720  0.00  0.00    +0.000 OA
ENDBRANCH   9  16
BRANCH  13  17
ATOM     17  O   UNL     1      -2.104  15.635  22.530  0.00  0.00    +0.000 OA
ATOM     18  H   UNL     1      -1.925  16.121  23.351  0.00  0.00    +0.000 HD
ENDBRANCH  13  17
ENDBRANCH   8  14
ENDBRANCH   2   8
ENDBRANCH   1   5
BRANCH   1  19
ATOM     19  C   UNL     1       1.570   9.041  19.183  0.00  0.00    +0.000 A 
ATOM     20  C   UNL     1       1.719   7.924  19.982  0.00  0.00    +0.000 A 
ATOM     21  C   UNL     1       2.507   6.856  19.565  0.00  0.00    +0.000 A 
ATOM     22  C   UNL     1       3.091   6.845  18.293  0.00  0.00    +0.000 A 
ATOM     23  C   UNL     1       2.744   7.870  17.398  0.00  0.00    +0.000 A 
ATOM     24  C   UNL     1       1.984   8.974  17.850  0.00  0.00    +0.000 A 
BRANCH  22  25
ATOM     25  C   UNL     1       4.075   5.746  18.034  0.00  0.00    +0.000 C 
ATOM     26  O   UNL     1       4.168   4.820  18.838  0.00  0.00    +0.000 OA
ATOM     27  N   UNL     1       4.917   5.841  16.947  0.00  0.00    +0.000 N 
ATOM     28  H   UNL     1       4.892   6.638  16.327  0.00  0.00    +0.000 HD
BRANCH  27  29
ATOM     29  C   UNL     1       6.008   4.894  16.766  0.00  0.00    +0.000 C 
BRANCH  29  30
ATOM     30  C   UNL     1       6.400   4.675  15.313  0.00  0.00    +0.000 A 
ATOM     31  C   UNL     1       5.669   3.792  14.510  0.00  0.00    +0.000 A 
ATOM     32  C   UNL     1       6.017   3.657  13.163  0.00  0.00    +0.000 A 
ATOM     33  C   UNL     1       7.072   4.403  12.660  0.00  0.00    +0.000 A 
ATOM     34  C   UNL     1       7.747   5.257  13.521  0.00  0.00    +0.000 A 
ATOM     35  N   UNL     1       7.440   5.397  14.832  0.00  0.00    +0.000 NA
ENDBRANCH  29  30
ENDBRANCH  27  29
ENDBRANCH  22  25
ENDBRANCH   1  19
TORSDOF 9
ENDMDL
MODEL 4
REMARK VINA RESULT:      -7.6      2.649      3.742
REMARK  Name = 
REMARK  10 active torsions:
REMARK  status: ('A' for Active; 'I' for Inactive)
REMARK    1  A    between atoms: C_1  and  O_2
REMARK    2  A    between atoms: O_2  and  C_3
REMARK    3  A    between atoms: C_7  and  O_8
REMARK    4  A    between atoms: C_9  and  C_10
REMARK    5  A    between atoms: C_10  and  N_11
REMARK    6  A    between atoms: C_14  and  O_15
REMARK    7  A    between atoms: O_15  and  C_16
REMARK    8  A    between atoms: C_19  and  C_20
REMARK    9  A    between atoms: N_22  and  C_23
REMARK   10  A    between atoms: C_23  and  C_24
REMARK                            x       y       z     vdW  Elec       q    Type
REMARK                         _______ _______ _______ _____ _____    ______ ____
ROOT
ATOM      1  O   UNL     1       2.280   5.952  20.237  0.00  0.00    +0.000 OA
ENDROOT
BRANCH   1   5
ATOM      2  N   UNL     1       3.247   2.847  18.099  0.00  0.00    +0.000 NA
ATOM      3  C   UNL     1       2.863   2.665  19.492  0.00  0.00    +0.000 C 
ATOM      4  C   UNL     1       1.634   3.425  19.993  0.00  0.00    +0.000 C 
ATOM      5  C   UNL     1       1.540   4.893  19.570  0.00  0.00    +0.000 C 
ATOM      6  C   UNL     1       1.729   4.997  18.054  0.00  0.00    +0.000 C 
ATOM      7  C   UNL     1       2.692   4.003  17.388  0.00  0.00    +0.000 C 
BRANCH   2   8
ATOM      8  C   UNL     1       4.717   2.798  17.886  0.00  0.00    +0.000 C 
BRANCH   8  14
ATOM      9  C   UNL     1       6.098   4.287  16.319  0.00  0.00    +0.000 A 
ATOM     10  C   UNL     1       6.809   5.467  16.043  0.00  0.00    +0.000 A 
ATOM     11  C   UNL     1       6.974   6.434  17.032  0.00  0.00    +0.000 A 
ATOM     12  C   UNL     1       6.392   6.230  18.285  0.00  0.00    +0.000 A 
ATOM     13  C   UNL     1       5.651   5.074  18.531  0.00  0.00    +0.000 A 
ATOM     14  C   UNL     1       5.469   4.079  17.563  0.00  0.00    +0.000 A 
BRANCH   9  16
ATOM     15  C   UNL     1       6.289   3.975  14.020  0.00  0.00    +0.000 C 
ATOM     16  O   UNL     1       5.960   3.396  15.283  0.00  0.00    +0.000 OA
ENDBRANCH   9  16
BRANCH  13  17
ATOM     17  O   UNL     1       5.119   4.891  19.779  0.00  0.00    +0.000 OA
ATOM     18  H   UNL     1       4.254   5.332  19.790  0.00  0.00    +0.000 HD
ENDBRANCH  13  17
ENDBRANCH   8  14
ENDBRANCH   2   8
ENDBRANCH   1   5
BRANCH   1  19
ATOM     19  C   UNL     1       1.977   7.238  19.913  0.00  0.00    +0.000 A 
ATOM     20  C   UNL     1       1.357   8.013  20.873  0.00  0.00    +0.000 A 
ATOM     21  C   UNL     1       0.878   9.281  20.557  0.00  0.00    +0.000 A 
ATOM     22  C   UNL     1       1.091   9.837  19.291  0.00  0.00    +0.000 A 
ATOM     23  C   UNL     1       1.924   9.145  18.398  0.00  0.00    +0.000 A 
ATOM     24  C   UNL     1       2.363   7.837  18.711  0.00  0.00    +0.000 A 
BRANCH  22  25
ATOM     25  C   UNL     1       0.359  11.113  19.005  0.00  0.00    +0.000 C 
ATOM     26  O   UNL     1      -0.669  11.078  18.333  0.00  0.00    +0.000 OA
ATOM     27  N   UNL     1       0.902  12.308  19.427  0.00  0.00    +0.000 N 
ATOM     28  H   UNL     1       1.785  12.343  19.916  0.00  0.00    +0.000 HD
BRANCH  27  29
ATOM     29  C   UNL     1       0.323  13.576  19.009  0.00  0.00    +0.000 C 
BRANCH  29  30
ATOM     30  C   UNL     1       1.353  14.624  18.615  0.00  0.00    +0.000 A 
ATOM     31  C   UNL     1       2.620  14.235  18.165  0.00  0.00    +0.000 A 
ATOM     32  C   UNL     1       3.523  15.219  17.754  0.00  0.00    +0.000 A 
ATOM     33  C   UNL     1       3.138  16.551  17.800  0.00  0.00    +0.000 A 
ATOM     34  C   UNL     1       1.864  16.855  18.258  0.00  0.00    +0.000 A 
ATOM     35  N   UNL     1       0.974  15.923  18.675  0.00  0.00    +0.000 NA
ENDBRANCH  29  30
ENDBRANCH  27  29
ENDBRANCH  22  25
ENDBRANCH   1  19
TORSDOF 9
ENDMDL
MODEL 5
REMARK VINA RESULT:      -7.6      2.645      3.932
REMARK  Name = 
REMARK  10 active torsions:
REMARK  status: ('A' for Active; 'I' for Inactive)
REMARK    1  A    between atoms: C_1  and  O_2
REMARK    2  A    between atoms: O_2  and  C_3
REMARK    3  A    between atoms: C_7  and  O_8
REMARK    4  A    between atoms: C_9  and  C_10
REMARK    5  A    between atoms: C_10  and  N_11
REMARK    6  A    between atoms: C_14  and  O_15
REMARK    7  A    between atoms: O_15  and  C_16
REMARK    8  A    between atoms: C_19  and  C_20
REMARK    9  A    between atoms: N_22  and  C_23
REMARK   10  A    between atoms: C_23  and  C_24
REMARK                            x       y       z     vdW  Elec       q    Type
REMARK                         _______ _______ _______ _____ _____    ______ ____
ROOT
ATOM      1  O   UNL     1       2.615   6.674  19.836  0.00  0.00    +0.000 OA
ENDROOT
BRANCH   1   5
ATOM      2  N   UNL     1       3.595   3.161  18.479  0.00  0.00    +0.000 NA
ATOM      3  C   UNL     1       3.305   3.325  19.897  0.00  0.00    +0.000 C 
ATOM      4  C   UNL     1       2.074   4.149  20.278  0.00  0.00    +0.000 C 
ATOM      5  C   UNL     1       1.886   5.459  19.509  0.00  0.00    +0.000 C 
ATOM      6  C   UNL     1       1.978   5.183  18.005  0.00  0.00    +0.000 C 
ATOM      7  C   UNL     1       2.944   4.083  17.543  0.00  0.00    +0.000 C 
BRANCH   2   8
ATOM      8  C   UNL     1       5.050   3.104  18.182  0.00  0.00    +0.000 C 
BRANCH   8  14
ATOM      9  C   UNL     1       6.249   4.419  16.334  0.00  0.00    +0.000 A 
ATOM     10  C   UNL     1       6.918   5.563  15.866  0.00  0.00    +0.000 A 
ATOM     11  C   UNL     1       7.177   6.626  16.728  0.00  0.00    +0.000 A 
ATOM     12  C   UNL     1       6.729   6.555  18.048  0.00  0.00    +0.000 A 
ATOM     13  C   UNL     1       6.026   5.432  18.488  0.00  0.00    +0.000 A 
ATOM     14  C   UNL     1       5.754   4.342  17.653  0.00  0.00    +0.000 A 
BRANCH   9  16
ATOM     15  C   UNL     1       6.228   3.863  14.074  0.00  0.00    +0.000 C 
ATOM     16  O   UNL     1       6.013   3.425  15.416  0.00  0.00    +0.000 OA
ENDBRANCH   9  16
BRANCH  13  17
ATOM     17  O   UNL     1       5.627   5.381  19.796  0.00  0.00    +0.000 OA
ATOM     18  H   UNL     1       6.400   5.598  20.342  0.00  0.00    +0.000 HD
ENDBRANCH  13  17
ENDBRANCH   8  14
ENDBRANCH   2   8
ENDBRANCH   1   5
BRANCH   1  19
ATOM     19  C   UNL     1       1.898   7.820  19.994  0.00  0.00    +0.000 A 
ATOM     20  C   UNL     1       1.783   8.660  18.903  0.00  0.00    +0.000 A 
ATOM     21  C   UNL     1       1.202   9.917  19.039  0.00  0.00    +0.000 A 
ATOM     22  C   UNL     1       0.640  10.325  20.253  0.00  0.00    +0.000 A 
ATOM     23  C   UNL     1       0.549   9.380  21.289  0.00  0.00    +0.000 A 
ATOM     24  C   UNL     1       1.186   8.125  21.156  0.00  0.00    +0.000 A 
BRANCH  22  25
ATOM     25  C   UNL     1       0.230  11.764  20.335  0.00  0.00    +0.000 C 
ATOM     26  O   UNL     1      -0.907  12.044  20.707  0.00  0.00    +0.000 OA
ATOM     27  N   UNL     1       1.107  12.738  19.908  0.00  0.00    +0.000 N 
ATOM     28  H   UNL     1       2.015  12.502  19.532  0.00  0.00    +0.000 HD
BRANCH  27  29
ATOM     29  C   UNL     1       0.680  14.124  19.794  0.00  0.00    +0.000 C 
BRANCH  29  30
ATOM     30  C   UNL     1       1.612  14.990  18.960  0.00  0.00    +0.000 A 
ATOM     31  C   UNL     1       2.727  14.424  18.330  0.00  0.00    +0.000 A 
ATOM     32  C   UNL     1       3.530  15.234  17.522  0.00  0.00    +0.000 A 
ATOM     33  C   UNL     1       3.198  16.571  17.363  0.00  0.00    +0.000 A 
ATOM     34  C   UNL     1       2.076  17.056  18.021  0.00  0.00    +0.000 A 
ATOM     35  N   UNL     1       1.289  16.298  18.820  0.00  0.00    +0.000 NA
ENDBRANCH  29  30
ENDBRANCH  27  29
ENDBRANCH  22  25
ENDBRANCH   1  19
TORSDOF 9
ENDMDL
MODEL 6
REMARK VINA RESULT:      -7.6      6.832     10.836
REMARK  Name = 
REMARK  10 active torsions:
REMARK  status: ('A' for Active; 'I' for Inactive)
REMARK    1  A    between atoms: C_1  and  O_2
REMARK    2  A    between atoms: O_2  and  C_3
REMARK    3  A    between atoms: C_7  and  O_8
REMARK    4  A    between atoms: C_9  and  C_10
REMARK    5  A    between atoms: C_10  and  N_11
REMARK    6  A    between atoms: C_14  and  O_15
REMARK    7  A    between atoms: O_15  and  C_16
REMARK    8  A    between atoms: C_19  and  C_20
REMARK    9  A    between atoms: N_22  and  C_23
REMARK   10  A    between atoms: C_23  and  C_24
REMARK                            x       y       z     vdW  Elec       q    Type
REMARK                         _______ _______ _______ _____ _____    ______ ____
ROOT
ATOM      1  O   UNL     1       8.042   9.726  18.027  0.00  0.00    +0.000 OA
ENDROOT
BRANCH   1   5
ATOM      2  N   UNL     1       9.952  13.037  18.754  0.00  0.00    +0.000 NA
ATOM      3  C   UNL     1       9.148  12.430  19.805  0.00  0.00    +0.000 C 
ATOM      4  C   UNL     1       9.271  10.920  20.009  0.00  0.00    +0.000 C 
ATOM      5  C   UNL     1       9.265  10.073  18.734  0.00  0.00    +0.000 C 
ATOM      6  C   UNL     1      10.298  10.629  17.750  0.00  0.00    +0.000 C 
ATOM      7  C   UNL     1      10.517  12.149  17.734  0.00  0.00    +0.000 C 
BRANCH   2   8
ATOM      8  C   UNL     1       9.280  14.184  18.090  0.00  0.00    +0.000 C 
BRANCH   8  14
ATOM      9  C   UNL     1       9.555  16.389  19.372  0.00  0.00    +0.000 A 
ATOM     10  C   UNL     1      10.074  17.689  19.498  0.00  0.00    +0.000 A 
ATOM     11  C   UNL     1      10.837  18.242  18.473  0.00  0.00    +0.000 A 
ATOM     12  C   UNL     1      11.110  17.475  17.339  0.00  0.00    +0.000 A 
ATOM     13  C   UNL     1      10.627  16.170  17.246  0.00  0.00    +0.000 A 
ATOM     14  C   UNL     1       9.852  15.583  18.253  0.00  0.00    +0.000 A 
BRANCH   9  16
ATOM     15  C   UNL     1       9.062  16.658  21.631  0.00  0.00    +0.000 C 
ATOM     16  O   UNL     1       8.834  15.908  20.437  0.00  0.00    +0.000 OA
ENDBRANCH   9  16
BRANCH  13  17
ATOM     17  O   UNL     1      10.887  15.455  16.108  0.00  0.00    +0.000 OA
ATOM     18  H   UNL     1      10.047  15.071  15.810  0.00  0.00    +0.000 HD
ENDBRANCH  13  17
ENDBRANCH   8  14
ENDBRANCH   2   8
ENDBRANCH   1   5
BRANCH   1  19
ATOM     19  C   UNL     1       7.684   8.414  17.986  0.00  0.00    +0.000 A 
ATOM     20  C   UNL     1       6.698   8.045  17.091  0.00  0.00    +0.000 A 
ATOM     21  C   UNL     1       6.175   6.756  17.109  0.00  0.00    +0.000 A 
ATOM     22  C   UNL     1       6.694   5.778  17.965  0.00  0.00    +0.000 A 
ATOM     23  C   UNL     1       7.849   6.091  18.700  0.00  0.00    +0.000 A 
ATOM     24  C   UNL     1       8.340   7.417  18.712  0.00  0.00    +0.000 A 
BRANCH  22  25
ATOM     25  C   UNL     1       5.923   4.496  18.039  0.00  0.00    +0.000 C 
ATOM     26  O   UNL     1       5.474   4.004  17.006  0.00  0.00    +0.000 OA
ATOM     27  N   UNL     1       5.659   3.941  19.273  0.00  0.00    +0.000 N 
ATOM     28  H   UNL     1       5.966   4.385  20.127  0.00  0.00    +0.000 HD
BRANCH  27  29
ATOM     29  C   UNL     1       4.759   2.805  19.400  0.00  0.00    +0.000 C 
BRANCH  29  30
ATOM     30  C   UNL     1       3.310   3.192  19.659  0.00  0.00    +0.000 A 
ATOM     31  C   UNL     1       3.002   4.191  20.590  0.00  0.00    +0.000 A 
ATOM     32  C   UNL     1       1.666   4.566  20.761  0.00  0.00    +0.000 A 
ATOM     33  C   UNL     1       0.687   3.942  20.003  0.00  0.00    +0.000 A 
ATOM     34  C   UNL     1       1.074   2.962  19.099  0.00  0.00    +0.000 A 
ATOM     35  N   UNL     1       2.358   2.570  18.923  0.00  0.00    +0.000 NA
ENDBRANCH  29  30
ENDBRANCH  27  29
ENDBRANCH  22  25
ENDBRANCH   1  19
TORSDOF 9
ENDMDL
MODEL 7
REMARK VINA RESULT:      -7.5      2.503     11.481
REMARK  Name = 
REMARK  10 active torsions:
REMARK  status: ('A' for Active; 'I' for Inactive)
REMARK    1  A    between atoms: C_1  and  O_2
REMARK    2  A    between atoms: O_2  and  C_3
REMARK    3  A    between atoms: C_7  and  O_8
REMARK    4  A    between atoms: C_9  and  C_10
REMARK    5  A    between atoms: C_10  and  N_11
REMARK    6  A    between atoms: C_14  and  O_15
REMARK    7  A    between atoms: O_15  and  C_16
REMARK    8  A    between atoms: C_19  and  C_20
REMARK    9  A    between atoms: N_22  and  C_23
REMARK   10  A    between atoms: C_23  and  C_24
REMARK                            x       y       z     vdW  Elec       q    Type
REMARK                         _______ _______ _______ _____ _____    ______ ____
ROOT
ATOM      1  O   UNL     1      -0.085  10.659  18.682  0.00  0.00    +0.000 OA
ENDROOT
BRANCH   1   5
ATOM      2  N   UNL     1      -0.024  13.385  21.458  0.00  0.00    +0.000 NA
ATOM      3  C   UNL     1       1.171  12.589  21.211  0.00  0.00    +0.000 C 
ATOM      4  C   UNL     1       1.586  12.367  19.756  0.00  0.00    +0.000 C 
ATOM      5  C   UNL     1       0.456  12.004  18.789  0.00  0.00    +0.000 C 
ATOM      6  C   UNL     1      -0.684  13.016  18.938  0.00  0.00    +0.000 C 
ATOM      7  C   UNL     1      -0.945  13.593  20.336  0.00  0.00    +0.000 C 
BRANCH   2   8
ATOM      8  C   UNL     1      -0.792  12.935  22.649  0.00  0.00    +0.000 C 
BRANCH   8  14
ATOM      9  C   UNL     1      -2.794  13.783  24.009  0.00  0.00    +0.000 A 
ATOM     10  C   UNL     1      -3.427  14.756  24.802  0.00  0.00    +0.000 A 
ATOM     11  C   UNL     1      -2.793  15.968  25.064  0.00  0.00    +0.000 A 
ATOM     12  C   UNL     1      -1.509  16.185  24.563  0.00  0.00    +0.000 A 
ATOM     13  C   UNL     1      -0.873  15.194  23.816  0.00  0.00    +0.000 A 
ATOM     14  C   UNL     1      -1.482  13.966  23.526  0.00  0.00    +0.000 A 
BRANCH   9  16
ATOM     15  C   UNL     1      -4.587  12.471  24.704  0.00  0.00    +0.000 C 
ATOM     16  O   UNL     1      -3.476  12.607  23.817  0.00  0.00    +0.000 OA
ENDBRANCH   9  16
BRANCH  13  17
ATOM     17  O   UNL     1       0.374  15.450  23.313  0.00  0.00    +0.000 OA
ATOM     18  H   UNL     1       0.621  16.344  23.599  0.00  0.00    +0.000 HD
ENDBRANCH  13  17
ENDBRANCH   8  14
ENDBRANCH   2   8
ENDBRANCH   1   5
BRANCH   1  19
ATOM     19  C   UNL     1       0.767   9.616  18.878  0.00  0.00    +0.000 A 
ATOM     20  C   UNL     1       1.544   9.212  17.810  0.00  0.00    +0.000 A 
ATOM     21  C   UNL     1       2.315   8.058  17.894  0.00  0.00    +0.000 A 
ATOM     22  C   UNL     1       2.396   7.330  19.086  0.00  0.00    +0.000 A 
ATOM     23  C   UNL     1       1.795   7.873  20.234  0.00  0.00    +0.000 A 
ATOM     24  C   UNL     1       0.973   9.019  20.124  0.00  0.00    +0.000 A 
BRANCH  22  25
ATOM     25  C   UNL     1       3.089   6.005  18.999  0.00  0.00    +0.000 C 
ATOM     26  O   UNL     1       3.884   5.682  19.880  0.00  0.00    +0.000 OA
ATOM     27  N   UNL     1       2.888   5.213  17.888  0.00  0.00    +0.000 N 
ATOM     28  H   UNL     1       2.292   5.511  17.129  0.00  0.00    +0.000 HD
BRANCH  27  29
ATOM     29  C   UNL     1       3.682   4.012  17.677  0.00  0.00    +0.000 C 
BRANCH  29  30
ATOM     30  C   UNL     1       4.972   4.253  16.908  0.00  0.00    +0.000 A 
ATOM     31  C   UNL     1       4.948   4.396  15.516  0.00  0.00    +0.000 A 
ATOM     32  C   UNL     1       6.141   4.676  14.844  0.00  0.00    +0.000 A 
ATOM     33  C   UNL     1       7.312   4.809  15.574  0.00  0.00    +0.000 A 
ATOM     34  C   UNL     1       7.253   4.654  16.952  0.00  0.00    +0.000 A 
ATOM     35  N   UNL     1       6.114   4.369  17.627  0.00  0.00    +0.000 NA
ENDBRANCH  29  30
ENDBRANCH  27  29
ENDBRANCH  22  25
ENDBRANCH   1  19
TORSDOF 9
ENDMDL
MODEL 8
REMARK VINA RESULT:      -7.5      1.331      1.530
REMARK  Name = 
REMARK  10 active torsions:
REMARK  status: ('A' for Active; 'I' for Inactive)
REMARK    1  A    between atoms: C_1  and  O_2
REMARK    2  A    between atoms: O_2  and  C_3
REMARK    3  A    between atoms: C_7  and  O_8
REMARK    4  A    between atoms: C_9  and  C_10
REMARK    5  A    between atoms: C_10  and  N_11
REMARK    6  A    between atoms: C_14  and  O_15
REMARK    7  A    between atoms: O_15  and  C_16
REMARK    8  A    between atoms: C_19  and  C_20
REMARK    9  A    between atoms: N_22  and  C_23
REMARK   10  A    between atoms: C_23  and  C_24
REMARK                            x       y       z     vdW  Elec       q    Type
REMARK                         _______ _______ _______ _____ _____    ______ ____
ROOT
ATOM      1  O   UNL     1       2.593   5.939  19.929  0.00  0.00    +0.000 OA
ENDROOT
BRANCH   1   5
ATOM      2  N   UNL     1       3.317   2.673  17.941  0.00  0.00    +0.000 NA
ATOM      3  C   UNL     1       3.100   2.601  19.379  0.00  0.00    +0.000 C 
ATOM      4  C   UNL     1       1.935   3.403  19.960  0.00  0.00    +0.000 C 
ATOM      5  C   UNL     1       1.785   4.834  19.438  0.00  0.00    +0.000 C 
ATOM      6  C   UNL     1       1.794   4.819  17.907  0.00  0.00    +0.000 C 
ATOM      7  C   UNL     1       2.677   3.773  17.212  0.00  0.00    +0.000 C 
BRANCH   2   8
ATOM      8  C   UNL     1       4.753   2.601  17.561  0.00  0.00    +0.000 C 
BRANCH   8  14
ATOM      9  C   UNL     1       6.077   4.223  16.080  0.00  0.00    +0.000 A 
ATOM     10  C   UNL     1       6.815   5.405  15.893  0.00  0.00    +0.000 A 
ATOM     11  C   UNL     1       7.091   6.238  16.975  0.00  0.00    +0.000 A 
ATOM     12  C   UNL     1       6.593   5.902  18.235  0.00  0.00    +0.000 A 
ATOM     13  C   UNL     1       5.824   4.750  18.399  0.00  0.00    +0.000 A 
ATOM     14  C   UNL     1       5.532   3.886  17.336  0.00  0.00    +0.000 A 
BRANCH   9  16
ATOM     15  C   UNL     1       6.358   4.066  13.775  0.00  0.00    +0.000 C 
ATOM     16  O   UNL     1       5.828   3.470  14.960  0.00  0.00    +0.000 OA
ENDBRANCH   9  16
BRANCH  13  17
ATOM     17  O   UNL     1       5.376   4.434  19.653  0.00  0.00    +0.000 OA
ATOM     18  H   UNL     1       6.008   4.808  20.287  0.00  0.00    +0.000 HD
ENDBRANCH  13  17
ENDBRANCH   8  14
ENDBRANCH   2   8
ENDBRANCH   1   5
BRANCH   1  19
ATOM     19  C   UNL     1       2.151   7.203  19.689  0.00  0.00    +0.000 A 
ATOM     20  C   UNL     1       1.536   7.875  20.728  0.00  0.00    +0.000 A 
ATOM     21  C   UNL     1       0.921   9.104  20.508  0.00  0.00    +0.000 A 
ATOM     22  C   UNL     1       0.988   9.731  19.259  0.00  0.00    +0.000 A 
ATOM     23  C   UNL     1       1.812   9.158  18.276  0.00  0.00    +0.000 A 
ATOM     24  C   UNL     1       2.390   7.886  18.494  0.00  0.00    +0.000 A 
BRANCH  22  25
ATOM     25  C   UNL     1       0.124  10.942  19.087  0.00  0.00    +0.000 C 
ATOM     26  O   UNL     1       0.621  11.978  18.650  0.00  0.00    +0.000 OA
ATOM     27  N   UNL     1      -1.189  10.896  19.504  0.00  0.00    +0.000 N 
ATOM     28  H   UNL     1      -1.578  10.067  19.931  0.00  0.00    +0.000 HD
BRANCH  27  29
ATOM     29  C   UNL     1      -2.005  12.100  19.528  0.00  0.00    +0.000 C 
BRANCH  29  30
ATOM     30  C   UNL     1      -1.892  12.896  20.820  0.00  0.00    +0.000 A 
ATOM     31  C   UNL     1      -1.930  12.243  22.057  0.00  0.00    +0.000 A 
ATOM     32  C   UNL     1      -1.763  12.994  23.224  0.00  0.00    +0.000 A 
ATOM     33  C   UNL     1      -1.561  14.362  23.123  0.00  0.00    +0.000 A 
ATOM     34  C   UNL     1      -1.536  14.935  21.859  0.00  0.00    +0.000 A 
ATOM     35  N   UNL     1      -1.708  14.234  20.714  0.00  0.00    +0.000 NA
ENDBRANCH  29  30
ENDBRANCH  27  29
ENDBRANCH  22  25
ENDBRANCH   1  19
TORSDOF 9
ENDMDL
MODEL 9
REMARK VINA RESULT:      -7.5      1.416      1.813
REMARK  Name = 
REMARK  10 active torsions:
REMARK  status: ('A' for Active; 'I' for Inactive)
REMARK    1  A    between atoms: C_1  and  O_2
REMARK    2  A    between atoms: O_2  and  C_3
REMARK    3  A    between atoms: C_7  and  O_8
REMARK    4  A    between atoms: C_9  and  C_10
REMARK    5  A    between atoms: C_10  and  N_11
REMARK    6  A    between atoms: C_14  and  O_15
REMARK    7  A    between atoms: O_15  and  C_16
REMARK    8  A    between atoms: C_19  and  C_20
REMARK    9  A    between atoms: N_22  and  C_23
REMARK   10  A    between atoms: C_23  and  C_24
REMARK                            x       y       z     vdW  Elec       q    Type
REMARK                         _______ _______ _______ _____ _____    ______ ____
ROOT
ATOM      1  O   UNL     1       2.372   5.031  20.457  0.00  0.00    +0.000 OA
ENDROOT
BRANCH   1   5
ATOM      2  N   UNL     1       3.100   2.455  17.632  0.00  0.00    +0.000 NA
ATOM      3  C   UNL     1       3.036   2.001  19.015  0.00  0.00    +0.000 C 
ATOM      4  C   UNL     1       1.887   2.522  19.879  0.00  0.00    +0.000 C 
ATOM      5  C   UNL     1       1.591   4.019  19.762  0.00  0.00    +0.000 C 
ATOM      6  C   UNL     1       1.445   4.394  18.285  0.00  0.00    +0.000 C 
ATOM      7  C   UNL     1       2.319   3.642  17.271  0.00  0.00    +0.000 C 
BRANCH   2   8
ATOM      8  C   UNL     1       4.491   2.610  17.131  0.00  0.00    +0.000 C 
BRANCH   8  14
ATOM      9  C   UNL     1       5.487   4.652  15.940  0.00  0.00    +0.000 A 
ATOM     10  C   UNL     1       6.104   5.914  15.957  0.00  0.00    +0.000 A 
ATOM     11  C   UNL     1       6.457   6.505  17.168  0.00  0.00    +0.000 A 
ATOM     12  C   UNL     1       6.155   5.845  18.360  0.00  0.00    +0.000 A 
ATOM     13  C   UNL     1       5.501   4.612  18.330  0.00  0.00    +0.000 A 
ATOM     14  C   UNL     1       5.137   3.986  17.132  0.00  0.00    +0.000 A 
BRANCH   9  16
ATOM     15  C   UNL     1       6.281   4.008  13.848  0.00  0.00    +0.000 C 
ATOM     16  O   UNL     1       5.149   4.150  14.707  0.00  0.00    +0.000 OA
ENDBRANCH   9  16
BRANCH  13  17
ATOM     17  O   UNL     1       5.246   3.977  19.515  0.00  0.00    +0.000 OA
ATOM     18  H   UNL     1       5.466   3.040  19.392  0.00  0.00    +0.000 HD
ENDBRANCH  13  17
ENDBRANCH   8  14
ENDBRANCH   2   8
ENDBRANCH   1   5
BRANCH   1  19
ATOM     19  C   UNL     1       2.117   6.336  20.170  0.00  0.00    +0.000 A 
ATOM     20  C   UNL     1       1.489   7.096  21.137  0.00  0.00    +0.000 A 
ATOM     21  C   UNL     1       1.058   8.387  20.851  0.00  0.00    +0.000 A 
ATOM     22  C   UNL     1       1.330   8.981  19.614  0.00  0.00    +0.000 A 
ATOM     23  C   UNL     1       2.171   8.295  18.723  0.00  0.00    +0.000 A 
ATOM     24  C   UNL     1       2.561   6.964  19.003  0.00  0.00    +0.000 A 
BRANCH  22  25
ATOM     25  C   UNL     1       0.646  10.287  19.350  0.00  0.00    +0.000 C 
ATOM     26  O   UNL     1       1.271  11.193  18.802  0.00  0.00    +0.000 OA
ATOM     27  N   UNL     1      -0.642  10.475  19.804  0.00  0.00    +0.000 N 
ATOM     28  H   UNL     1      -1.130   9.756  20.319  0.00  0.00    +0.000 HD
BRANCH  27  29
ATOM     29  C   UNL     1      -1.271  11.786  19.735  0.00  0.00    +0.000 C 
BRANCH  29  30
ATOM     30  C   UNL     1      -1.208  12.570  21.037  0.00  0.00    +0.000 A 
ATOM     31  C   UNL     1      -0.357  13.674  21.157  0.00  0.00    +0.000 A 
ATOM     32  C   UNL     1      -0.366  14.409  22.345  0.00  0.00    +0.000 A 
ATOM     33  C   UNL     1      -1.220  14.028  23.369  0.00  0.00    +0.000 A 
ATOM     34  C   UNL     1      -2.035  12.922  23.172  0.00  0.00    +0.000 A 
ATOM     35  N   UNL     1      -2.037  12.183  22.037  0.00  0.00    +0.000 NA
ENDBRANCH  29  30
ENDBRANCH  27  29
ENDBRANCH  22  25
ENDBRANCH   1  19
TORSDOF 9
ENDMDL
