MODEL 1
REMARK VINA RESULT:      -8.6      0.000      0.000
REMARK  Name = 
REMARK  11 active torsions:
REMARK  status: ('A' for Active; 'I' for Inactive)
REMARK    1  A    between atoms: C_1  and  C_2
REMARK    2  A    between atoms: C_2  and  C_3
REMARK    3  A    between atoms: C_3  and  C_4
REMARK    4  A    between atoms: C_6  and  C_7
REMARK    5  A    between atoms: C_7  and  C_8
REMARK    6  A    between atoms: C_8  and  C_9
REMARK    7  A    between atoms: C_11  and  O_12
REMARK    8  A    between atoms: O_12  and  C_13
REMARK    9  A    between atoms: C_17  and  C_18
REMARK   10  A    between atoms: C_19  and  C_20
REMARK   11  A    between atoms: N_23  and  C_24
REMARK                            x       y       z     vdW  Elec       q    Type
REMARK                         _______ _______ _______ _____ _____    ______ ____
ROOT
ATOM      1  C   UNL     1       1.770   8.462  18.910  0.00  0.00    +0.000 A 
ATOM      2  C   UNL     1       1.392   8.362  20.240  0.00  0.00    +0.000 A 
ATOM      3  C   UNL     1       1.739   7.211  20.927  0.00  0.00    +0.000 A 
ATOM      4  C   UNL     1       2.422   6.205  20.250  0.00  0.00    +0.000 A 
ATOM      5  C   UNL     1       2.655   6.331  18.881  0.00  0.00    +0.000 A 
ATOM      6  N   UNL     1       2.379   7.468  18.210  0.00  0.00    +0.000 NA
ENDROOT
BRANCH   5   7
ATOM      7  C   UNL     1       3.045   5.179  18.068  0.00  0.00    +0.000 A 
ATOM      8  C   UNL     1       2.401   3.949  17.918  0.00  0.00    +0.000 A 
ATOM      9  C   UNL     1       1.183   3.381  18.536  0.00  0.00    +0.000 C 
ATOM     10  N   UNL     1       3.037   3.195  16.979  0.00  0.00    +0.000 NA
ATOM     11  N   UNL     1       4.035   3.904  16.502  0.00  0.00    +0.000 NA
ATOM     12  N   UNL     1       4.103   5.075  17.175  0.00  0.00    +0.000 N 
BRANCH  12  13
ATOM     13  C   UNL     1       5.172   6.006  16.805  0.00  0.00    +0.000 C 
ATOM     14  C   UNL     1       5.890   5.618  15.482  0.00  0.00    +0.000 C 
ATOM     15  C   UNL     1       6.770   4.373  15.661  0.00  0.00    +0.000 C 
ATOM     16  N   UNL     1       7.747   4.533  16.739  0.00  0.00    +0.000 NA
ATOM     17  C   UNL     1       7.125   4.930  18.000  0.00  0.00    +0.000 C 
ATOM     18  C   UNL     1       6.273   6.186  17.858  0.00  0.00    +0.000 C 
ATOM     19  H   UNL     1       8.445   5.221  16.463  0.00  0.00    +0.000 HD
ENDBRANCH  12  13
ENDBRANCH   5   7
BRANCH   1  20
ATOM     20  O   UNL     1       1.541   9.699  18.317  0.00  0.00    +0.000 OA
BRANCH  20  25
ATOM     21  C   UNL     1      -1.976  10.674  18.023  0.00  0.00    +0.000 A 
ATOM     22  C   UNL     1      -2.048  11.668  19.012  0.00  0.00    +0.000 A 
ATOM     23  C   UNL     1      -0.931  12.017  19.787  0.00  0.00    +0.000 A 
ATOM     24  C   UNL     1       0.279  11.370  19.549  0.00  0.00    +0.000 A 
ATOM     25  C   UNL     1       0.360  10.344  18.606  0.00  0.00    +0.000 A 
ATOM     26  C   UNL     1      -0.754  10.012  17.829  0.00  0.00    +0.000 A 
BRANCH  21  27
ATOM     27  C   UNL     1      -3.166  10.383  17.145  0.00  0.00    +0.000 C 
BRANCH  27  29
ATOM     28  C   UNL     1      -3.286  10.315  14.597  0.00  0.00    +0.000 C 
ATOM     29  C   UNL     1      -2.875   9.588  15.869  0.00  0.00    +0.000 C 
ENDBRANCH  27  29
ENDBRANCH  21  27
BRANCH  23  30
ATOM     30  C   UNL     1      -0.987  13.100  20.834  0.00  0.00    +0.000 C 
BRANCH  30  31
ATOM     31  C   UNL     1      -1.891  12.793  22.030  0.00  0.00    +0.000 C 
ATOM     32  C   UNL     1      -1.420  11.598  22.845  0.00  0.00    +0.000 C 
ENDBRANCH  30  31
ENDBRANCH  23  30
ENDBRANCH  20  25
ENDBRANCH   1  20
TORSDOF 8
ENDMDL
MODEL 2
REMARK VINA RESULT:      -8.5      0.306      3.228
REMARK  Name = 
REMARK  11 active torsions:
REMARK  status: ('A' for Active; 'I' for Inactive)
REMARK    1  A    between atoms: C_1  and  C_2
REMARK    2  A    between atoms: C_2  and  C_3
REMARK    3  A    between atoms: C_3  and  C_4
REMARK    4  A    between atoms: C_6  and  C_7
REMARK    5  A    between atoms: C_7  and  C_8
REMARK    6  A    between atoms: C_8  and  C_9
REMARK    7  A    between atoms: C_11  and  O_12
REMARK    8  A    between atoms: O_12  and  C_13
REMARK    9  A    between atoms: C_17  and  C_18
REMARK   10  A    between atoms: C_19  and  C_20
REMARK   11  A    between atoms: N_23  and  C_24
REMARK                            x       y       z     vdW  Elec       q    Type
REMARK                         _______ _______ _______ _____ _____    ______ ____
ROOT
ATOM      1  C   UNL     1       1.846   8.382  19.085  0.00  0.00    +0.000 A 
ATOM      2  C   UNL     1       1.371   8.230  20.379  0.00  0.00    +0.000 A 
ATOM      3  C   UNL     1       1.612   7.026  21.018  0.00  0.00    +0.000 A 
ATOM      4  C   UNL     1       2.290   6.024  20.332  0.00  0.00    +0.000 A 
ATOM      5  C   UNL     1       2.626   6.213  18.991  0.00  0.00    +0.000 A 
ATOM      6  N   UNL     1       2.454   7.397  18.371  0.00  0.00    +0.000 NA
ENDROOT
BRANCH   5   7
ATOM      7  C   UNL     1       3.015   5.087  18.141  0.00  0.00    +0.000 A 
ATOM      8  C   UNL     1       2.377   3.858  17.961  0.00  0.00    +0.000 A 
ATOM      9  C   UNL     1       1.169   3.264  18.574  0.00  0.00    +0.000 C 
ATOM     10  N   UNL     1       3.008   3.137  16.994  0.00  0.00    +0.000 NA
ATOM     11  N   UNL     1       3.997   3.866  16.528  0.00  0.00    +0.000 NA
ATOM     12  N   UNL     1       4.064   5.017  17.235  0.00  0.00    +0.000 N 
BRANCH  12  13
ATOM     13  C   UNL     1       5.123   5.966  16.882  0.00  0.00    +0.000 C 
ATOM     14  C   UNL     1       5.814   5.636  15.530  0.00  0.00    +0.000 C 
ATOM     15  C   UNL     1       6.700   4.387  15.637  0.00  0.00    +0.000 C 
ATOM     16  N   UNL     1       7.699   4.505  16.701  0.00  0.00    +0.000 NA
ATOM     17  C   UNL     1       7.103   4.847  17.990  0.00  0.00    +0.000 C 
ATOM     18  C   UNL     1       6.246   6.105  17.919  0.00  0.00    +0.000 C 
ATOM     19  H   UNL     1       8.390   5.206  16.439  0.00  0.00    +0.000 HD
ENDBRANCH  12  13
ENDBRANCH   5   7
BRANCH   1  20
ATOM     20  O   UNL     1       1.720   9.660  18.551  0.00  0.00    +0.000 OA
BRANCH  20  25
ATOM     21  C   UNL     1      -0.980  11.809  19.774  0.00  0.00    +0.000 A 
ATOM     22  C   UNL     1      -2.010  11.452  18.890  0.00  0.00    +0.000 A 
ATOM     23  C   UNL     1      -1.814  10.499  17.878  0.00  0.00    +0.000 A 
ATOM     24  C   UNL     1      -0.569   9.884  17.768  0.00  0.00    +0.000 A 
ATOM     25  C   UNL     1       0.484  10.262  18.603  0.00  0.00    +0.000 A 
ATOM     26  C   UNL     1       0.275  11.202  19.618  0.00  0.00    +0.000 A 
BRANCH  21  27
ATOM     27  C   UNL     1      -1.245  12.767  20.907  0.00  0.00    +0.000 C 
BRANCH  27  29
ATOM     28  C   UNL     1      -1.266  11.253  22.961  0.00  0.00    +0.000 C 
ATOM     29  C   UNL     1      -2.057  12.207  22.078  0.00  0.00    +0.000 C 
ENDBRANCH  27  29
ENDBRANCH  21  27
BRANCH  23  30
ATOM     30  C   UNL     1      -2.919  10.086  16.939  0.00  0.00    +0.000 C 
BRANCH  30  31
ATOM     31  C   UNL     1      -2.663  10.409  15.465  0.00  0.00    +0.000 C 
ATOM     32  C   UNL     1      -3.836  10.057  14.563  0.00  0.00    +0.000 C 
ENDBRANCH  30  31
ENDBRANCH  23  30
ENDBRANCH  20  25
ENDBRANCH   1  20
TORSDOF 8
ENDMDL
MODEL 3
REMARK VINA RESULT:      -8.5      0.971      1.361
REMARK  Name = 
REMARK  11 active torsions:
REMARK  status: ('A' for Active; 'I' for Inactive)
REMARK    1  A    between atoms: C_1  and  C_2
REMARK    2  A    between atoms: C_2  and  C_3
REMARK    3  A    between atoms: C_3  and  C_4
REMARK    4  A    between atoms: C_6  and  C_7
REMARK    5  A    between atoms: C_7  and  C_8
REMARK    6  A    between atoms: C_8  and  C_9
REMARK    7  A    between atoms: C_11  and  O_12
REMARK    8  A    between atoms: O_12  and  C_13
REMARK    9  A    between atoms: C_17  and  C_18
REMARK   10  A    between atoms: C_19  and  C_20
REMARK   11  A    between atoms: N_23  and  C_24
REMARK                            x       y       z     vdW  Elec       q    Type
REMARK                         _______ _______ _______ _____ _____    ______ ____
ROOT
ATOM      1  C   UNL     1       1.815   8.598  18.744  0.00  0.00    +0.000 A 
ATOM      2  C   UNL     1       1.388   8.567  20.062  0.00  0.00    +0.000 A 
ATOM      3  C   UNL     1       1.683   7.440  20.811  0.00  0.00    +0.000 A 
ATOM      4  C   UNL     1       2.364   6.390  20.205  0.00  0.00    +0.000 A 
ATOM      5  C   UNL     1       2.649   6.449  18.841  0.00  0.00    +0.000 A 
ATOM      6  N   UNL     1       2.424   7.560  18.111  0.00  0.00    +0.000 NA
ENDROOT
BRANCH   5   7
ATOM      7  C   UNL     1       3.039   5.252  18.095  0.00  0.00    +0.000 A 
ATOM      8  C   UNL     1       2.394   4.016  18.014  0.00  0.00    +0.000 A 
ATOM      9  C   UNL     1       1.176   3.484  18.663  0.00  0.00    +0.000 C 
ATOM     10  N   UNL     1       3.030   3.210  17.120  0.00  0.00    +0.000 NA
ATOM     11  N   UNL     1       4.029   3.891  16.603  0.00  0.00    +0.000 NA
ATOM     12  N   UNL     1       4.096   5.098  17.209  0.00  0.00    +0.000 N 
BRANCH  12  13
ATOM     13  C   UNL     1       5.166   6.007  16.787  0.00  0.00    +0.000 C 
ATOM     14  C   UNL     1       5.862   5.562  15.471  0.00  0.00    +0.000 C 
ATOM     15  C   UNL     1       6.736   4.319  15.685  0.00  0.00    +0.000 C 
ATOM     16  N   UNL     1       7.730   4.515  16.742  0.00  0.00    +0.000 NA
ATOM     17  C   UNL     1       7.129   4.966  17.995  0.00  0.00    +0.000 C 
ATOM     18  C   UNL     1       6.283   6.221  17.816  0.00  0.00    +0.000 C 
ATOM     19  H   UNL     1       8.428   5.187  16.429  0.00  0.00    +0.000 HD
ENDBRANCH  12  13
ENDBRANCH   5   7
BRANCH   1  20
ATOM     20  O   UNL     1       1.637   9.812  18.088  0.00  0.00    +0.000 OA
BRANCH  20  25
ATOM     21  C   UNL     1      -1.946  10.537  17.881  0.00  0.00    +0.000 A 
ATOM     22  C   UNL     1      -1.987  11.795  18.502  0.00  0.00    +0.000 A 
ATOM     23  C   UNL     1      -0.827  12.410  18.998  0.00  0.00    +0.000 A 
ATOM     24  C   UNL     1       0.394  11.755  18.850  0.00  0.00    +0.000 A 
ATOM     25  C   UNL     1       0.451  10.482  18.283  0.00  0.00    +0.000 A 
ATOM     26  C   UNL     1      -0.708   9.883  17.778  0.00  0.00    +0.000 A 
BRANCH  21  27
ATOM     27  C   UNL     1      -3.192   9.942  17.277  0.00  0.00    +0.000 C 
BRANCH  27  29
ATOM     28  C   UNL     1      -2.962  10.169  14.746  0.00  0.00    +0.000 C 
ATOM     29  C   UNL     1      -3.700  10.616  16.000  0.00  0.00    +0.000 C 
ENDBRANCH  27  29
ENDBRANCH  21  27
BRANCH  23  30
ATOM     30  C   UNL     1      -0.853  13.772  19.642  0.00  0.00    +0.000 C 
BRANCH  30  31
ATOM     31  C   UNL     1      -0.204  14.887  18.818  0.00  0.00    +0.000 C 
ATOM     32  C   UNL     1      -0.028  16.182  19.595  0.00  0.00    +0.000 C 
ENDBRANCH  30  31
ENDBRANCH  23  30
ENDBRANCH  20  25
ENDBRANCH   1  20
TORSDOF 8
ENDMDL
MODEL 4
REMARK VINA RESULT:      -8.4      0.686      3.085
REMARK  Name = 
REMARK  11 active torsions:
REMARK  status: ('A' for Active; 'I' for Inactive)
REMARK    1  A    between atoms: C_1  and  C_2
REMARK    2  A    between atoms: C_2  and  C_3
REMARK    3  A    between atoms: C_3  and  C_4
REMARK    4  A    between atoms: C_6  and  C_7
REMARK    5  A    between atoms: C_7  and  C_8
REMARK    6  A    between atoms: C_8  and  C_9
REMARK    7  A    between atoms: C_11  and  O_12
REMARK    8  A    between atoms: O_12  and  C_13
REMARK    9  A    between atoms: C_17  and  C_18
REMARK   10  A    between atoms: C_19  and  C_20
REMARK   11  A    between atoms: N_23  and  C_24
REMARK                            x       y       z     vdW  Elec       q    Type
REMARK                         _______ _______ _______ _____ _____    ______ ____
ROOT
ATOM      1  C   UNL     1       1.824   8.532  18.890  0.00  0.00    +0.000 A 
ATOM      2  C   UNL     1       1.392   8.438  20.204  0.00  0.00    +0.000 A 
ATOM      3  C   UNL     1       1.675   7.272  20.896  0.00  0.00    +0.000 A 
ATOM      4  C   UNL     1       2.352   6.249  20.240  0.00  0.00    +0.000 A 
ATOM      5  C   UNL     1       2.643   6.375  18.881  0.00  0.00    +0.000 A 
ATOM      6  N   UNL     1       2.429   7.523  18.208  0.00  0.00    +0.000 NA
ENDROOT
BRANCH   5   7
ATOM      7  C   UNL     1       3.028   5.215  18.077  0.00  0.00    +0.000 A 
ATOM      8  C   UNL     1       2.373   3.990  17.928  0.00  0.00    +0.000 A 
ATOM      9  C   UNL     1       1.145   3.437  18.540  0.00  0.00    +0.000 C 
ATOM     10  N   UNL     1       3.008   3.226  16.998  0.00  0.00    +0.000 NA
ATOM     11  N   UNL     1       4.017   3.923  16.525  0.00  0.00    +0.000 NA
ATOM     12  N   UNL     1       4.092   5.097  17.193  0.00  0.00    +0.000 N 
BRANCH  12  13
ATOM     13  C   UNL     1       5.172   6.015  16.827  0.00  0.00    +0.000 C 
ATOM     14  C   UNL     1       5.905   5.607  15.519  0.00  0.00    +0.000 C 
ATOM     15  C   UNL     1       6.773   4.358  15.723  0.00  0.00    +0.000 C 
ATOM     16  N   UNL     1       7.737   4.523  16.813  0.00  0.00    +0.000 NA
ATOM     17  C   UNL     1       7.101   4.939  18.060  0.00  0.00    +0.000 C 
ATOM     18  C   UNL     1       6.261   6.200  17.893  0.00  0.00    +0.000 C 
ATOM     19  H   UNL     1       8.444   5.203  16.538  0.00  0.00    +0.000 HD
ENDBRANCH  12  13
ENDBRANCH   5   7
BRANCH   1  20
ATOM     20  O   UNL     1       1.658   9.779  18.296  0.00  0.00    +0.000 OA
BRANCH  20  25
ATOM     21  C   UNL     1      -0.974  12.061  19.423  0.00  0.00    +0.000 A 
ATOM     22  C   UNL     1      -2.070  11.560  18.704  0.00  0.00    +0.000 A 
ATOM     23  C   UNL     1      -1.943  10.465  17.836  0.00  0.00    +0.000 A 
ATOM     24  C   UNL     1      -0.697   9.854  17.706  0.00  0.00    +0.000 A 
ATOM     25  C   UNL     1       0.416  10.368  18.371  0.00  0.00    +0.000 A 
ATOM     26  C   UNL     1       0.277  11.451  19.245  0.00  0.00    +0.000 A 
BRANCH  21  27
ATOM     27  C   UNL     1      -1.159  13.181  20.416  0.00  0.00    +0.000 C 
BRANCH  27  29
ATOM     28  C   UNL     1      -0.232  15.029  18.921  0.00  0.00    +0.000 C 
ATOM     29  C   UNL     1      -0.185  14.355  20.284  0.00  0.00    +0.000 C 
ENDBRANCH  27  29
ENDBRANCH  21  27
BRANCH  23  30
ATOM     30  C   UNL     1      -3.117   9.899  17.078  0.00  0.00    +0.000 C 
BRANCH  30  31
ATOM     31  C   UNL     1      -3.523  10.694  15.835  0.00  0.00    +0.000 C 
ATOM     32  C   UNL     1      -3.085  10.038  14.535  0.00  0.00    +0.000 C 
ENDBRANCH  30  31
ENDBRANCH  23  30
ENDBRANCH  20  25
ENDBRANCH   1  20
TORSDOF 8
ENDMDL
MODEL 5
REMARK VINA RESULT:      -8.4      2.807      8.775
REMARK  Name = 
REMARK  11 active torsions:
REMARK  status: ('A' for Active; 'I' for Inactive)
REMARK    1  A    between atoms: C_1  and  C_2
REMARK    2  A    between atoms: C_2  and  C_3
REMARK    3  A    between atoms: C_3  and  C_4
REMARK    4  A    between atoms: C_6  and  C_7
REMARK    5  A    between atoms: C_7  and  C_8
REMARK    6  A    between atoms: C_8  and  C_9
REMARK    7  A    between atoms: C_11  and  O_12
REMARK    8  A    between atoms: O_12  and  C_13
REMARK    9  A    between atoms: C_17  and  C_18
REMARK   10  A    between atoms: C_19  and  C_20
REMARK   11  A    between atoms: N_23  and  C_24
REMARK                            x       y       z     vdW  Elec       q    Type
REMARK                         _______ _______ _______ _____ _____    ______ ____
ROOT
ATOM      1  C   UNL     1       2.200   8.264  18.566  0.00  0.00    +0.000 A 
ATOM      2  C   UNL     1       2.300   7.691  19.824  0.00  0.00    +0.000 A 
ATOM      3  C   UNL     1       1.390   8.089  20.790  0.00  0.00    +0.000 A 
ATOM      4  C   UNL     1       0.443   9.055  20.463  0.00  0.00    +0.000 A 
ATOM      5  C   UNL     1       0.490   9.670  19.213  0.00  0.00    +0.000 A 
ATOM      6  N   UNL     1       1.327   9.255  18.242  0.00  0.00    +0.000 NA
ENDROOT
BRANCH   5   7
ATOM      7  C   UNL     1      -0.241  10.910  18.951  0.00  0.00    +0.000 A 
ATOM      8  C   UNL     1       0.176  12.232  19.123  0.00  0.00    +0.000 A 
ATOM      9  C   UNL     1       1.425  12.820  19.655  0.00  0.00    +0.000 C 
ATOM     10  N   UNL     1      -0.769  13.090  18.652  0.00  0.00    +0.000 NA
ATOM     11  N   UNL     1      -1.754  12.374  18.156  0.00  0.00    +0.000 NA
ATOM     12  N   UNL     1      -1.494  11.064  18.373  0.00  0.00    +0.000 N 
BRANCH  12  13
ATOM     13  C   UNL     1      -2.489  10.093  17.911  0.00  0.00    +0.000 C 
ATOM     14  C   UNL     1      -2.342   9.735  16.406  0.00  0.00    +0.000 C 
ATOM     15  C   UNL     1      -2.773  10.898  15.503  0.00  0.00    +0.000 C 
ATOM     16  N   UNL     1      -4.138  11.345  15.786  0.00  0.00    +0.000 NA
ATOM     17  C   UNL     1      -4.339  11.664  17.197  0.00  0.00    +0.000 C 
ATOM     18  C   UNL     1      -3.951  10.510  18.115  0.00  0.00    +0.000 C 
ATOM     19  H   UNL     1      -4.796  10.624  15.494  0.00  0.00    +0.000 HD
ENDBRANCH  12  13
ENDBRANCH   5   7
BRANCH   1  20
ATOM     20  O   UNL     1       3.029   7.713  17.593  0.00  0.00    +0.000 OA
BRANCH  20  25
ATOM     21  C   UNL     1       5.081   4.685  17.446  0.00  0.00    +0.000 A 
ATOM     22  C   UNL     1       4.126   3.714  17.785  0.00  0.00    +0.000 A 
ATOM     23  C   UNL     1       2.796   4.057  18.069  0.00  0.00    +0.000 A 
ATOM     24  C   UNL     1       2.418   5.396  17.993  0.00  0.00    +0.000 A 
ATOM     25  C   UNL     1       3.362   6.383  17.709  0.00  0.00    +0.000 A 
ATOM     26  C   UNL     1       4.683   6.030  17.413  0.00  0.00    +0.000 A 
BRANCH  21  27
ATOM     27  C   UNL     1       6.480   4.278  17.057  0.00  0.00    +0.000 C 
BRANCH  27  29
ATOM     28  C   UNL     1       6.007   4.043  14.561  0.00  0.00    +0.000 C 
ATOM     29  C   UNL     1       6.907   4.640  15.633  0.00  0.00    +0.000 C 
ENDBRANCH  27  29
ENDBRANCH  21  27
BRANCH  23  30
ATOM     30  C   UNL     1       1.754   3.022  18.408  0.00  0.00    +0.000 C 
BRANCH  30  31
ATOM     31  C   UNL     1       0.802   3.414  19.540  0.00  0.00    +0.000 C 
ATOM     32  C   UNL     1       1.380   3.157  20.924  0.00  0.00    +0.000 C 
ENDBRANCH  30  31
ENDBRANCH  23  30
ENDBRANCH  20  25
ENDBRANCH   1  20
TORSDOF 8
ENDMDL
MODEL 6
REMARK VINA RESULT:      -8.3      2.902      8.837
REMARK  Name = 
REMARK  11 active torsions:
REMARK  status: ('A' for Active; 'I' for Inactive)
REMARK    1  A    between atoms: C_1  and  C_2
REMARK    2  A    between atoms: C_2  and  C_3
REMARK    3  A    between atoms: C_3  and  C_4
REMARK    4  A    between atoms: C_6  and  C_7
REMARK    5  A    between atoms: C_7  and  C_8
REMARK    6  A    between atoms: C_8  and  C_9
REMARK    7  A    between atoms: C_11  and  O_12
REMARK    8  A    between atoms: O_12  and  C_13
REMARK    9  A    between atoms: C_17  and  C_18
REMARK   10  A    between atoms: C_19  and  C_20
REMARK   11  A    between atoms: N_23  and  C_24
REMARK                            x       y       z     vdW  Elec       q    Type
REMARK                         _______ _______ _______ _____ _____    ______ ____
ROOT
ATOM      1  C   UNL     1       1.796   8.605  18.938  0.00  0.00    +0.000 A 
ATOM      2  C   UNL     1       2.028   7.953  20.139  0.00  0.00    +0.000 A 
ATOM      3  C   UNL     1       1.141   8.178  21.178  0.00  0.00    +0.000 A 
ATOM      4  C   UNL     1       0.084   9.061  20.980  0.00  0.00    +0.000 A 
ATOM      5  C   UNL     1      -0.007   9.770  19.783  0.00  0.00    +0.000 A 
ATOM      6  N   UNL     1       0.809   9.519  18.740  0.00  0.00    +0.000 NA
ENDROOT
BRANCH   5   7
ATOM      7  C   UNL     1      -0.875  10.942  19.660  0.00  0.00    +0.000 A 
ATOM      8  C   UNL     1      -0.670  12.242  20.127  0.00  0.00    +0.000 A 
ATOM      9  C   UNL     1       0.419  12.855  20.919  0.00  0.00    +0.000 C 
ATOM     10  N   UNL     1      -1.672  13.059  19.701  0.00  0.00    +0.000 NA
ATOM     11  N   UNL     1      -2.486  12.345  18.956  0.00  0.00    +0.000 NA
ATOM     12  N   UNL     1      -2.068  11.058  18.960  0.00  0.00    +0.000 N 
BRANCH  12  13
ATOM     13  C   UNL     1      -2.860  10.088  18.199  0.00  0.00    +0.000 C 
ATOM     14  C   UNL     1      -2.283   9.803  16.784  0.00  0.00    +0.000 C 
ATOM     15  C   UNL     1      -2.481  10.997  15.842  0.00  0.00    +0.000 C 
ATOM     16  N   UNL     1      -3.886  11.401  15.744  0.00  0.00    +0.000 NA
ATOM     17  C   UNL     1      -4.485  11.651  17.052  0.00  0.00    +0.000 C 
ATOM     18  C   UNL     1      -4.333  10.464  17.998  0.00  0.00    +0.000 C 
ATOM     19  H   UNL     1      -4.410  10.681  15.251  0.00  0.00    +0.000 HD
ENDBRANCH  12  13
ENDBRANCH   5   7
BRANCH   1  20
ATOM     20  O   UNL     1       2.617   8.220  17.883  0.00  0.00    +0.000 OA
BRANCH  20  25
ATOM     21  C   UNL     1       4.907   5.420  17.316  0.00  0.00    +0.000 A 
ATOM     22  C   UNL     1       4.079   4.340  17.664  0.00  0.00    +0.000 A 
ATOM     23  C   UNL     1       2.757   4.534  18.094  0.00  0.00    +0.000 A 
ATOM     24  C   UNL     1       2.257   5.833  18.156  0.00  0.00    +0.000 A 
ATOM     25  C   UNL     1       3.077   6.923  17.865  0.00  0.00    +0.000 A 
ATOM     26  C   UNL     1       4.389   6.720  17.423  0.00  0.00    +0.000 A 
BRANCH  21  27
ATOM     27  C   UNL     1       6.291   5.176  16.772  0.00  0.00    +0.000 C 
BRANCH  27  29
ATOM     28  C   UNL     1       7.707   5.759  18.813  0.00  0.00    +0.000 C 
ATOM     29  C   UNL     1       7.332   4.698  17.788  0.00  0.00    +0.000 C 
ENDBRANCH  27  29
ENDBRANCH  21  27
BRANCH  23  30
ATOM     30  C   UNL     1       1.850   3.383  18.445  0.00  0.00    +0.000 C 
BRANCH  30  31
ATOM     31  C   UNL     1       0.945   3.624  19.656  0.00  0.00    +0.000 C 
ATOM     32  C   UNL     1       1.682   3.526  20.983  0.00  0.00    +0.000 C 
ENDBRANCH  30  31
ENDBRANCH  23  30
ENDBRANCH  20  25
ENDBRANCH   1  20
TORSDOF 8
ENDMDL
MODEL 7
REMARK VINA RESULT:      -8.2      2.858      8.874
REMARK  Name = 
REMARK  11 active torsions:
REMARK  status: ('A' for Active; 'I' for Inactive)
REMARK    1  A    between atoms: C_1  and  C_2
REMARK    2  A    between atoms: C_2  and  C_3
REMARK    3  A    between atoms: C_3  and  C_4
REMARK    4  A    between atoms: C_6  and  C_7
REMARK    5  A    between atoms: C_7  and  C_8
REMARK    6  A    between atoms: C_8  and  C_9
REMARK    7  A    between atoms: C_11  and  O_12
REMARK    8  A    between atoms: O_12  and  C_13
REMARK    9  A    between atoms: C_17  and  C_18
REMARK   10  A    between atoms: C_19  and  C_20
REMARK   11  A    between atoms: N_23  and  C_24
REMARK                            x       y       z     vdW  Elec       q    Type
REMARK                         _______ _______ _______ _____ _____    ______ ____
ROOT
ATOM      1  C   UNL     1       2.017   8.442  18.823  0.00  0.00    +0.000 A 
ATOM      2  C   UNL     1       2.181   7.769  20.023  0.00  0.00    +0.000 A 
ATOM      3  C   UNL     1       1.260   8.008  21.029  0.00  0.00    +0.000 A 
ATOM      4  C   UNL     1       0.238   8.925  20.801  0.00  0.00    +0.000 A 
ATOM      5  C   UNL     1       0.217   9.651  19.610  0.00  0.00    +0.000 A 
ATOM      6  N   UNL     1       1.067   9.388  18.598  0.00  0.00    +0.000 NA
ENDROOT
BRANCH   5   7
ATOM      7  C   UNL     1      -0.610  10.850  19.468  0.00  0.00    +0.000 A 
ATOM      8  C   UNL     1      -0.339  12.159  19.873  0.00  0.00    +0.000 A 
ATOM      9  C   UNL     1       0.799  12.761  20.601  0.00  0.00    +0.000 C 
ATOM     10  N   UNL     1      -1.325  12.997  19.448  0.00  0.00    +0.000 NA
ATOM     11  N   UNL     1      -2.191  12.285  18.762  0.00  0.00    +0.000 NA
ATOM     12  N   UNL     1      -1.822  10.984  18.805  0.00  0.00    +0.000 N 
BRANCH  12  13
ATOM     13  C   UNL     1      -2.677  10.016  18.114  0.00  0.00    +0.000 C 
ATOM     14  C   UNL     1      -2.246   9.762  16.642  0.00  0.00    +0.000 C 
ATOM     15  C   UNL     1      -2.555  10.968  15.746  0.00  0.00    +0.000 C 
ATOM     16  N   UNL     1      -3.967  11.355  15.801  0.00  0.00    +0.000 NA
ATOM     17  C   UNL     1      -4.431  11.575  17.168  0.00  0.00    +0.000 C 
ATOM     18  C   UNL     1      -4.168  10.376  18.072  0.00  0.00    +0.000 C 
ATOM     19  H   UNL     1      -4.531  10.636  15.353  0.00  0.00    +0.000 HD
ENDBRANCH  12  13
ENDBRANCH   5   7
BRANCH   1  20
ATOM     20  O   UNL     1       2.868   8.046  17.796  0.00  0.00    +0.000 OA
BRANCH  20  25
ATOM     21  C   UNL     1       2.244   4.439  17.862  0.00  0.00    +0.000 A 
ATOM     22  C   UNL     1       3.509   3.954  17.493  0.00  0.00    +0.000 A 
ATOM     23  C   UNL     1       4.577   4.822  17.215  0.00  0.00    +0.000 A 
ATOM     24  C   UNL     1       4.371   6.195  17.329  0.00  0.00    +0.000 A 
ATOM     25  C   UNL     1       3.109   6.699  17.643  0.00  0.00    +0.000 A 
ATOM     26  C   UNL     1       2.054   5.827  17.933  0.00  0.00    +0.000 A 
BRANCH  21  27
ATOM     27  C   UNL     1       1.142   3.483  18.243  0.00  0.00    +0.000 C 
BRANCH  27  29
ATOM     28  C   UNL     1       1.147   3.801  20.774  0.00  0.00    +0.000 C 
ATOM     29  C   UNL     1       1.279   2.821  19.617  0.00  0.00    +0.000 C 
ENDBRANCH  27  29
ENDBRANCH  21  27
BRANCH  23  30
ATOM     30  C   UNL     1       5.947   4.316  16.844  0.00  0.00    +0.000 C 
BRANCH  30  31
ATOM     31  C   UNL     1       6.081   3.821  15.402  0.00  0.00    +0.000 C 
ATOM     32  C   UNL     1       6.627   4.878  14.454  0.00  0.00    +0.000 C 
ENDBRANCH  30  31
ENDBRANCH  23  30
ENDBRANCH  20  25
ENDBRANCH   1  20
TORSDOF 8
ENDMDL
MODEL 8
REMARK VINA RESULT:      -8.1      2.912      8.545
REMARK  Name = 
REMARK  11 active torsions:
REMARK  status: ('A' for Active; 'I' for Inactive)
REMARK    1  A    between atoms: C_1  and  C_2
REMARK    2  A    between atoms: C_2  and  C_3
REMARK    3  A    between atoms: C_3  and  C_4
REMARK    4  A    between atoms: C_6  and  C_7
REMARK    5  A    between atoms: C_7  and  C_8
REMARK    6  A    between atoms: C_8  and  C_9
REMARK    7  A    between atoms: C_11  and  O_12
REMARK    8  A    between atoms: O_12  and  C_13
REMARK    9  A    between atoms: C_17  and  C_18
REMARK   10  A    between atoms: C_19  and  C_20
REMARK   11  A    between atoms: N_23  and  C_24
REMARK                            x       y       z     vdW  Elec       q    Type
REMARK                         _______ _______ _______ _____ _____    ______ ____
ROOT
ATOM      1  C   UNL     1       1.855   8.453  18.858  0.00  0.00    +0.000 A 
ATOM      2  C   UNL     1       2.049   7.938  20.130  0.00  0.00    +0.000 A 
ATOM      3  C   UNL     1       1.119   8.256  21.105  0.00  0.00    +0.000 A 
ATOM      4  C   UNL     1       0.057   9.093  20.774  0.00  0.00    +0.000 A 
ATOM      5  C   UNL     1       0.004   9.668  19.505  0.00  0.00    +0.000 A 
ATOM      6  N   UNL     1       0.864   9.323  18.526  0.00  0.00    +0.000 NA
ENDROOT
BRANCH   5   7
ATOM      7  C   UNL     1      -0.875  10.804  19.224  0.00  0.00    +0.000 A 
ATOM      8  C   UNL     1      -2.068  10.836  18.497  0.00  0.00    +0.000 A 
ATOM      9  C   UNL     1      -2.804   9.796  17.747  0.00  0.00    +0.000 C 
ATOM     10  N   UNL     1      -2.632  12.072  18.571  0.00  0.00    +0.000 NA
ATOM     11  N   UNL     1      -1.869  12.818  19.340  0.00  0.00    +0.000 NA
ATOM     12  N   UNL     1      -0.778  12.104  19.699  0.00  0.00    +0.000 N 
BRANCH  12  13
ATOM     13  C   UNL     1       0.216  12.769  20.546  0.00  0.00    +0.000 C 
ATOM     14  C   UNL     1       0.110  14.320  20.510  0.00  0.00    +0.000 C 
ATOM     15  C   UNL     1       0.587  14.888  19.167  0.00  0.00    +0.000 C 
ATOM     16  N   UNL     1       1.950  14.466  18.837  0.00  0.00    +0.000 NA
ATOM     17  C   UNL     1       2.112  13.015  18.889  0.00  0.00    +0.000 C 
ATOM     18  C   UNL     1       1.677  12.428  20.227  0.00  0.00    +0.000 C 
ATOM     19  H   UNL     1       2.606  14.912  19.477  0.00  0.00    +0.000 HD
ENDBRANCH  12  13
ENDBRANCH   5   7
BRANCH   1  20
ATOM     20  O   UNL     1       2.722   7.973  17.882  0.00  0.00    +0.000 OA
BRANCH  20  25
ATOM     21  C   UNL     1       4.926   5.054  17.713  0.00  0.00    +0.000 A 
ATOM     22  C   UNL     1       4.006   4.025  17.968  0.00  0.00    +0.000 A 
ATOM     23  C   UNL     1       2.649   4.293  18.203  0.00  0.00    +0.000 A 
ATOM     24  C   UNL     1       2.210   5.615  18.162  0.00  0.00    +0.000 A 
ATOM     25  C   UNL     1       3.116   6.656  17.961  0.00  0.00    +0.000 A 
ATOM     26  C   UNL     1       4.464   6.379  17.713  0.00  0.00    +0.000 A 
BRANCH  21  27
ATOM     27  C   UNL     1       6.359   4.730  17.375  0.00  0.00    +0.000 C 
BRANCH  27  29
ATOM     28  C   UNL     1       7.835   5.808  19.155  0.00  0.00    +0.000 C 
ATOM     29  C   UNL     1       7.384   5.820  17.702  0.00  0.00    +0.000 C 
ENDBRANCH  27  29
ENDBRANCH  21  27
BRANCH  23  30
ATOM     30  C   UNL     1       1.645   3.196  18.452  0.00  0.00    +0.000 C 
BRANCH  30  31
ATOM     31  C   UNL     1       0.753   3.407  19.678  0.00  0.00    +0.000 C 
ATOM     32  C   UNL     1       1.484   3.189  20.994  0.00  0.00    +0.000 C 
ENDBRANCH  30  31
ENDBRANCH  23  30
ENDBRANCH  20  25
ENDBRANCH   1  20
TORSDOF 8
ENDMDL
MODEL 9
REMARK VINA RESULT:      -8.0      3.342      8.893
REMARK  Name = 
REMARK  11 active torsions:
REMARK  status: ('A' for Active; 'I' for Inactive)
REMARK    1  A    between atoms: C_1  and  C_2
REMARK    2  A    between atoms: C_2  and  C_3
REMARK    3  A    between atoms: C_3  and  C_4
REMARK    4  A    between atoms: C_6  and  C_7
REMARK    5  A    between atoms: C_7  and  C_8
REMARK    6  A    between atoms: C_8  and  C_9
REMARK    7  A    between atoms: C_11  and  O_12
REMARK    8  A    between atoms: O_12  and  C_13
REMARK    9  A    between atoms: C_17  and  C_18
REMARK   10  A    between atoms: C_19  and  C_20
REMARK   11  A    between atoms: N_23  and  C_24
REMARK                            x       y       z     vdW  Elec       q    Type
REMARK                         _______ _______ _______ _____ _____    ______ ____
ROOT
ATOM      1  C   UNL     1       1.291   9.861  18.481  0.00  0.00    +0.000 A 
ATOM      2  C   UNL     1       2.092  10.903  18.039  0.00  0.00    +0.000 A 
ATOM      3  C   UNL     1       2.179  12.034  18.832  0.00  0.00    +0.000 A 
ATOM      4  C   UNL     1       1.444  12.085  20.013  0.00  0.00    +0.000 A 
ATOM      5  C   UNL     1       0.567  11.047  20.324  0.00  0.00    +0.000 A 
ATOM      6  N   UNL     1       0.515   9.913  19.597  0.00  0.00    +0.000 NA
ENDROOT
BRANCH   5   7
ATOM      7  C   UNL     1      -0.466  11.208  21.348  0.00  0.00    +0.000 A 
ATOM      8  C   UNL     1      -0.609  10.539  22.567  0.00  0.00    +0.000 A 
ATOM      9  C   UNL     1       0.162   9.448  23.201  0.00  0.00    +0.000 C 
ATOM     10  N   UNL     1      -1.643  11.069  23.276  0.00  0.00    +0.000 NA
ATOM     11  N   UNL     1      -2.141  12.066  22.578  0.00  0.00    +0.000 NA
ATOM     12  N   UNL     1      -1.495  12.138  21.392  0.00  0.00    +0.000 N 
BRANCH  12  13
ATOM     13  C   UNL     1      -1.920  13.178  20.453  0.00  0.00    +0.000 C 
ATOM     14  C   UNL     1      -3.349  13.716  20.743  0.00  0.00    +0.000 C 
ATOM     15  C   UNL     1      -4.426  12.682  20.387  0.00  0.00    +0.000 C 
ATOM     16  N   UNL     1      -4.327  12.231  18.998  0.00  0.00    +0.000 NA
ATOM     17  C   UNL     1      -2.991  11.745  18.664  0.00  0.00    +0.000 C 
ATOM     18  C   UNL     1      -1.904  12.768  18.974  0.00  0.00    +0.000 C 
ATOM     19  H   UNL     1      -4.585  12.996  18.376  0.00  0.00    +0.000 HD
ENDBRANCH  12  13
ENDBRANCH   5   7
BRANCH   1  20
ATOM     20  O   UNL     1       1.367   8.691  17.734  0.00  0.00    +0.000 OA
BRANCH  20  25
ATOM     21  C   UNL     1       4.391   6.628  17.666  0.00  0.00    +0.000 A 
ATOM     22  C   UNL     1       4.130   5.759  18.737  0.00  0.00    +0.000 A 
ATOM     23  C   UNL     1       2.951   5.855  19.493  0.00  0.00    +0.000 A 
ATOM     24  C   UNL     1       2.014   6.828  19.152  0.00  0.00    +0.000 A 
ATOM     25  C   UNL     1       2.276   7.735  18.124  0.00  0.00    +0.000 A 
ATOM     26  C   UNL     1       3.447   7.623  17.368  0.00  0.00    +0.000 A 
BRANCH  21  27
ATOM     27  C   UNL     1       5.622   6.444  16.816  0.00  0.00    +0.000 C 
BRANCH  27  29
ATOM     28  C   UNL     1       5.846   4.176  15.669  0.00  0.00    +0.000 C 
ATOM     29  C   UNL     1       5.430   5.633  15.532  0.00  0.00    +0.000 C 
ENDBRANCH  27  29
ENDBRANCH  21  27
BRANCH  23  30
ATOM     30  C   UNL     1       2.646   4.912  20.628  0.00  0.00    +0.000 C 
BRANCH  30  31
ATOM     31  C   UNL     1       1.313   4.170  20.508  0.00  0.00    +0.000 C 
ATOM     32  C   UNL     1       1.275   2.873  21.302  0.00  0.00    +0.000 C 
ENDBRANCH  30  31
ENDBRANCH  23  30
ENDBRANCH  20  25
ENDBRANCH   1  20
TORSDOF 8
ENDMDL
