MODEL 1
REMARK VINA RESULT:      -8.7      0.000      0.000
REMARK  Name = 
REMARK  7 active torsions:
REMARK  status: ('A' for Active; 'I' for Inactive)
REMARK    1  A    between atoms: N_1  and  C_2
REMARK    2  A    between atoms: N_10  and  C_11
REMARK    3  A    between atoms: C_13  and  C_14
REMARK    4  A    between atoms: C_14  and  S_15
REMARK    5  A    between atoms: S_15  and  C_16
REMARK    6  A    between atoms: C_26  and  O_27
REMARK    7  A    between atoms: C_28  and  O_29
REMARK                            x       y       z     vdW  Elec       q    Type
REMARK                         _______ _______ _______ _____ _____    ______ ____
ROOT
ATOM      1  C   UNL     1       4.453   4.111  17.576  0.00  0.00    +0.000 C 
ATOM      2  O   UNL     1       3.411   5.097  17.480  0.00  0.00    +0.000 OA
ATOM      3  C   UNL     1       2.818   5.285  18.789  0.00  0.00    +0.000 C 
ATOM      4  C   UNL     1       3.386   4.173  19.679  0.00  0.00    +0.000 C 
ATOM      5  C   UNL     1       4.736   3.853  19.052  0.00  0.00    +0.000 C 
ENDROOT
BRANCH   1  14
ATOM      6  C   UNL     1       7.456   5.057  13.890  0.00  0.00    +0.000 A 
ATOM      7  N   UNL     1       6.813   4.282  12.988  0.00  0.00    +0.000 NA
ATOM      8  C   UNL     1       5.734   3.585  13.401  0.00  0.00    +0.000 A 
ATOM      9  N   UNL     1       5.178   3.553  14.627  0.00  0.00    +0.000 NA
ATOM     10  C   UNL     1       5.871   4.309  15.498  0.00  0.00    +0.000 A 
ATOM     11  C   UNL     1       6.998   5.072  15.215  0.00  0.00    +0.000 A 
ATOM     12  N   UNL     1       7.445   5.717  16.350  0.00  0.00    +0.000 NA
ATOM     13  C   UNL     1       6.590   5.375  17.286  0.00  0.00    +0.000 A 
ATOM     14  N   UNL     1       5.615   4.536  16.814  0.00  0.00    +0.000 N 
BRANCH   6  15
ATOM     15  N   UNL     1       8.547   5.804  13.462  0.00  0.00    +0.000 N 
ATOM     16  H   UNL     1       8.989   5.400  12.647  0.00  0.00    +0.000 HD
ATOM     17  H   UNL     1       9.142   6.111  14.224  0.00  0.00    +0.000 HD
ENDBRANCH   6  15
ENDBRANCH   1  14
BRANCH   4  18
ATOM     18  O   UNL     1       2.581   2.977  19.610  0.00  0.00    +0.000 OA
ATOM     19  H   UNL     1       2.738   2.443  20.412  0.00  0.00    +0.000 HD
ENDBRANCH   4  18
BRANCH   5  20
ATOM     20  O   UNL     1       5.126   2.498  19.287  0.00  0.00    +0.000 OA
ATOM     21  H   UNL     1       6.082   2.518  19.503  0.00  0.00    +0.000 HD
ENDBRANCH   5  20
BRANCH   3  22
ATOM     22  C   UNL     1       3.111   6.697  19.317  0.00  0.00    +0.000 C 
BRANCH  22  23
ATOM     23  S   UNL     1       2.637   7.956  18.073  0.00  0.00    +0.000 S 
BRANCH  23  24
ATOM     24  C   UNL     1       1.389   8.867  18.972  0.00  0.00    +0.000 A 
ATOM     25  C   UNL     1       0.724   9.890  18.308  0.00  0.00    +0.000 A 
ATOM     26  C   UNL     1      -0.151  10.689  19.032  0.00  0.00    +0.000 A 
ATOM     27  C   UNL     1      -0.289  10.481  20.404  0.00  0.00    +0.000 A 
ATOM     28  C   UNL     1      -1.010  11.386  21.197  0.00  0.00    +0.000 A 
ATOM     29  C   UNL     1      -1.041  11.228  22.579  0.00  0.00    +0.000 A 
ATOM     30  C   UNL     1      -0.462  10.103  23.155  0.00  0.00    +0.000 A 
ATOM     31  C   UNL     1       0.215   9.179  22.353  0.00  0.00    +0.000 A 
ATOM     32  C   UNL     1       0.371   9.378  20.986  0.00  0.00    +0.000 A 
ATOM     33  N   UNL     1       1.176   8.568  20.273  0.00  0.00    +0.000 NA
ENDBRANCH  23  24
ENDBRANCH  22  23
ENDBRANCH   3  22
TORSDOF 7
ENDMDL
MODEL 2
REMARK VINA RESULT:      -8.4      0.714      1.410
REMARK  Name = 
REMARK  7 active torsions:
REMARK  status: ('A' for Active; 'I' for Inactive)
REMARK    1  A    between atoms: N_1  and  C_2
REMARK    2  A    between atoms: N_10  and  C_11
REMARK    3  A    between atoms: C_13  and  C_14
REMARK    4  A    between atoms: C_14  and  S_15
REMARK    5  A    between atoms: S_15  and  C_16
REMARK    6  A    between atoms: C_26  and  O_27
REMARK    7  A    between atoms: C_28  and  O_29
REMARK                            x       y       z     vdW  Elec       q    Type
REMARK                         _______ _______ _______ _____ _____    ______ ____
ROOT
ATOM      1  C   UNL     1       4.472   4.283  17.489  0.00  0.00    +0.000 C 
ATOM      2  O   UNL     1       3.433   5.267  17.353  0.00  0.00    +0.000 OA
ATOM      3  C   UNL     1       2.833   5.503  18.651  0.00  0.00    +0.000 C 
ATOM      4  C   UNL     1       3.393   4.422  19.583  0.00  0.00    +0.000 C 
ATOM      5  C   UNL     1       4.746   4.076  18.976  0.00  0.00    +0.000 C 
ENDROOT
BRANCH   1  14
ATOM      6  C   UNL     1       7.486   5.120  13.786  0.00  0.00    +0.000 A 
ATOM      7  N   UNL     1       6.833   4.336  12.900  0.00  0.00    +0.000 NA
ATOM      8  C   UNL     1       5.745   3.660  13.326  0.00  0.00    +0.000 A 
ATOM      9  N   UNL     1       5.189   3.659  14.552  0.00  0.00    +0.000 NA
ATOM     10  C   UNL     1       5.892   4.423  15.408  0.00  0.00    +0.000 A 
ATOM     11  C   UNL     1       7.029   5.166  15.111  0.00  0.00    +0.000 A 
ATOM     12  N   UNL     1       7.484   5.827  16.233  0.00  0.00    +0.000 NA
ATOM     13  C   UNL     1       6.625   5.514  17.176  0.00  0.00    +0.000 A 
ATOM     14  N   UNL     1       5.639   4.678  16.720  0.00  0.00    +0.000 N 
BRANCH   6  15
ATOM     15  N   UNL     1       8.587   5.844  13.345  0.00  0.00    +0.000 N 
ATOM     16  H   UNL     1       9.458   5.371  13.543  0.00  0.00    +0.000 HD
ATOM     17  H   UNL     1       8.522   6.834  13.557  0.00  0.00    +0.000 HD
ENDBRANCH   6  15
ENDBRANCH   1  14
BRANCH   4  18
ATOM     18  O   UNL     1       2.586   3.226  19.552  0.00  0.00    +0.000 OA
ATOM     19  H   UNL     1       3.171   2.451  19.444  0.00  0.00    +0.000 HD
ENDBRANCH   4  18
BRANCH   5  20
ATOM     20  O   UNL     1       5.132   2.730  19.260  0.00  0.00    +0.000 OA
ATOM     21  H   UNL     1       6.087   2.664  19.048  0.00  0.00    +0.000 HD
ENDBRANCH   5  20
BRANCH   3  22
ATOM     22  C   UNL     1       3.127   6.932  19.131  0.00  0.00    +0.000 C 
BRANCH  22  23
ATOM     23  S   UNL     1       1.965   8.118  18.354  0.00  0.00    +0.000 S 
BRANCH  23  24
ATOM     24  C   UNL     1       1.302   8.937  19.797  0.00  0.00    +0.000 A 
ATOM     25  C   UNL     1       1.445   8.307  21.027  0.00  0.00    +0.000 A 
ATOM     26  C   UNL     1       0.821   8.867  22.134  0.00  0.00    +0.000 A 
ATOM     27  C   UNL     1       0.027  10.002  21.968  0.00  0.00    +0.000 A 
ATOM     28  C   UNL     1      -0.770  10.478  23.019  0.00  0.00    +0.000 A 
ATOM     29  C   UNL     1      -1.643  11.540  22.805  0.00  0.00    +0.000 A 
ATOM     30  C   UNL     1      -1.630  12.203  21.583  0.00  0.00    +0.000 A 
ATOM     31  C   UNL     1      -0.798  11.752  20.553  0.00  0.00    +0.000 A 
ATOM     32  C   UNL     1      -0.010  10.617  20.699  0.00  0.00    +0.000 A 
ATOM     33  N   UNL     1       0.642  10.106  19.637  0.00  0.00    +0.000 NA
ENDBRANCH  23  24
ENDBRANCH  22  23
ENDBRANCH   3  22
TORSDOF 7
ENDMDL
MODEL 3
REMARK VINA RESULT:      -8.4      2.149      2.648
REMARK  Name = 
REMARK  7 active torsions:
REMARK  status: ('A' for Active; 'I' for Inactive)
REMARK    1  A    between atoms: N_1  and  C_2
REMARK    2  A    between atoms: N_10  and  C_11
REMARK    3  A    between atoms: C_13  and  C_14
REMARK    4  A    between atoms: C_14  and  S_15
REMARK    5  A    between atoms: S_15  and  C_16
REMARK    6  A    between atoms: C_26  and  O_27
REMARK    7  A    between atoms: C_28  and  O_29
REMARK                            x       y       z     vdW  Elec       q    Type
REMARK                         _______ _______ _______ _____ _____    ______ ____
ROOT
ATOM      1  C   UNL     1       3.249   3.454  18.111  0.00  0.00    +0.000 C 
ATOM      2  O   UNL     1       2.191   4.414  18.265  0.00  0.00    +0.000 OA
ATOM      3  C   UNL     1       1.132   3.827  19.061  0.00  0.00    +0.000 C 
ATOM      4  C   UNL     1       1.477   2.339  19.199  0.00  0.00    +0.000 C 
ATOM      5  C   UNL     1       2.994   2.299  19.075  0.00  0.00    +0.000 C 
ENDROOT
BRANCH   1  14
ATOM      6  C   UNL     1       6.950   6.555  17.681  0.00  0.00    +0.000 A 
ATOM      7  N   UNL     1       6.525   7.114  16.526  0.00  0.00    +0.000 NA
ATOM      8  C   UNL     1       5.395   6.637  15.964  0.00  0.00    +0.000 A 
ATOM      9  N   UNL     1       4.592   5.651  16.409  0.00  0.00    +0.000 NA
ATOM     10  C   UNL     1       5.073   5.102  17.539  0.00  0.00    +0.000 A 
ATOM     11  C   UNL     1       6.222   5.485  18.221  0.00  0.00    +0.000 A 
ATOM     12  N   UNL     1       6.407   4.701  19.340  0.00  0.00    +0.000 NA
ATOM     13  C   UNL     1       5.379   3.884  19.348  0.00  0.00    +0.000 A 
ATOM     14  N   UNL     1       4.540   4.098  18.287  0.00  0.00    +0.000 N 
BRANCH   6  15
ATOM     15  N   UNL     1       8.095   7.065  18.281  0.00  0.00    +0.000 N 
ATOM     16  H   UNL     1       7.877   7.685  19.049  0.00  0.00    +0.000 HD
ATOM     17  H   UNL     1       8.796   7.362  17.612  0.00  0.00    +0.000 HD
ENDBRANCH   6  15
ENDBRANCH   1  14
BRANCH   4  18
ATOM     18  O   UNL     1       0.933   1.567  18.108  0.00  0.00    +0.000 OA
ATOM     19  H   UNL     1       0.854   2.139  17.322  0.00  0.00    +0.000 HD
ENDBRANCH   4  18
BRANCH   5  20
ATOM     20  O   UNL     1       3.455   1.055  18.543  0.00  0.00    +0.000 OA
ATOM     21  H   UNL     1       2.805   0.788  17.859  0.00  0.00    +0.000 HD
ENDBRANCH   5  20
BRANCH   3  22
ATOM     22  C   UNL     1       1.006   4.549  20.411  0.00  0.00    +0.000 C 
BRANCH  22  23
ATOM     23  S   UNL     1       2.393   5.725  20.638  0.00  0.00    +0.000 S 
BRANCH  23  24
ATOM     24  C   UNL     1       1.527   7.287  20.570  0.00  0.00    +0.000 A 
ATOM     25  C   UNL     1       1.739   8.102  19.465  0.00  0.00    +0.000 A 
ATOM     26  C   UNL     1       1.176   9.372  19.463  0.00  0.00    +0.000 A 
ATOM     27  C   UNL     1       0.473   9.809  20.585  0.00  0.00    +0.000 A 
ATOM     28  C   UNL     1       0.061  11.145  20.696  0.00  0.00    +0.000 A 
ATOM     29  C   UNL     1      -0.537  11.593  21.869  0.00  0.00    +0.000 A 
ATOM     30  C   UNL     1      -0.835  10.686  22.878  0.00  0.00    +0.000 A 
ATOM     31  C   UNL     1      -0.464   9.343  22.742  0.00  0.00    +0.000 A 
ATOM     32  C   UNL     1       0.247   8.895  21.635  0.00  0.00    +0.000 A 
ATOM     33  N   UNL     1       0.745   7.644  21.614  0.00  0.00    +0.000 NA
ENDBRANCH  23  24
ENDBRANCH  22  23
ENDBRANCH   3  22
TORSDOF 7
ENDMDL
MODEL 4
REMARK VINA RESULT:      -8.3      2.560      3.652
REMARK  Name = 
REMARK  7 active torsions:
REMARK  status: ('A' for Active; 'I' for Inactive)
REMARK    1  A    between atoms: N_1  and  C_2
REMARK    2  A    between atoms: N_10  and  C_11
REMARK    3  A    between atoms: C_13  and  C_14
REMARK    4  A    between atoms: C_14  and  S_15
REMARK    5  A    between atoms: S_15  and  C_16
REMARK    6  A    between atoms: C_26  and  O_27
REMARK    7  A    between atoms: C_28  and  O_29
REMARK                            x       y       z     vdW  Elec       q    Type
REMARK                         _______ _______ _______ _____ _____    ______ ____
ROOT
ATOM      1  C   UNL     1       4.347   3.590  17.668  0.00  0.00    +0.000 C 
ATOM      2  O   UNL     1       3.029   3.578  17.094  0.00  0.00    +0.000 OA
ATOM      3  C   UNL     1       2.124   2.908  18.004  0.00  0.00    +0.000 C 
ATOM      4  C   UNL     1       3.002   2.273  19.090  0.00  0.00    +0.000 C 
ATOM      5  C   UNL     1       4.240   3.159  19.127  0.00  0.00    +0.000 C 
ENDROOT
BRANCH   1  14
ATOM      6  C   UNL     1       7.504   7.266  17.845  0.00  0.00    +0.000 A 
ATOM      7  N   UNL     1       8.235   6.767  18.867  0.00  0.00    +0.000 NA
ATOM      8  C   UNL     1       7.844   5.601  19.422  0.00  0.00    +0.000 A 
ATOM      9  N   UNL     1       6.795   4.826  19.087  0.00  0.00    +0.000 NA
ATOM     10  C   UNL     1       6.078   5.378  18.091  0.00  0.00    +0.000 A 
ATOM     11  C   UNL     1       6.357   6.570  17.434  0.00  0.00    +0.000 A 
ATOM     12  N   UNL     1       5.407   6.826  16.467  0.00  0.00    +0.000 NA
ATOM     13  C   UNL     1       4.592   5.798  16.520  0.00  0.00    +0.000 A 
ATOM     14  N   UNL     1       4.965   4.892  17.478  0.00  0.00    +0.000 N 
BRANCH   6  15
ATOM     15  N   UNL     1       7.920   8.449  17.248  0.00  0.00    +0.000 N 
ATOM     16  H   UNL     1       8.897   8.420  16.987  0.00  0.00    +0.000 HD
ATOM     17  H   UNL     1       7.578   9.276  17.723  0.00  0.00    +0.000 HD
ENDBRANCH   6  15
ENDBRANCH   1  14
BRANCH   4  18
ATOM     18  O   UNL     1       3.430   0.947  18.715  0.00  0.00    +0.000 OA
ATOM     19  H   UNL     1       4.348   0.811  19.020  0.00  0.00    +0.000 HD
ENDBRANCH   4  18
BRANCH   5  20
ATOM     20  O   UNL     1       5.400   2.440  19.553  0.00  0.00    +0.000 OA
ATOM     21  H   UNL     1       5.953   3.077  20.053  0.00  0.00    +0.000 HD
ENDBRANCH   5  20
BRANCH   3  22
ATOM     22  C   UNL     1       1.087   3.895  18.561  0.00  0.00    +0.000 C 
BRANCH  22  23
ATOM     23  S   UNL     1       1.458   4.289  20.313  0.00  0.00    +0.000 S 
BRANCH  23  24
ATOM     24  C   UNL     1       1.549   6.072  20.246  0.00  0.00    +0.000 A 
ATOM     25  C   UNL     1       1.016   6.792  21.308  0.00  0.00    +0.000 A 
ATOM     26  C   UNL     1       0.962   8.176  21.207  0.00  0.00    +0.000 A 
ATOM     27  C   UNL     1       1.386   8.793  20.030  0.00  0.00    +0.000 A 
ATOM     28  C   UNL     1       1.167  10.162  19.819  0.00  0.00    +0.000 A 
ATOM     29  C   UNL     1       1.491  10.737  18.595  0.00  0.00    +0.000 A 
ATOM     30  C   UNL     1       2.145   9.979  17.631  0.00  0.00    +0.000 A 
ATOM     31  C   UNL     1       2.403   8.624  17.866  0.00  0.00    +0.000 A 
ATOM     32  C   UNL     1       1.977   7.994  19.029  0.00  0.00    +0.000 A 
ATOM     33  N   UNL     1       2.081   6.656  19.149  0.00  0.00    +0.000 NA
ENDBRANCH  23  24
ENDBRANCH  22  23
ENDBRANCH   3  22
TORSDOF 7
ENDMDL
MODEL 5
REMARK VINA RESULT:      -8.0      2.277      3.160
REMARK  Name = 
REMARK  7 active torsions:
REMARK  status: ('A' for Active; 'I' for Inactive)
REMARK    1  A    between atoms: N_1  and  C_2
REMARK    2  A    between atoms: N_10  and  C_11
REMARK    3  A    between atoms: C_13  and  C_14
REMARK    4  A    between atoms: C_14  and  S_15
REMARK    5  A    between atoms: S_15  and  C_16
REMARK    6  A    between atoms: C_26  and  O_27
REMARK    7  A    between atoms: C_28  and  O_29
REMARK                            x       y       z     vdW  Elec       q    Type
REMARK                         _______ _______ _______ _____ _____    ______ ____
ROOT
ATOM      1  C   UNL     1       4.149   3.730  17.777  0.00  0.00    +0.000 C 
ATOM      2  O   UNL     1       2.757   3.897  17.460  0.00  0.00    +0.000 OA
ATOM      3  C   UNL     1       1.959   3.284  18.502  0.00  0.00    +0.000 C 
ATOM      4  C   UNL     1       2.937   2.499  19.384  0.00  0.00    +0.000 C 
ATOM      5  C   UNL     1       4.258   3.238  19.217  0.00  0.00    +0.000 C 
ENDROOT
BRANCH   1  14
ATOM      6  C   UNL     1       7.558   7.177  17.841  0.00  0.00    +0.000 A 
ATOM      7  N   UNL     1       8.187   6.725  18.948  0.00  0.00    +0.000 NA
ATOM      8  C   UNL     1       7.678   5.644  19.576  0.00  0.00    +0.000 A 
ATOM      9  N   UNL     1       6.595   4.917  19.241  0.00  0.00    +0.000 NA
ATOM     10  C   UNL     1       5.981   5.424  18.157  0.00  0.00    +0.000 A 
ATOM     11  C   UNL     1       6.388   6.529  17.418  0.00  0.00    +0.000 A 
ATOM     12  N   UNL     1       5.519   6.761  16.372  0.00  0.00    +0.000 NA
ATOM     13  C   UNL     1       4.627   5.802  16.461  0.00  0.00    +0.000 A 
ATOM     14  N   UNL     1       4.873   4.963  17.516  0.00  0.00    +0.000 N 
BRANCH   6  15
ATOM     15  N   UNL     1       8.097   8.269  17.172  0.00  0.00    +0.000 N 
ATOM     16  H   UNL     1       8.968   8.041  16.712  0.00  0.00    +0.000 HD
ATOM     17  H   UNL     1       8.052   9.127  17.710  0.00  0.00    +0.000 HD
ENDBRANCH   6  15
ENDBRANCH   1  14
BRANCH   4  18
ATOM     18  O   UNL     1       3.128   1.154  18.895  0.00  0.00    +0.000 OA
ATOM     19  H   UNL     1       2.296   0.656  19.003  0.00  0.00    +0.000 HD
ENDBRANCH   4  18
BRANCH   5  20
ATOM     20  O   UNL     1       5.382   2.372  19.396  0.00  0.00    +0.000 OA
ATOM     21  H   UNL     1       5.548   1.950  18.527  0.00  0.00    +0.000 HD
ENDBRANCH   5  20
BRANCH   3  22
ATOM     22  C   UNL     1       1.167   4.350  19.273  0.00  0.00    +0.000 C 
BRANCH  22  23
ATOM     23  S   UNL     1       2.298   5.380  20.283  0.00  0.00    +0.000 S 
BRANCH  23  24
ATOM     24  C   UNL     1       1.885   7.015  19.693  0.00  0.00    +0.000 A 
ATOM     25  C   UNL     1       2.222   7.340  18.384  0.00  0.00    +0.000 A 
ATOM     26  C   UNL     1       2.026   8.646  17.956  0.00  0.00    +0.000 A 
ATOM     27  C   UNL     1       1.558   9.599  18.860  0.00  0.00    +0.000 A 
ATOM     28  C   UNL     1       1.534  10.959  18.520  0.00  0.00    +0.000 A 
ATOM     29  C   UNL     1       1.174  11.908  19.471  0.00  0.00    +0.000 A 
ATOM     30  C   UNL     1       0.721  11.493  20.718  0.00  0.00    +0.000 A 
ATOM     31  C   UNL     1       0.704  10.131  21.037  0.00  0.00    +0.000 A 
ATOM     32  C   UNL     1       1.177   9.171  20.150  0.00  0.00    +0.000 A 
ATOM     33  N   UNL     1       1.313   7.892  20.549  0.00  0.00    +0.000 NA
ENDBRANCH  23  24
ENDBRANCH  22  23
ENDBRANCH   3  22
TORSDOF 7
ENDMDL
MODEL 6
REMARK VINA RESULT:      -7.9      0.874      1.106
REMARK  Name = 
REMARK  7 active torsions:
REMARK  status: ('A' for Active; 'I' for Inactive)
REMARK    1  A    between atoms: N_1  and  C_2
REMARK    2  A    between atoms: N_10  and  C_11
REMARK    3  A    between atoms: C_13  and  C_14
REMARK    4  A    between atoms: C_14  and  S_15
REMARK    5  A    between atoms: S_15  and  C_16
REMARK    6  A    between atoms: C_26  and  O_27
REMARK    7  A    between atoms: C_28  and  O_29
REMARK                            x       y       z     vdW  Elec       q    Type
REMARK                         _______ _______ _______ _____ _____    ______ ____
ROOT
ATOM      1  C   UNL     1       4.596   4.003  17.348  0.00  0.00    +0.000 C 
ATOM      2  O   UNL     1       3.437   4.801  17.057  0.00  0.00    +0.000 OA
ATOM      3  C   UNL     1       2.734   5.082  18.292  0.00  0.00    +0.000 C 
ATOM      4  C   UNL     1       3.387   4.201  19.364  0.00  0.00    +0.000 C 
ATOM      5  C   UNL     1       4.808   3.998  18.859  0.00  0.00    +0.000 C 
ENDROOT
BRANCH   1  14
ATOM      6  C   UNL     1       7.558   5.095  13.670  0.00  0.00    +0.000 A 
ATOM      7  N   UNL     1       6.953   4.293  12.765  0.00  0.00    +0.000 NA
ATOM      8  C   UNL     1       5.908   3.545  13.175  0.00  0.00    +0.000 A 
ATOM      9  N   UNL     1       5.352   3.485  14.400  0.00  0.00    +0.000 NA
ATOM     10  C   UNL     1       6.008   4.270  15.273  0.00  0.00    +0.000 A 
ATOM     11  C   UNL     1       7.098   5.086  14.995  0.00  0.00    +0.000 A 
ATOM     12  N   UNL     1       7.512   5.749  16.131  0.00  0.00    +0.000 NA
ATOM     13  C   UNL     1       6.673   5.365  17.065  0.00  0.00    +0.000 A 
ATOM     14  N   UNL     1       5.739   4.482  16.590  0.00  0.00    +0.000 N 
BRANCH   6  15
ATOM     15  N   UNL     1       8.614   5.893  13.246  0.00  0.00    +0.000 N 
ATOM     16  H   UNL     1       9.459   5.358  13.096  0.00  0.00    +0.000 HD
ATOM     17  H   UNL     1       8.686   6.763  13.761  0.00  0.00    +0.000 HD
ENDBRANCH   6  15
ENDBRANCH   1  14
BRANCH   4  18
ATOM     18  O   UNL     1       2.762   2.902  19.435  0.00  0.00    +0.000 OA
ATOM     19  H   UNL     1       2.303   2.817  20.292  0.00  0.00    +0.000 HD
ENDBRANCH   4  18
BRANCH   5  20
ATOM     20  O   UNL     1       5.365   2.761  19.311  0.00  0.00    +0.000 OA
ATOM     21  H   UNL     1       5.625   2.264  18.507  0.00  0.00    +0.000 HD
ENDBRANCH   5  20
BRANCH   3  22
ATOM     22  C   UNL     1       2.792   6.581  18.618  0.00  0.00    +0.000 C 
BRANCH  22  23
ATOM     23  S   UNL     1       2.174   6.890  20.316  0.00  0.00    +0.000 S 
BRANCH  23  24
ATOM     24  C   UNL     1       1.351   8.460  20.097  0.00  0.00    +0.000 A 
ATOM     25  C   UNL     1       1.472   9.093  18.865  0.00  0.00    +0.000 A 
ATOM     26  C   UNL     1       0.949  10.372  18.725  0.00  0.00    +0.000 A 
ATOM     27  C   UNL     1       0.378  11.001  19.830  0.00  0.00    +0.000 A 
ATOM     28  C   UNL     1       0.018  12.356  19.777  0.00  0.00    +0.000 A 
ATOM     29  C   UNL     1      -0.443  12.998  20.921  0.00  0.00    +0.000 A 
ATOM     30  C   UNL     1      -0.662  12.264  22.081  0.00  0.00    +0.000 A 
ATOM     31  C   UNL     1      -0.345  10.902  22.114  0.00  0.00    +0.000 A 
ATOM     32  C   UNL     1       0.235  10.264  21.024  0.00  0.00    +0.000 A 
ATOM     33  N   UNL     1       0.691   9.002  21.145  0.00  0.00    +0.000 NA
ENDBRANCH  23  24
ENDBRANCH  22  23
ENDBRANCH   3  22
TORSDOF 7
ENDMDL
MODEL 7
REMARK VINA RESULT:      -7.9      1.736      2.679
REMARK  Name = 
REMARK  7 active torsions:
REMARK  status: ('A' for Active; 'I' for Inactive)
REMARK    1  A    between atoms: N_1  and  C_2
REMARK    2  A    between atoms: N_10  and  C_11
REMARK    3  A    between atoms: C_13  and  C_14
REMARK    4  A    between atoms: C_14  and  S_15
REMARK    5  A    between atoms: S_15  and  C_16
REMARK    6  A    between atoms: C_26  and  O_27
REMARK    7  A    between atoms: C_28  and  O_29
REMARK                            x       y       z     vdW  Elec       q    Type
REMARK                         _______ _______ _______ _____ _____    ______ ____
ROOT
ATOM      1  C   UNL     1       2.617   3.687  19.002  0.00  0.00    +0.000 C 
ATOM      2  O   UNL     1       1.706   4.797  19.046  0.00  0.00    +0.000 OA
ATOM      3  C   UNL     1       1.371   5.080  20.427  0.00  0.00    +0.000 C 
ATOM      4  C   UNL     1       1.937   3.916  21.250  0.00  0.00    +0.000 C 
ATOM      5  C   UNL     1       3.111   3.415  20.420  0.00  0.00    +0.000 C 
ENDROOT
BRANCH   1  14
ATOM      6  C   UNL     1       6.922   4.828  17.088  0.00  0.00    +0.000 A 
ATOM      7  N   UNL     1       7.412   5.422  18.199  0.00  0.00    +0.000 NA
ATOM      8  C   UNL     1       6.612   5.507  19.282  0.00  0.00    +0.000 A 
ATOM      9  N   UNL     1       5.348   5.063  19.425  0.00  0.00    +0.000 NA
ATOM     10  C   UNL     1       4.892   4.513  18.286  0.00  0.00    +0.000 A 
ATOM     11  C   UNL     1       5.599   4.364  17.098  0.00  0.00    +0.000 A 
ATOM     12  N   UNL     1       4.815   3.757  16.139  0.00  0.00    +0.000 NA
ATOM     13  C   UNL     1       3.673   3.519  16.743  0.00  0.00    +0.000 A 
ATOM     14  N   UNL     1       3.678   3.947  18.044  0.00  0.00    +0.000 N 
BRANCH   6  15
ATOM     15  N   UNL     1       7.753   4.707  15.980  0.00  0.00    +0.000 N 
ATOM     16  H   UNL     1       7.684   5.506  15.365  0.00  0.00    +0.000 HD
ATOM     17  H   UNL     1       7.730   3.782  15.566  0.00  0.00    +0.000 HD
ENDBRANCH   6  15
ENDBRANCH   1  14
BRANCH   4  18
ATOM     18  O   UNL     1       0.989   2.833  21.358  0.00  0.00    +0.000 OA
ATOM     19  H   UNL     1       1.361   2.042  20.926  0.00  0.00    +0.000 HD
ENDBRANCH   4  18
BRANCH   5  20
ATOM     20  O   UNL     1       3.363   2.024  20.635  0.00  0.00    +0.000 OA
ATOM     21  H   UNL     1       2.498   1.616  20.851  0.00  0.00    +0.000 HD
ENDBRANCH   5  20
BRANCH   3  22
ATOM     22  C   UNL     1       1.924   6.449  20.848  0.00  0.00    +0.000 C 
BRANCH  22  23
ATOM     23  S   UNL     1       2.205   7.505  19.377  0.00  0.00    +0.000 S 
BRANCH  23  24
ATOM     24  C   UNL     1       1.150   8.897  19.753  0.00  0.00    +0.000 A 
ATOM     25  C   UNL     1       1.046   9.911  18.808  0.00  0.00    +0.000 A 
ATOM     26  C   UNL     1       0.336  11.056  19.143  0.00  0.00    +0.000 A 
ATOM     27  C   UNL     1      -0.196  11.180  20.426  0.00  0.00    +0.000 A 
ATOM     28  C   UNL     1      -0.747  12.395  20.859  0.00  0.00    +0.000 A 
ATOM     29  C   UNL     1      -1.167  12.537  22.177  0.00  0.00    +0.000 A 
ATOM     30  C   UNL     1      -1.154  11.436  23.025  0.00  0.00    +0.000 A 
ATOM     31  C   UNL     1      -0.647  10.213  22.573  0.00  0.00    +0.000 A 
ATOM     32  C   UNL     1      -0.103  10.077  21.301  0.00  0.00    +0.000 A 
ATOM     33  N   UNL     1       0.536   8.943  20.957  0.00  0.00    +0.000 NA
ENDBRANCH  23  24
ENDBRANCH  22  23
ENDBRANCH   3  22
TORSDOF 7
ENDMDL
MODEL 8
REMARK VINA RESULT:      -7.9      0.910      1.801
REMARK  Name = 
REMARK  7 active torsions:
REMARK  status: ('A' for Active; 'I' for Inactive)
REMARK    1  A    between atoms: N_1  and  C_2
REMARK    2  A    between atoms: N_10  and  C_11
REMARK    3  A    between atoms: C_13  and  C_14
REMARK    4  A    between atoms: C_14  and  S_15
REMARK    5  A    between atoms: S_15  and  C_16
REMARK    6  A    between atoms: C_26  and  O_27
REMARK    7  A    between atoms: C_28  and  O_29
REMARK                            x       y       z     vdW  Elec       q    Type
REMARK                         _______ _______ _______ _____ _____    ______ ____
ROOT
ATOM      1  C   UNL     1       4.464   3.853  17.340  0.00  0.00    +0.000 C 
ATOM      2  O   UNL     1       3.308   4.651  17.034  0.00  0.00    +0.000 OA
ATOM      3  C   UNL     1       2.565   4.894  18.253  0.00  0.00    +0.000 C 
ATOM      4  C   UNL     1       3.190   3.988  19.322  0.00  0.00    +0.000 C 
ATOM      5  C   UNL     1       4.628   3.809  18.856  0.00  0.00    +0.000 C 
ENDROOT
BRANCH   1  14
ATOM      6  C   UNL     1       7.526   5.079  13.787  0.00  0.00    +0.000 A 
ATOM      7  N   UNL     1       6.949   4.308  12.839  0.00  0.00    +0.000 NA
ATOM      8  C   UNL     1       5.894   3.544  13.192  0.00  0.00    +0.000 A 
ATOM      9  N   UNL     1       5.304   3.440  14.398  0.00  0.00    +0.000 NA
ATOM     10  C   UNL     1       5.933   4.196  15.317  0.00  0.00    +0.000 A 
ATOM     11  C   UNL     1       7.028   5.022  15.098  0.00  0.00    +0.000 A 
ATOM     12  N   UNL     1       7.408   5.646  16.267  0.00  0.00    +0.000 NA
ATOM     13  C   UNL     1       6.544   5.229  17.164  0.00  0.00    +0.000 A 
ATOM     14  N   UNL     1       5.626   4.361  16.632  0.00  0.00    +0.000 N 
BRANCH   6  15
ATOM     15  N   UNL     1       8.591   5.893  13.422  0.00  0.00    +0.000 N 
ATOM     16  H   UNL     1       8.382   6.448  12.603  0.00  0.00    +0.000 HD
ATOM     17  H   UNL     1       9.486   5.417  13.459  0.00  0.00    +0.000 HD
ENDBRANCH   6  15
ENDBRANCH   1  14
BRANCH   4  18
ATOM     18  O   UNL     1       2.574   2.684  19.337  0.00  0.00    +0.000 OA
ATOM     19  H   UNL     1       2.492   2.360  18.420  0.00  0.00    +0.000 HD
ENDBRANCH   4  18
BRANCH   5  20
ATOM     20  O   UNL     1       5.180   2.564  19.292  0.00  0.00    +0.000 OA
ATOM     21  H   UNL     1       5.400   2.675  20.241  0.00  0.00    +0.000 HD
ENDBRANCH   5  20
BRANCH   3  22
ATOM     22  C   UNL     1       2.601   6.384  18.622  0.00  0.00    +0.000 C 
BRANCH  22  23
ATOM     23  S   UNL     1       2.414   6.599  20.433  0.00  0.00    +0.000 S 
BRANCH  23  24
ATOM     24  C   UNL     1       1.552   8.162  20.500  0.00  0.00    +0.000 A 
ATOM     25  C   UNL     1       1.244   8.684  21.751  0.00  0.00    +0.000 A 
ATOM     26  C   UNL     1       0.461   9.829  21.816  0.00  0.00    +0.000 A 
ATOM     27  C   UNL     1      -0.039  10.382  20.638  0.00  0.00    +0.000 A 
ATOM     28  C   UNL     1      -0.986  11.416  20.677  0.00  0.00    +0.000 A 
ATOM     29  C   UNL     1      -1.560  11.877  19.498  0.00  0.00    +0.000 A 
ATOM     30  C   UNL     1      -1.103  11.398  18.276  0.00  0.00    +0.000 A 
ATOM     31  C   UNL     1      -0.123  10.399  18.242  0.00  0.00    +0.000 A 
ATOM     32  C   UNL     1       0.376   9.830  19.408  0.00  0.00    +0.000 A 
ATOM     33  N   UNL     1       1.182   8.753  19.342  0.00  0.00    +0.000 NA
ENDBRANCH  23  24
ENDBRANCH  22  23
ENDBRANCH   3  22
TORSDOF 7
ENDMDL
MODEL 9
REMARK VINA RESULT:      -7.9      2.212      3.140
REMARK  Name = 
REMARK  7 active torsions:
REMARK  status: ('A' for Active; 'I' for Inactive)
REMARK    1  A    between atoms: N_1  and  C_2
REMARK    2  A    between atoms: N_10  and  C_11
REMARK    3  A    between atoms: C_13  and  C_14
REMARK    4  A    between atoms: C_14  and  S_15
REMARK    5  A    between atoms: S_15  and  C_16
REMARK    6  A    between atoms: C_26  and  O_27
REMARK    7  A    between atoms: C_28  and  O_29
REMARK                            x       y       z     vdW  Elec       q    Type
REMARK                         _______ _______ _______ _____ _____    ______ ____
ROOT
ATOM      1  C   UNL     1       3.299   3.520  18.158  0.00  0.00    +0.000 C 
ATOM      2  O   UNL     1       2.250   4.493  18.299  0.00  0.00    +0.000 OA
ATOM      3  C   UNL     1       1.152   3.901  19.035  0.00  0.00    +0.000 C 
ATOM      4  C   UNL     1       1.467   2.404  19.143  0.00  0.00    +0.000 C 
ATOM      5  C   UNL     1       2.987   2.343  19.077  0.00  0.00    +0.000 C 
ENDROOT
BRANCH   1  14
ATOM      6  C   UNL     1       7.081   6.543  17.927  0.00  0.00    +0.000 A 
ATOM      7  N   UNL     1       6.729   7.111  16.752  0.00  0.00    +0.000 NA
ATOM      8  C   UNL     1       5.621   6.657  16.131  0.00  0.00    +0.000 A 
ATOM      9  N   UNL     1       4.776   5.688  16.531  0.00  0.00    +0.000 NA
ATOM     10  C   UNL     1       5.184   5.129  17.685  0.00  0.00    +0.000 A 
ATOM     11  C   UNL     1       6.303   5.489  18.427  0.00  0.00    +0.000 A 
ATOM     12  N   UNL     1       6.412   4.701  19.554  0.00  0.00    +0.000 NA
ATOM     13  C   UNL     1       5.368   3.906  19.507  0.00  0.00    +0.000 A 
ATOM     14  N   UNL     1       4.591   4.137  18.402  0.00  0.00    +0.000 N 
BRANCH   6  15
ATOM     15  N   UNL     1       8.203   7.029  18.588  0.00  0.00    +0.000 N 
ATOM     16  H   UNL     1       8.638   6.324  19.167  0.00  0.00    +0.000 HD
ATOM     17  H   UNL     1       8.061   7.952  18.985  0.00  0.00    +0.000 HD
ENDBRANCH   6  15
ENDBRANCH   1  14
BRANCH   4  18
ATOM     18  O   UNL     1       0.955   1.672  18.010  0.00  0.00    +0.000 OA
ATOM     19  H   UNL     1       0.413   0.928  18.332  0.00  0.00    +0.000 HD
ENDBRANCH   4  18
BRANCH   5  20
ATOM     20  O   UNL     1       3.449   1.106  18.528  0.00  0.00    +0.000 OA
ATOM     21  H   UNL     1       3.942   1.333  17.712  0.00  0.00    +0.000 HD
ENDBRANCH   5  20
BRANCH   3  22
ATOM     22  C   UNL     1       0.983   4.587  20.399  0.00  0.00    +0.000 C 
BRANCH  22  23
ATOM     23  S   UNL     1       2.390   5.716  20.724  0.00  0.00    +0.000 S 
BRANCH  23  24
ATOM     24  C   UNL     1       1.568   7.302  20.681  0.00  0.00    +0.000 A 
ATOM     25  C   UNL     1       0.596   7.559  21.640  0.00  0.00    +0.000 A 
ATOM     26  C   UNL     1      -0.141   8.731  21.538  0.00  0.00    +0.000 A 
ATOM     27  C   UNL     1       0.073   9.579  20.452  0.00  0.00    +0.000 A 
ATOM     28  C   UNL     1      -0.781  10.666  20.212  0.00  0.00    +0.000 A 
ATOM     29  C   UNL     1      -0.625  11.433  19.063  0.00  0.00    +0.000 A 
ATOM     30  C   UNL     1       0.454  11.195  18.219  0.00  0.00    +0.000 A 
ATOM     31  C   UNL     1       1.331  10.138  18.488  0.00  0.00    +0.000 A 
ATOM     32  C   UNL     1       1.124   9.278  19.561  0.00  0.00    +0.000 A 
ATOM     33  N   UNL     1       1.878   8.169  19.691  0.00  0.00    +0.000 NA
ENDBRANCH  23  24
ENDBRANCH  22  23
ENDBRANCH   3  22
TORSDOF 7
ENDMDL
