MODEL 1
REMARK VINA RESULT:      -6.3      0.000      0.000
REMARK  Name = 
REMARK  6 active torsions:
REMARK  status: ('A' for Active; 'I' for Inactive)
REMARK    1  A    between atoms: C_2  and  C_3
REMARK    2  A    between atoms: C_3  and  C_4
REMARK    3  A    between atoms: C_10  and  O_11
REMARK    4  A    between atoms: C_12  and  O_13
REMARK    5  A    between atoms: C_14  and  C_15
REMARK    6  A    between atoms: C_15  and  N_16
REMARK                            x       y       z     vdW  Elec       q    Type
REMARK                         _______ _______ _______ _____ _____    ______ ____
ROOT
ATOM      1  C   UNL     1       2.777   5.903  19.721  0.00  0.00    +0.000 C 
ATOM      2  C   UNL     1       3.929   4.945  19.424  0.00  0.00    +0.000 C 
ATOM      3  C   UNL     1       4.722   5.374  18.216  0.00  0.00    +0.000 A 
ATOM      4  C   UNL     1       4.172   6.282  17.288  0.00  0.00    +0.000 A 
ATOM      5  C   UNL     1       4.888   6.598  16.118  0.00  0.00    +0.000 A 
ATOM      6  C   UNL     1       6.136   6.022  15.866  0.00  0.00    +0.000 A 
ATOM      7  C   UNL     1       6.666   5.130  16.787  0.00  0.00    +0.000 A 
ATOM      8  C   UNL     1       5.965   4.807  17.948  0.00  0.00    +0.000 A 
ATOM      9  C   UNL     1       2.815   6.917  17.545  0.00  0.00    +0.000 C 
ATOM     10  O   UNL     1       2.060   6.157  18.502  0.00  0.00    +0.000 OA
ENDROOT
BRANCH   7  11
ATOM     11  O   UNL     1       7.880   4.526  16.591  0.00  0.00    +0.000 OA
ATOM     12  H   UNL     1       8.255   4.867  15.763  0.00  0.00    +0.000 HD
ENDBRANCH   7  11
BRANCH   8  13
ATOM     13  O   UNL     1       6.510   3.907  18.822  0.00  0.00    +0.000 OA
ATOM     14  H   UNL     1       7.114   4.440  19.375  0.00  0.00    +0.000 HD
ENDBRANCH   8  13
BRANCH   1  15
ATOM     15  C   UNL     1       1.816   5.274  20.742  0.00  0.00    +0.000 C 
BRANCH  15  17
ATOM     16  C   UNL     1       0.751   2.892  19.660  0.00  0.00    +0.000 C 
ATOM     17  C   UNL     1       1.242   3.991  20.159  0.00  0.00    +0.000 C 
ENDBRANCH  15  17
ENDBRANCH   1  15
BRANCH   9  18
ATOM     18  C   UNL     1       2.944   8.423  17.929  0.00  0.00    +0.000 C 
BRANCH  18  19
ATOM     19  N   UNL     1       1.860   9.274  17.421  0.00  0.00    +0.000 NA
ATOM     20  H   UNL     1       0.980   9.022  17.863  0.00  0.00    +0.000 HD
ATOM     21  H   UNL     1       1.751   9.139  16.419  0.00  0.00    +0.000 HD
ENDBRANCH  18  19
ENDBRANCH   9  18
TORSDOF 6
ENDMDL
MODEL 2
REMARK VINA RESULT:      -6.2      2.651      5.384
REMARK  Name = 
REMARK  6 active torsions:
REMARK  status: ('A' for Active; 'I' for Inactive)
REMARK    1  A    between atoms: C_2  and  C_3
REMARK    2  A    between atoms: C_3  and  C_4
REMARK    3  A    between atoms: C_10  and  O_11
REMARK    4  A    between atoms: C_12  and  O_13
REMARK    5  A    between atoms: C_14  and  C_15
REMARK    6  A    between atoms: C_15  and  N_16
REMARK                            x       y       z     vdW  Elec       q    Type
REMARK                         _______ _______ _______ _____ _____    ______ ____
ROOT
ATOM      1  C   UNL     1       6.017   4.786  15.449  0.00  0.00    +0.000 C 
ATOM      2  C   UNL     1       4.822   3.937  15.880  0.00  0.00    +0.000 C 
ATOM      3  C   UNL     1       4.259   4.388  17.203  0.00  0.00    +0.000 A 
ATOM      4  C   UNL     1       5.028   5.190  18.069  0.00  0.00    +0.000 A 
ATOM      5  C   UNL     1       4.522   5.522  19.340  0.00  0.00    +0.000 A 
ATOM      6  C   UNL     1       3.268   5.065  19.753  0.00  0.00    +0.000 A 
ATOM      7  C   UNL     1       2.520   4.276  18.890  0.00  0.00    +0.000 A 
ATOM      8  C   UNL     1       3.012   3.938  17.630  0.00  0.00    +0.000 A 
ATOM      9  C   UNL     1       6.395   5.695  17.638  0.00  0.00    +0.000 C 
ATOM     10  O   UNL     1       6.922   4.908  16.558  0.00  0.00    +0.000 OA
ENDROOT
BRANCH   7  11
ATOM     11  O   UNL     1       1.289   3.790  19.241  0.00  0.00    +0.000 OA
ATOM     12  H   UNL     1       0.802   4.499  19.692  0.00  0.00    +0.000 HD
ENDBRANCH   7  11
BRANCH   8  13
ATOM     13  O   UNL     1       2.256   3.141  16.816  0.00  0.00    +0.000 OA
ATOM     14  H   UNL     1       2.896   2.516  16.425  0.00  0.00    +0.000 HD
ENDBRANCH   8  13
BRANCH   1  15
ATOM     15  C   UNL     1       6.751   4.111  14.280  0.00  0.00    +0.000 C 
BRANCH  15  17
ATOM     16  C   UNL     1       4.887   3.507  12.246  0.00  0.00    +0.000 C 
ATOM     17  C   UNL     1       5.748   3.786  13.185  0.00  0.00    +0.000 C 
ENDBRANCH  15  17
ENDBRANCH   1  15
BRANCH   9  18
ATOM     18  C   UNL     1       6.376   7.224  17.326  0.00  0.00    +0.000 C 
BRANCH  18  19
ATOM     19  N   UNL     1       7.705   7.830  17.178  0.00  0.00    +0.000 NA
ATOM     20  H   UNL     1       7.728   8.741  17.630  0.00  0.00    +0.000 HD
ATOM     21  H   UNL     1       7.917   7.969  16.193  0.00  0.00    +0.000 HD
ENDBRANCH  18  19
ENDBRANCH   9  18
TORSDOF 6
ENDMDL
MODEL 3
REMARK VINA RESULT:      -6.1      2.943      5.158
REMARK  Name = 
REMARK  6 active torsions:
REMARK  status: ('A' for Active; 'I' for Inactive)
REMARK    1  A    between atoms: C_2  and  C_3
REMARK    2  A    between atoms: C_3  and  C_4
REMARK    3  A    between atoms: C_10  and  O_11
REMARK    4  A    between atoms: C_12  and  O_13
REMARK    5  A    between atoms: C_14  and  C_15
REMARK    6  A    between atoms: C_15  and  N_16
REMARK                            x       y       z     vdW  Elec       q    Type
REMARK                         _______ _______ _______ _____ _____    ______ ____
ROOT
ATOM      1  C   UNL     1       6.723   5.108  18.138  0.00  0.00    +0.000 C 
ATOM      2  C   UNL     1       5.875   4.340  19.151  0.00  0.00    +0.000 C 
ATOM      3  C   UNL     1       4.630   3.767  18.523  0.00  0.00    +0.000 A 
ATOM      4  C   UNL     1       4.158   4.266  17.293  0.00  0.00    +0.000 A 
ATOM      5  C   UNL     1       2.943   3.785  16.770  0.00  0.00    +0.000 A 
ATOM      6  C   UNL     1       2.201   2.819  17.455  0.00  0.00    +0.000 A 
ATOM      7  C   UNL     1       2.677   2.336  18.665  0.00  0.00    +0.000 A 
ATOM      8  C   UNL     1       3.878   2.807  19.195  0.00  0.00    +0.000 A 
ATOM      9  C   UNL     1       4.950   5.317  16.534  0.00  0.00    +0.000 C 
ATOM     10  O   UNL     1       5.871   5.998  17.401  0.00  0.00    +0.000 OA
ENDROOT
BRANCH   7  11
ATOM     11  O   UNL     1       1.990   1.397  19.388  0.00  0.00    +0.000 OA
ATOM     12  H   UNL     1       1.043   1.512  19.209  0.00  0.00    +0.000 HD
ENDBRANCH   7  11
BRANCH   8  13
ATOM     13  O   UNL     1       4.304   2.323  20.401  0.00  0.00    +0.000 OA
ATOM     14  H   UNL     1       4.184   3.070  21.019  0.00  0.00    +0.000 HD
ENDBRANCH   8  13
BRANCH   1  15
ATOM     15  C   UNL     1       7.796   5.933  18.866  0.00  0.00    +0.000 C 
BRANCH  15  17
ATOM     16  C   UNL     1       7.975   8.480  17.659  0.00  0.00    +0.000 C 
ATOM     17  C   UNL     1       7.892   7.305  18.216  0.00  0.00    +0.000 C 
ENDBRANCH  15  17
ENDBRANCH   1  15
BRANCH   9  18
ATOM     18  C   UNL     1       5.634   4.722  15.265  0.00  0.00    +0.000 C 
BRANCH  18  19
ATOM     19  N   UNL     1       6.717   5.548  14.715  0.00  0.00    +0.000 NA
ATOM     20  H   UNL     1       6.339   6.409  14.327  0.00  0.00    +0.000 HD
ATOM     21  H   UNL     1       7.186   5.051  13.961  0.00  0.00    +0.000 HD
ENDBRANCH  18  19
ENDBRANCH   9  18
TORSDOF 6
ENDMDL
MODEL 4
REMARK VINA RESULT:      -6.1      2.251      4.994
REMARK  Name = 
REMARK  6 active torsions:
REMARK  status: ('A' for Active; 'I' for Inactive)
REMARK    1  A    between atoms: C_2  and  C_3
REMARK    2  A    between atoms: C_3  and  C_4
REMARK    3  A    between atoms: C_10  and  O_11
REMARK    4  A    between atoms: C_12  and  O_13
REMARK    5  A    between atoms: C_14  and  C_15
REMARK    6  A    between atoms: C_15  and  N_16
REMARK                            x       y       z     vdW  Elec       q    Type
REMARK                         _______ _______ _______ _____ _____    ______ ____
ROOT
ATOM      1  C   UNL     1       4.483   5.612  16.959  0.00  0.00    +0.000 C 
ATOM      2  C   UNL     1       4.016   4.161  17.058  0.00  0.00    +0.000 C 
ATOM      3  C   UNL     1       2.858   4.006  18.010  0.00  0.00    +0.000 A 
ATOM      4  C   UNL     1       2.580   5.006  18.963  0.00  0.00    +0.000 A 
ATOM      5  C   UNL     1       1.555   4.801  19.906  0.00  0.00    +0.000 A 
ATOM      6  C   UNL     1       0.811   3.618  19.908  0.00  0.00    +0.000 A 
ATOM      7  C   UNL     1       1.095   2.641  18.965  0.00  0.00    +0.000 A 
ATOM      8  C   UNL     1       2.110   2.831  18.028  0.00  0.00    +0.000 A 
ATOM      9  C   UNL     1       3.379   6.299  18.976  0.00  0.00    +0.000 C 
ATOM     10  O   UNL     1       4.628   6.143  18.285  0.00  0.00    +0.000 OA
ENDROOT
BRANCH   7  11
ATOM     11  O   UNL     1       0.408   1.457  18.923  0.00  0.00    +0.000 OA
ATOM     12  H   UNL     1       0.341   1.180  17.994  0.00  0.00    +0.000 HD
ENDBRANCH   7  11
BRANCH   8  13
ATOM     13  O   UNL     1       2.375   1.836  17.127  0.00  0.00    +0.000 OA
ATOM     14  H   UNL     1       2.114   1.016  17.588  0.00  0.00    +0.000 HD
ENDBRANCH   8  13
BRANCH   1  15
ATOM     15  C   UNL     1       5.841   5.682  16.243  0.00  0.00    +0.000 C 
BRANCH  15  17
ATOM     16  C   UNL     1       5.740   4.085  13.916  0.00  0.00    +0.000 C 
ATOM     17  C   UNL     1       5.787   4.822  14.990  0.00  0.00    +0.000 C 
ENDBRANCH  15  17
ENDBRANCH   1  15
BRANCH   9  18
ATOM     18  C   UNL     1       2.538   7.504  18.452  0.00  0.00    +0.000 C 
BRANCH  18  19
ATOM     19  N   UNL     1       1.882   8.290  19.505  0.00  0.00    +0.000 NA
ATOM     20  H   UNL     1       1.080   8.786  19.125  0.00  0.00    +0.000 HD
ATOM     21  H   UNL     1       2.526   8.985  19.875  0.00  0.00    +0.000 HD
ENDBRANCH  18  19
ENDBRANCH   9  18
TORSDOF 6
ENDMDL
MODEL 5
REMARK VINA RESULT:      -6.1      2.796      5.379
REMARK  Name = 
REMARK  6 active torsions:
REMARK  status: ('A' for Active; 'I' for Inactive)
REMARK    1  A    between atoms: C_2  and  C_3
REMARK    2  A    between atoms: C_3  and  C_4
REMARK    3  A    between atoms: C_10  and  O_11
REMARK    4  A    between atoms: C_12  and  O_13
REMARK    5  A    between atoms: C_14  and  C_15
REMARK    6  A    between atoms: C_15  and  N_16
REMARK                            x       y       z     vdW  Elec       q    Type
REMARK                         _______ _______ _______ _____ _____    ______ ____
ROOT
ATOM      1  C   UNL     1       6.427   5.037  18.475  0.00  0.00    +0.000 C 
ATOM      2  C   UNL     1       5.298   5.190  19.493  0.00  0.00    +0.000 C 
ATOM      3  C   UNL     1       3.980   4.700  18.950  0.00  0.00    +0.000 A 
ATOM      4  C   UNL     1       3.794   4.544  17.562  0.00  0.00    +0.000 A 
ATOM      5  C   UNL     1       2.528   4.176  17.068  0.00  0.00    +0.000 A 
ATOM      6  C   UNL     1       1.454   3.965  17.937  0.00  0.00    +0.000 A 
ATOM      7  C   UNL     1       1.650   4.122  19.301  0.00  0.00    +0.000 A 
ATOM      8  C   UNL     1       2.899   4.489  19.802  0.00  0.00    +0.000 A 
ATOM      9  C   UNL     1       4.950   4.769  16.601  0.00  0.00    +0.000 C 
ATOM     10  O   UNL     1       5.984   5.558  17.211  0.00  0.00    +0.000 OA
ENDROOT
BRANCH   7  11
ATOM     11  O   UNL     1       0.635   3.940  20.202  0.00  0.00    +0.000 OA
ATOM     12  H   UNL     1       0.398   2.998  20.202  0.00  0.00    +0.000 HD
ENDBRANCH   7  11
BRANCH   8  13
ATOM     13  O   UNL     1       3.048   4.655  21.152  0.00  0.00    +0.000 OA
ATOM     14  H   UNL     1       3.195   3.752  21.494  0.00  0.00    +0.000 HD
ENDBRANCH   8  13
BRANCH   1  15
ATOM     15  C   UNL     1       7.663   5.826  18.934  0.00  0.00    +0.000 C 
BRANCH  15  17
ATOM     16  C   UNL     1       7.763   8.278  17.535  0.00  0.00    +0.000 C 
ATOM     17  C   UNL     1       7.716   7.146  18.181  0.00  0.00    +0.000 C 
ENDBRANCH  15  17
ENDBRANCH   1  15
BRANCH   9  18
ATOM     18  C   UNL     1       5.477   3.428  16.004  0.00  0.00    +0.000 C 
BRANCH  18  19
ATOM     19  N   UNL     1       6.220   3.574  14.746  0.00  0.00    +0.000 NA
ATOM     20  H   UNL     1       7.114   3.093  14.807  0.00  0.00    +0.000 HD
ATOM     21  H   UNL     1       6.410   4.557  14.565  0.00  0.00    +0.000 HD
ENDBRANCH  18  19
ENDBRANCH   9  18
TORSDOF 6
ENDMDL
MODEL 6
REMARK VINA RESULT:      -6.1      2.743      5.581
REMARK  Name = 
REMARK  6 active torsions:
REMARK  status: ('A' for Active; 'I' for Inactive)
REMARK    1  A    between atoms: C_2  and  C_3
REMARK    2  A    between atoms: C_3  and  C_4
REMARK    3  A    between atoms: C_10  and  O_11
REMARK    4  A    between atoms: C_12  and  O_13
REMARK    5  A    between atoms: C_14  and  C_15
REMARK    6  A    between atoms: C_15  and  N_16
REMARK                            x       y       z     vdW  Elec       q    Type
REMARK                         _______ _______ _______ _____ _____    ______ ____
ROOT
ATOM      1  C   UNL     1       5.201   5.565  16.659  0.00  0.00    +0.000 C 
ATOM      2  C   UNL     1       3.859   4.835  16.637  0.00  0.00    +0.000 C 
ATOM      3  C   UNL     1       3.590   4.112  17.932  0.00  0.00    +0.000 A 
ATOM      4  C   UNL     1       4.646   3.827  18.822  0.00  0.00    +0.000 A 
ATOM      5  C   UNL     1       4.392   3.068  19.980  0.00  0.00    +0.000 A 
ATOM      6  C   UNL     1       3.107   2.594  20.257  0.00  0.00    +0.000 A 
ATOM      7  C   UNL     1       2.077   2.881  19.373  0.00  0.00    +0.000 A 
ATOM      8  C   UNL     1       2.316   3.629  18.221  0.00  0.00    +0.000 A 
ATOM      9  C   UNL     1       6.050   4.334  18.537  0.00  0.00    +0.000 C 
ATOM     10  O   UNL     1       6.209   4.666  17.148  0.00  0.00    +0.000 OA
ENDROOT
BRANCH   7  11
ATOM     11  O   UNL     1       0.799   2.435  19.584  0.00  0.00    +0.000 OA
ATOM     12  H   UNL     1       0.450   2.883  20.372  0.00  0.00    +0.000 HD
ENDBRANCH   7  11
BRANCH   8  13
ATOM     13  O   UNL     1       1.280   3.873  17.362  0.00  0.00    +0.000 OA
ATOM     14  H   UNL     1       0.628   3.175  17.563  0.00  0.00    +0.000 HD
ENDBRANCH   8  13
BRANCH   1  15
ATOM     15  C   UNL     1       5.581   6.014  15.239  0.00  0.00    +0.000 C 
BRANCH  15  17
ATOM     16  C   UNL     1       6.172   3.736  13.679  0.00  0.00    +0.000 C 
ATOM     17  C   UNL     1       5.900   4.788  14.399  0.00  0.00    +0.000 C 
ENDBRANCH  15  17
ENDBRANCH   1  15
BRANCH   9  18
ATOM     18  C   UNL     1       6.450   5.500  19.492  0.00  0.00    +0.000 C 
BRANCH  18  19
ATOM     19  N   UNL     1       7.795   5.379  20.067  0.00  0.00    +0.000 NA
ATOM     20  H   UNL     1       8.123   6.287  20.389  0.00  0.00    +0.000 HD
ATOM     21  H   UNL     1       8.449   5.049  19.361  0.00  0.00    +0.000 HD
ENDBRANCH  18  19
ENDBRANCH   9  18
TORSDOF 6
ENDMDL
MODEL 7
REMARK VINA RESULT:      -6.1      2.719      3.910
REMARK  Name = 
REMARK  6 active torsions:
REMARK  status: ('A' for Active; 'I' for Inactive)
REMARK    1  A    between atoms: C_2  and  C_3
REMARK    2  A    between atoms: C_3  and  C_4
REMARK    3  A    between atoms: C_10  and  O_11
REMARK    4  A    between atoms: C_12  and  O_13
REMARK    5  A    between atoms: C_14  and  C_15
REMARK    6  A    between atoms: C_15  and  N_16
REMARK                            x       y       z     vdW  Elec       q    Type
REMARK                         _______ _______ _______ _____ _____    ______ ____
ROOT
ATOM      1  C   UNL     1       3.117   5.968  18.817  0.00  0.00    +0.000 C 
ATOM      2  C   UNL     1       3.844   6.588  17.625  0.00  0.00    +0.000 C 
ATOM      3  C   UNL     1       5.035   5.767  17.202  0.00  0.00    +0.000 A 
ATOM      4  C   UNL     1       5.596   4.821  18.082  0.00  0.00    +0.000 A 
ATOM      5  C   UNL     1       6.765   4.132  17.706  0.00  0.00    +0.000 A 
ATOM      6  C   UNL     1       7.374   4.375  16.472  0.00  0.00    +0.000 A 
ATOM      7  C   UNL     1       6.811   5.310  15.615  0.00  0.00    +0.000 A 
ATOM      8  C   UNL     1       5.655   6.001  15.977  0.00  0.00    +0.000 A 
ATOM      9  C   UNL     1       4.949   4.543  19.429  0.00  0.00    +0.000 C 
ATOM     10  O   UNL     1       4.085   5.622  19.820  0.00  0.00    +0.000 OA
ENDROOT
BRANCH   7  11
ATOM     11  O   UNL     1       7.366   5.599  14.397  0.00  0.00    +0.000 OA
ATOM     12  H   UNL     1       7.031   6.464  14.111  0.00  0.00    +0.000 HD
ENDBRANCH   7  11
BRANCH   8  13
ATOM     13  O   UNL     1       5.141   6.930  15.115  0.00  0.00    +0.000 OA
ATOM     14  H   UNL     1       4.221   7.059  15.416  0.00  0.00    +0.000 HD
ENDBRANCH   8  13
BRANCH   1  15
ATOM     15  C   UNL     1       2.122   6.977  19.413  0.00  0.00    +0.000 C 
BRANCH  15  17
ATOM     16  C   UNL     1       2.038   9.270  17.767  0.00  0.00    +0.000 C 
ATOM     17  C   UNL     1       2.077   8.212  18.527  0.00  0.00    +0.000 C 
ENDBRANCH  15  17
ENDBRANCH   1  15
BRANCH   9  18
ATOM     18  C   UNL     1       4.241   3.154  19.455  0.00  0.00    +0.000 C 
BRANCH  18  19
ATOM     19  N   UNL     1       5.042   2.075  20.048  0.00  0.00    +0.000 NA
ATOM     20  H   UNL     1       5.881   1.916  19.495  0.00  0.00    +0.000 HD
ATOM     21  H   UNL     1       4.510   1.209  20.057  0.00  0.00    +0.000 HD
ENDBRANCH  18  19
ENDBRANCH   9  18
TORSDOF 6
ENDMDL
MODEL 8
REMARK VINA RESULT:      -6.1      2.241      5.071
REMARK  Name = 
REMARK  6 active torsions:
REMARK  status: ('A' for Active; 'I' for Inactive)
REMARK    1  A    between atoms: C_2  and  C_3
REMARK    2  A    between atoms: C_3  and  C_4
REMARK    3  A    between atoms: C_10  and  O_11
REMARK    4  A    between atoms: C_12  and  O_13
REMARK    5  A    between atoms: C_14  and  C_15
REMARK    6  A    between atoms: C_15  and  N_16
REMARK                            x       y       z     vdW  Elec       q    Type
REMARK                         _______ _______ _______ _____ _____    ______ ____
ROOT
ATOM      1  C   UNL     1       4.507   5.629  17.006  0.00  0.00    +0.000 C 
ATOM      2  C   UNL     1       4.015   4.184  17.068  0.00  0.00    +0.000 C 
ATOM      3  C   UNL     1       2.866   4.021  18.030  0.00  0.00    +0.000 A 
ATOM      4  C   UNL     1       2.617   4.998  19.015  0.00  0.00    +0.000 A 
ATOM      5  C   UNL     1       1.600   4.783  19.964  0.00  0.00    +0.000 A 
ATOM      6  C   UNL     1       0.835   3.614  19.941  0.00  0.00    +0.000 A 
ATOM      7  C   UNL     1       1.091   2.660  18.967  0.00  0.00    +0.000 A 
ATOM      8  C   UNL     1       2.097   2.860  18.023  0.00  0.00    +0.000 A 
ATOM      9  C   UNL     1       3.439   6.276  19.056  0.00  0.00    +0.000 C 
ATOM     10  O   UNL     1       4.677   6.118  18.345  0.00  0.00    +0.000 OA
ENDROOT
BRANCH   7  11
ATOM     11  O   UNL     1       0.382   1.489  18.899  0.00  0.00    +0.000 OA
ATOM     12  H   UNL     1      -0.465   1.623  19.354  0.00  0.00    +0.000 HD
ENDBRANCH   7  11
BRANCH   8  13
ATOM     13  O   UNL     1       2.334   1.887  17.091  0.00  0.00    +0.000 OA
ATOM     14  H   UNL     1       2.361   1.058  17.606  0.00  0.00    +0.000 HD
ENDBRANCH   8  13
BRANCH   1  15
ATOM     15  C   UNL     1       5.857   5.697  16.275  0.00  0.00    +0.000 C 
BRANCH  15  17
ATOM     16  C   UNL     1       7.563   7.476  17.654  0.00  0.00    +0.000 C 
ATOM     17  C   UNL     1       6.776   6.655  17.018  0.00  0.00    +0.000 C 
ENDBRANCH  15  17
ENDBRANCH   1  15
BRANCH   9  18
ATOM     18  C   UNL     1       2.614   7.510  18.578  0.00  0.00    +0.000 C 
BRANCH  18  19
ATOM     19  N   UNL     1       1.894   8.211  19.649  0.00  0.00    +0.000 NA
ATOM     20  H   UNL     1       2.236   7.908  20.558  0.00  0.00    +0.000 HD
ATOM     21  H   UNL     1       0.902   7.992  19.604  0.00  0.00    +0.000 HD
ENDBRANCH  18  19
ENDBRANCH   9  18
TORSDOF 6
ENDMDL
MODEL 9
REMARK VINA RESULT:      -6.0      1.947      2.250
REMARK  Name = 
REMARK  6 active torsions:
REMARK  status: ('A' for Active; 'I' for Inactive)
REMARK    1  A    between atoms: C_2  and  C_3
REMARK    2  A    between atoms: C_3  and  C_4
REMARK    3  A    between atoms: C_10  and  O_11
REMARK    4  A    between atoms: C_12  and  O_13
REMARK    5  A    between atoms: C_14  and  C_15
REMARK    6  A    between atoms: C_15  and  N_16
REMARK                            x       y       z     vdW  Elec       q    Type
REMARK                         _______ _______ _______ _____ _____    ______ ____
ROOT
ATOM      1  C   UNL     1       2.957   3.507  18.685  0.00  0.00    +0.000 C 
ATOM      2  C   UNL     1       3.864   3.147  17.510  0.00  0.00    +0.000 C 
ATOM      3  C   UNL     1       4.510   4.366  16.903  0.00  0.00    +0.000 A 
ATOM      4  C   UNL     1       3.979   5.649  17.145  0.00  0.00    +0.000 A 
ATOM      5  C   UNL     1       4.537   6.765  16.494  0.00  0.00    +0.000 A 
ATOM      6  C   UNL     1       5.611   6.616  15.612  0.00  0.00    +0.000 A 
ATOM      7  C   UNL     1       6.125   5.348  15.383  0.00  0.00    +0.000 A 
ATOM      8  C   UNL     1       5.578   4.234  16.019  0.00  0.00    +0.000 A 
ATOM      9  C   UNL     1       2.811   5.830  18.100  0.00  0.00    +0.000 C 
ATOM     10  O   UNL     1       2.104   4.595  18.295  0.00  0.00    +0.000 OA
ENDROOT
BRANCH   7  11
ATOM     11  O   UNL     1       7.169   5.137  14.522  0.00  0.00    +0.000 OA
ATOM     12  H   UNL     1       7.995   5.324  14.998  0.00  0.00    +0.000 HD
ENDBRANCH   7  11
BRANCH   8  13
ATOM     13  O   UNL     1       6.097   2.997  15.751  0.00  0.00    +0.000 OA
ATOM     14  H   UNL     1       5.901   2.851  14.806  0.00  0.00    +0.000 HD
ENDBRANCH   8  13
BRANCH   1  15
ATOM     15  C   UNL     1       2.082   2.301  19.066  0.00  0.00    +0.000 C 
BRANCH  15  17
ATOM     16  C   UNL     1       1.307   2.543  21.771  0.00  0.00    +0.000 C 
ATOM     17  C   UNL     1       1.665   2.432  20.522  0.00  0.00    +0.000 C 
ENDBRANCH  15  17
ENDBRANCH   1  15
BRANCH   9  18
ATOM     18  C   UNL     1       3.256   6.496  19.439  0.00  0.00    +0.000 C 
BRANCH  18  19
ATOM     19  N   UNL     1       2.199   6.581  20.455  0.00  0.00    +0.000 NA
ATOM     20  H   UNL     1       1.765   7.500  20.434  0.00  0.00    +0.000 HD
ATOM     21  H   UNL     1       2.595   6.448  21.382  0.00  0.00    +0.000 HD
ENDBRANCH  18  19
ENDBRANCH   9  18
TORSDOF 6
ENDMDL
