MODEL 1
REMARK VINA RESULT:      -6.3      0.000      0.000
REMARK  Name = 
REMARK  7 active torsions:
REMARK  status: ('A' for Active; 'I' for Inactive)
REMARK    1  A    between atoms: C_1  and  O_2
REMARK    2  A    between atoms: O_2  and  C_3
REMARK    3  A    between atoms: C_8  and  O_9
REMARK    4  A    between atoms: O_9  and  C_10
REMARK    5  A    between atoms: C_10  and  C_11
REMARK    6  A    between atoms: C_16  and  C_18
REMARK    7  A    between atoms: C_18  and  S_19
REMARK                            x       y       z     vdW  Elec       q    Type
REMARK                         _______ _______ _______ _____ _____    ______ ____
ROOT
ATOM      1  C   UNL     1       3.852   3.501  18.199  0.00  0.00    +0.000 C 
ENDROOT
BRANCH   1   2
ATOM      2  C   UNL     1       2.460   4.166  18.248  0.00  0.00    +0.000 C 
ATOM      3  S   UNL     1       1.225   2.871  18.624  0.00  0.00    +0.000 S 
ATOM      4  C   UNL     1       1.551   2.974  20.402  0.00  0.00    +0.000 C 
ATOM      5  C   UNL     1       2.000   4.414  20.644  0.00  0.00    +0.000 C 
ATOM      6  N   UNL     1       2.309   5.075  19.378  0.00  0.00    +0.000 N 
ATOM      7  C   UNL     1       2.386   6.460  19.334  0.00  0.00    +0.000 C 
ATOM      8  O   UNL     1       2.272   7.128  20.363  0.00  0.00    +0.000 OA
BRANCH   7   9
ATOM      9  C   UNL     1       2.527   7.097  17.953  0.00  0.00    +0.000 C 
BRANCH   9  10
ATOM     10  S   UNL     1       2.027   8.842  17.929  0.00  0.00    +0.000 S 
ATOM     11  H   UNL     1       0.796   8.640  18.426  0.00  0.00    +0.000 HD
ENDBRANCH   9  10
ENDBRANCH   7   9
ENDBRANCH   1   2
BRANCH   1  12
ATOM     12  O   UNL     1       4.650   3.966  17.109  0.00  0.00    +0.000 OA
BRANCH  12  18
ATOM     13  C   UNL     1       6.411   5.687  16.596  0.00  0.00    +0.000 A 
ATOM     14  C   UNL     1       7.379   6.543  17.141  0.00  0.00    +0.000 A 
ATOM     15  C   UNL     1       7.699   6.483  18.495  0.00  0.00    +0.000 A 
ATOM     16  C   UNL     1       7.028   5.587  19.322  0.00  0.00    +0.000 A 
ATOM     17  C   UNL     1       6.021   4.772  18.799  0.00  0.00    +0.000 A 
ATOM     18  C   UNL     1       5.685   4.821  17.439  0.00  0.00    +0.000 A 
BRANCH  13  20
ATOM     19  C   UNL     1       6.841   4.825  14.435  0.00  0.00    +0.000 C 
ATOM     20  O   UNL     1       6.135   5.757  15.254  0.00  0.00    +0.000 OA
ENDBRANCH  13  20
ENDBRANCH  12  18
ENDBRANCH   1  12
TORSDOF 6
ENDMDL
MODEL 2
REMARK VINA RESULT:      -6.3      1.329      2.292
REMARK  Name = 
REMARK  7 active torsions:
REMARK  status: ('A' for Active; 'I' for Inactive)
REMARK    1  A    between atoms: C_1  and  O_2
REMARK    2  A    between atoms: O_2  and  C_3
REMARK    3  A    between atoms: C_8  and  O_9
REMARK    4  A    between atoms: O_9  and  C_10
REMARK    5  A    between atoms: C_10  and  C_11
REMARK    6  A    between atoms: C_16  and  C_18
REMARK    7  A    between atoms: C_18  and  S_19
REMARK                            x       y       z     vdW  Elec       q    Type
REMARK                         _______ _______ _______ _____ _____    ______ ____
ROOT
ATOM      1  C   UNL     1       3.990   3.210  19.000  0.00  0.00    +0.000 C 
ENDROOT
BRANCH   1   2
ATOM      2  C   UNL     1       2.548   3.753  18.915  0.00  0.00    +0.000 C 
ATOM      3  S   UNL     1       1.409   2.427  19.451  0.00  0.00    +0.000 S 
ATOM      4  C   UNL     1       1.661   2.817  21.201  0.00  0.00    +0.000 C 
ATOM      5  C   UNL     1       1.982   4.310  21.235  0.00  0.00    +0.000 C 
ATOM      6  N   UNL     1       2.281   4.803  19.893  0.00  0.00    +0.000 N 
ATOM      7  C   UNL     1       2.248   6.168  19.644  0.00  0.00    +0.000 C 
ATOM      8  O   UNL     1       2.041   6.967  20.558  0.00  0.00    +0.000 OA
BRANCH   7   9
ATOM      9  C   UNL     1       2.386   6.604  18.187  0.00  0.00    +0.000 C 
BRANCH   9  10
ATOM     10  S   UNL     1       2.252   8.402  17.975  0.00  0.00    +0.000 S 
ATOM     11  H   UNL     1       3.475   8.689  18.450  0.00  0.00    +0.000 HD
ENDBRANCH   9  10
ENDBRANCH   7   9
ENDBRANCH   1   2
BRANCH   1  12
ATOM     12  O   UNL     1       4.976   4.240  18.913  0.00  0.00    +0.000 OA
BRANCH  12  18
ATOM     13  C   UNL     1       7.003   4.544  17.457  0.00  0.00    +0.000 A 
ATOM     14  C   UNL     1       7.485   4.553  16.139  0.00  0.00    +0.000 A 
ATOM     15  C   UNL     1       6.607   4.470  15.061  0.00  0.00    +0.000 A 
ATOM     16  C   UNL     1       5.240   4.343  15.295  0.00  0.00    +0.000 A 
ATOM     17  C   UNL     1       4.758   4.275  16.603  0.00  0.00    +0.000 A 
ATOM     18  C   UNL     1       5.628   4.355  17.700  0.00  0.00    +0.000 A 
BRANCH  13  20
ATOM     19  C   UNL     1       7.899   5.907  19.170  0.00  0.00    +0.000 C 
ATOM     20  O   UNL     1       7.893   4.649  18.494  0.00  0.00    +0.000 OA
ENDBRANCH  13  20
ENDBRANCH  12  18
ENDBRANCH   1  12
TORSDOF 6
ENDMDL
MODEL 3
REMARK VINA RESULT:      -6.1      0.949      1.069
REMARK  Name = 
REMARK  7 active torsions:
REMARK  status: ('A' for Active; 'I' for Inactive)
REMARK    1  A    between atoms: C_1  and  O_2
REMARK    2  A    between atoms: O_2  and  C_3
REMARK    3  A    between atoms: C_8  and  O_9
REMARK    4  A    between atoms: O_9  and  C_10
REMARK    5  A    between atoms: C_10  and  C_11
REMARK    6  A    between atoms: C_16  and  C_18
REMARK    7  A    between atoms: C_18  and  S_19
REMARK                            x       y       z     vdW  Elec       q    Type
REMARK                         _______ _______ _______ _____ _____    ______ ____
ROOT
ATOM      1  C   UNL     1       4.732   3.891  19.533  0.00  0.00    +0.000 C 
ENDROOT
BRANCH   1   2
ATOM      2  C   UNL     1       3.326   4.226  18.992  0.00  0.00    +0.000 C 
ATOM      3  S   UNL     1       2.308   2.710  19.077  0.00  0.00    +0.000 S 
ATOM      4  C   UNL     1       1.915   2.983  20.823  0.00  0.00    +0.000 C 
ATOM      5  C   UNL     1       1.960   4.499  21.010  0.00  0.00    +0.000 C 
ATOM      6  N   UNL     1       2.591   5.140  19.859  0.00  0.00    +0.000 N 
ATOM      7  C   UNL     1       2.417   6.502  19.658  0.00  0.00    +0.000 C 
ATOM      8  O   UNL     1       1.799   7.184  20.477  0.00  0.00    +0.000 OA
BRANCH   7   9
ATOM      9  C   UNL     1       2.945   7.075  18.344  0.00  0.00    +0.000 C 
BRANCH   9  10
ATOM     10  S   UNL     1       2.143   8.638  17.886  0.00  0.00    +0.000 S 
ATOM     11  H   UNL     1       1.865   9.024  19.141  0.00  0.00    +0.000 HD
ENDBRANCH   9  10
ENDBRANCH   7   9
ENDBRANCH   1   2
BRANCH   1  12
ATOM     12  O   UNL     1       5.716   3.801  18.501  0.00  0.00    +0.000 OA
BRANCH  12  18
ATOM     13  C   UNL     1       6.031   5.770  16.969  0.00  0.00    +0.000 A 
ATOM     14  C   UNL     1       6.677   7.003  16.796  0.00  0.00    +0.000 A 
ATOM     15  C   UNL     1       7.652   7.427  17.695  0.00  0.00    +0.000 A 
ATOM     16  C   UNL     1       7.964   6.635  18.797  0.00  0.00    +0.000 A 
ATOM     17  C   UNL     1       7.284   5.434  19.009  0.00  0.00    +0.000 A 
ATOM     18  C   UNL     1       6.299   4.993  18.114  0.00  0.00    +0.000 A 
BRANCH  13  20
ATOM     19  C   UNL     1       5.580   4.547  14.995  0.00  0.00    +0.000 C 
ATOM     20  O   UNL     1       5.092   5.373  16.053  0.00  0.00    +0.000 OA
ENDBRANCH  13  20
ENDBRANCH  12  18
ENDBRANCH   1  12
TORSDOF 6
ENDMDL
MODEL 4
REMARK VINA RESULT:      -6.1      2.404      5.041
REMARK  Name = 
REMARK  7 active torsions:
REMARK  status: ('A' for Active; 'I' for Inactive)
REMARK    1  A    between atoms: C_1  and  O_2
REMARK    2  A    between atoms: O_2  and  C_3
REMARK    3  A    between atoms: C_8  and  O_9
REMARK    4  A    between atoms: O_9  and  C_10
REMARK    5  A    between atoms: C_10  and  C_11
REMARK    6  A    between atoms: C_16  and  C_18
REMARK    7  A    between atoms: C_18  and  S_19
REMARK                            x       y       z     vdW  Elec       q    Type
REMARK                         _______ _______ _______ _____ _____    ______ ____
ROOT
ATOM      1  C   UNL     1       4.057   3.610  16.999  0.00  0.00    +0.000 C 
ENDROOT
BRANCH   1   2
ATOM      2  C   UNL     1       4.695   4.723  17.857  0.00  0.00    +0.000 C 
ATOM      3  S   UNL     1       6.492   4.741  17.519  0.00  0.00    +0.000 S 
ATOM      4  C   UNL     1       6.276   5.746  16.028  0.00  0.00    +0.000 C 
ATOM      5  C   UNL     1       5.020   6.577  16.285  0.00  0.00    +0.000 C 
ATOM      6  N   UNL     1       4.289   6.060  17.440  0.00  0.00    +0.000 N 
ATOM      7  C   UNL     1       3.337   6.859  18.057  0.00  0.00    +0.000 C 
ATOM      8  O   UNL     1       3.052   7.965  17.597  0.00  0.00    +0.000 OA
BRANCH   7   9
ATOM      9  C   UNL     1       2.744   6.335  19.363  0.00  0.00    +0.000 C 
BRANCH   9  10
ATOM     10  S   UNL     1       1.815   7.604  20.272  0.00  0.00    +0.000 S 
ATOM     11  H   UNL     1       0.959   7.889  19.278  0.00  0.00    +0.000 HD
ENDBRANCH   9  10
ENDBRANCH   7   9
ENDBRANCH   1   2
BRANCH   1  12
ATOM     12  O   UNL     1       3.806   2.415  17.740  0.00  0.00    +0.000 OA
BRANCH  12  18
ATOM     13  C   UNL     1       3.527   2.547  20.235  0.00  0.00    +0.000 A 
ATOM     14  C   UNL     1       2.630   2.803  21.283  0.00  0.00    +0.000 A 
ATOM     15  C   UNL     1       1.272   2.982  21.027  0.00  0.00    +0.000 A 
ATOM     16  C   UNL     1       0.807   2.941  19.716  0.00  0.00    +0.000 A 
ATOM     17  C   UNL     1       1.702   2.746  18.662  0.00  0.00    +0.000 A 
ATOM     18  C   UNL     1       3.072   2.565  18.902  0.00  0.00    +0.000 A 
BRANCH  13  20
ATOM     19  C   UNL     1       5.205   1.029  20.926  0.00  0.00    +0.000 C 
ATOM     20  O   UNL     1       4.853   2.353  20.524  0.00  0.00    +0.000 OA
ENDBRANCH  13  20
ENDBRANCH  12  18
ENDBRANCH   1  12
TORSDOF 6
ENDMDL
MODEL 5
REMARK VINA RESULT:      -6.0      2.888      6.043
REMARK  Name = 
REMARK  7 active torsions:
REMARK  status: ('A' for Active; 'I' for Inactive)
REMARK    1  A    between atoms: C_1  and  O_2
REMARK    2  A    between atoms: O_2  and  C_3
REMARK    3  A    between atoms: C_8  and  O_9
REMARK    4  A    between atoms: O_9  and  C_10
REMARK    5  A    between atoms: C_10  and  C_11
REMARK    6  A    between atoms: C_16  and  C_18
REMARK    7  A    between atoms: C_18  and  S_19
REMARK                            x       y       z     vdW  Elec       q    Type
REMARK                         _______ _______ _______ _____ _____    ______ ____
ROOT
ATOM      1  C   UNL     1       4.907   4.052  17.635  0.00  0.00    +0.000 C 
ENDROOT
BRANCH   1   2
ATOM      2  C   UNL     1       4.870   5.119  16.521  0.00  0.00    +0.000 C 
ATOM      3  S   UNL     1       4.466   6.728  17.289  0.00  0.00    +0.000 S 
ATOM      4  C   UNL     1       6.187   7.013  17.772  0.00  0.00    +0.000 C 
ATOM      5  C   UNL     1       7.023   6.275  16.728  0.00  0.00    +0.000 C 
ATOM      6  N   UNL     1       6.183   5.375  15.940  0.00  0.00    +0.000 N 
ATOM      7  C   UNL     1       6.655   4.888  14.729  0.00  0.00    +0.000 C 
ATOM      8  O   UNL     1       7.799   5.147  14.352  0.00  0.00    +0.000 OA
BRANCH   7   9
ATOM      9  C   UNL     1       5.664   4.106  13.870  0.00  0.00    +0.000 C 
BRANCH   9  10
ATOM     10  S   UNL     1       6.403   3.484  12.333  0.00  0.00    +0.000 S 
ATOM     11  H   UNL     1       7.598   3.181  12.866  0.00  0.00    +0.000 HD
ENDBRANCH   9  10
ENDBRANCH   7   9
ENDBRANCH   1   2
BRANCH   1  12
ATOM     12  O   UNL     1       3.719   3.261  17.685  0.00  0.00    +0.000 OA
BRANCH  12  18
ATOM     13  C   UNL     1       3.614   2.560  20.098  0.00  0.00    +0.000 A 
ATOM     14  C   UNL     1       2.872   2.629  21.286  0.00  0.00    +0.000 A 
ATOM     15  C   UNL     1       1.601   3.199  21.299  0.00  0.00    +0.000 A 
ATOM     16  C   UNL     1       1.075   3.735  20.127  0.00  0.00    +0.000 A 
ATOM     17  C   UNL     1       1.831   3.724  18.952  0.00  0.00    +0.000 A 
ATOM     18  C   UNL     1       3.112   3.156  18.922  0.00  0.00    +0.000 A 
BRANCH  13  20
ATOM     19  C   UNL     1       5.151   1.210  21.285  0.00  0.00    +0.000 C 
ATOM     20  O   UNL     1       4.853   1.973  20.116  0.00  0.00    +0.000 OA
ENDBRANCH  13  20
ENDBRANCH  12  18
ENDBRANCH   1  12
TORSDOF 6
ENDMDL
MODEL 6
REMARK VINA RESULT:      -6.0      2.515      5.629
REMARK  Name = 
REMARK  7 active torsions:
REMARK  status: ('A' for Active; 'I' for Inactive)
REMARK    1  A    between atoms: C_1  and  O_2
REMARK    2  A    between atoms: O_2  and  C_3
REMARK    3  A    between atoms: C_8  and  O_9
REMARK    4  A    between atoms: O_9  and  C_10
REMARK    5  A    between atoms: C_10  and  C_11
REMARK    6  A    between atoms: C_16  and  C_18
REMARK    7  A    between atoms: C_18  and  S_19
REMARK                            x       y       z     vdW  Elec       q    Type
REMARK                         _______ _______ _______ _____ _____    ______ ____
ROOT
ATOM      1  C   UNL     1       2.075   5.316  20.279  0.00  0.00    +0.000 C 
ENDROOT
BRANCH   1   2
ATOM      2  C   UNL     1       2.851   4.002  20.047  0.00  0.00    +0.000 C 
ATOM      3  S   UNL     1       1.769   2.610  20.529  0.00  0.00    +0.000 S 
ATOM      4  C   UNL     1       0.921   2.619  18.929  0.00  0.00    +0.000 C 
ATOM      5  C   UNL     1       1.954   3.144  17.933  0.00  0.00    +0.000 C 
ATOM      6  N   UNL     1       3.093   3.731  18.634  0.00  0.00    +0.000 N 
ATOM      7  C   UNL     1       4.282   3.938  17.950  0.00  0.00    +0.000 C 
ATOM      8  O   UNL     1       4.362   3.700  16.744  0.00  0.00    +0.000 OA
BRANCH   7   9
ATOM      9  C   UNL     1       5.485   4.380  18.781  0.00  0.00    +0.000 C 
BRANCH   9  10
ATOM     10  S   UNL     1       6.939   4.765  17.764  0.00  0.00    +0.000 S 
ATOM     11  H   UNL     1       7.109   3.521  17.289  0.00  0.00    +0.000 HD
ENDBRANCH   9  10
ENDBRANCH   7   9
ENDBRANCH   1   2
BRANCH   1  12
ATOM     12  O   UNL     1       2.859   6.478  20.006  0.00  0.00    +0.000 OA
BRANCH  12  18
ATOM     13  C   UNL     1       1.353   8.453  20.401  0.00  0.00    +0.000 A 
ATOM     14  C   UNL     1       0.787   9.603  19.831  0.00  0.00    +0.000 A 
ATOM     15  C   UNL     1       0.934   9.868  18.471  0.00  0.00    +0.000 A 
ATOM     16  C   UNL     1       1.678   9.000  17.677  0.00  0.00    +0.000 A 
ATOM     17  C   UNL     1       2.294   7.884  18.248  0.00  0.00    +0.000 A 
ATOM     18  C   UNL     1       2.158   7.604  19.615  0.00  0.00    +0.000 A 
BRANCH  13  20
ATOM     19  C   UNL     1       0.696   9.321  22.501  0.00  0.00    +0.000 C 
ATOM     20  O   UNL     1       1.170   8.211  21.738  0.00  0.00    +0.000 OA
ENDBRANCH  13  20
ENDBRANCH  12  18
ENDBRANCH   1  12
TORSDOF 6
ENDMDL
MODEL 7
REMARK VINA RESULT:      -5.8      2.667      5.805
REMARK  Name = 
REMARK  7 active torsions:
REMARK  status: ('A' for Active; 'I' for Inactive)
REMARK    1  A    between atoms: C_1  and  O_2
REMARK    2  A    between atoms: O_2  and  C_3
REMARK    3  A    between atoms: C_8  and  O_9
REMARK    4  A    between atoms: O_9  and  C_10
REMARK    5  A    between atoms: C_10  and  C_11
REMARK    6  A    between atoms: C_16  and  C_18
REMARK    7  A    between atoms: C_18  and  S_19
REMARK                            x       y       z     vdW  Elec       q    Type
REMARK                         _______ _______ _______ _____ _____    ______ ____
ROOT
ATOM      1  C   UNL     1       5.164   4.074  18.228  0.00  0.00    +0.000 C 
ENDROOT
BRANCH   1   2
ATOM      2  C   UNL     1       4.911   4.951  16.984  0.00  0.00    +0.000 C 
ATOM      3  S   UNL     1       4.229   6.551  17.546  0.00  0.00    +0.000 S 
ATOM      4  C   UNL     1       5.876   7.208  17.915  0.00  0.00    +0.000 C 
ATOM      5  C   UNL     1       6.816   6.495  16.944  0.00  0.00    +0.000 C 
ATOM      6  N   UNL     1       6.145   5.358  16.320  0.00  0.00    +0.000 N 
ATOM      7  C   UNL     1       6.679   4.801  15.166  0.00  0.00    +0.000 C 
ATOM      8  O   UNL     1       7.748   5.207  14.710  0.00  0.00    +0.000 OA
BRANCH   7   9
ATOM      9  C   UNL     1       5.835   3.740  14.462  0.00  0.00    +0.000 C 
BRANCH   9  10
ATOM     10  S   UNL     1       6.249   3.567  12.702  0.00  0.00    +0.000 S 
ATOM     11  H   UNL     1       7.424   2.947  12.897  0.00  0.00    +0.000 HD
ENDBRANCH   9  10
ENDBRANCH   7   9
ENDBRANCH   1   2
BRANCH   1  12
ATOM     12  O   UNL     1       4.357   2.896  18.249  0.00  0.00    +0.000 OA
BRANCH  12  18
ATOM     13  C   UNL     1       1.932   3.125  18.877  0.00  0.00    +0.000 A 
ATOM     14  C   UNL     1       0.995   3.006  19.914  0.00  0.00    +0.000 A 
ATOM     15  C   UNL     1       1.407   2.760  21.221  0.00  0.00    +0.000 A 
ATOM     16  C   UNL     1       2.762   2.597  21.496  0.00  0.00    +0.000 A 
ATOM     17  C   UNL     1       3.698   2.656  20.461  0.00  0.00    +0.000 A 
ATOM     18  C   UNL     1       3.299   2.901  19.139  0.00  0.00    +0.000 A 
BRANCH  13  20
ATOM     19  C   UNL     1       1.145   4.750  17.349  0.00  0.00    +0.000 C 
ATOM     20  O   UNL     1       1.494   3.389  17.605  0.00  0.00    +0.000 OA
ENDBRANCH  13  20
ENDBRANCH  12  18
ENDBRANCH   1  12
TORSDOF 6
ENDMDL
MODEL 8
REMARK VINA RESULT:      -5.8      2.738      5.922
REMARK  Name = 
REMARK  7 active torsions:
REMARK  status: ('A' for Active; 'I' for Inactive)
REMARK    1  A    between atoms: C_1  and  O_2
REMARK    2  A    between atoms: O_2  and  C_3
REMARK    3  A    between atoms: C_8  and  O_9
REMARK    4  A    between atoms: O_9  and  C_10
REMARK    5  A    between atoms: C_10  and  C_11
REMARK    6  A    between atoms: C_16  and  C_18
REMARK    7  A    between atoms: C_18  and  S_19
REMARK                            x       y       z     vdW  Elec       q    Type
REMARK                         _______ _______ _______ _____ _____    ______ ____
ROOT
ATOM      1  C   UNL     1       5.233   4.322  17.905  0.00  0.00    +0.000 C 
ENDROOT
BRANCH   1   2
ATOM      2  C   UNL     1       5.069   5.274  16.702  0.00  0.00    +0.000 C 
ATOM      3  S   UNL     1       4.663   6.937  17.345  0.00  0.00    +0.000 S 
ATOM      4  C   UNL     1       6.404   7.321  17.659  0.00  0.00    +0.000 C 
ATOM      5  C   UNL     1       7.185   6.511  16.625  0.00  0.00    +0.000 C 
ATOM      6  N   UNL     1       6.322   5.513  15.996  0.00  0.00    +0.000 N 
ATOM      7  C   UNL     1       6.718   4.926  14.802  0.00  0.00    +0.000 C 
ATOM      8  O   UNL     1       7.818   5.182  14.311  0.00  0.00    +0.000 OA
BRANCH   7   9
ATOM      9  C   UNL     1       5.694   4.034  14.104  0.00  0.00    +0.000 C 
BRANCH   9  10
ATOM     10  S   UNL     1       6.247   3.479  12.465  0.00  0.00    +0.000 S 
ATOM     11  H   UNL     1       7.315   2.794  12.904  0.00  0.00    +0.000 HD
ENDBRANCH   9  10
ENDBRANCH   7   9
ENDBRANCH   1   2
BRANCH   1  12
ATOM     12  O   UNL     1       4.762   4.889  19.129  0.00  0.00    +0.000 OA
BRANCH  12  18
ATOM     13  C   UNL     1       3.291   2.980  19.847  0.00  0.00    +0.000 A 
ATOM     14  C   UNL     1       2.083   2.626  20.466  0.00  0.00    +0.000 A 
ATOM     15  C   UNL     1       1.144   3.599  20.800  0.00  0.00    +0.000 A 
ATOM     16  C   UNL     1       1.422   4.939  20.549  0.00  0.00    +0.000 A 
ATOM     17  C   UNL     1       2.647   5.306  19.986  0.00  0.00    +0.000 A 
ATOM     18  C   UNL     1       3.604   4.339  19.645  0.00  0.00    +0.000 A 
BRANCH  13  20
ATOM     19  C   UNL     1       3.773   1.134  18.449  0.00  0.00    +0.000 C 
ATOM     20  O   UNL     1       4.184   1.995  19.511  0.00  0.00    +0.000 OA
ENDBRANCH  13  20
ENDBRANCH  12  18
ENDBRANCH   1  12
TORSDOF 6
ENDMDL
MODEL 9
REMARK VINA RESULT:      -5.7      2.633      6.084
REMARK  Name = 
REMARK  7 active torsions:
REMARK  status: ('A' for Active; 'I' for Inactive)
REMARK    1  A    between atoms: C_1  and  O_2
REMARK    2  A    between atoms: O_2  and  C_3
REMARK    3  A    between atoms: C_8  and  O_9
REMARK    4  A    between atoms: O_9  and  C_10
REMARK    5  A    between atoms: C_10  and  C_11
REMARK    6  A    between atoms: C_16  and  C_18
REMARK    7  A    between atoms: C_18  and  S_19
REMARK                            x       y       z     vdW  Elec       q    Type
REMARK                         _______ _______ _______ _____ _____    ______ ____
ROOT
ATOM      1  C   UNL     1       4.924   4.036  17.569  0.00  0.00    +0.000 C 
ENDROOT
BRANCH   1   2
ATOM      2  C   UNL     1       4.906   5.123  16.474  0.00  0.00    +0.000 C 
ATOM      3  S   UNL     1       4.573   6.732  17.276  0.00  0.00    +0.000 S 
ATOM      4  C   UNL     1       6.312   6.947  17.733  0.00  0.00    +0.000 C 
ATOM      5  C   UNL     1       7.102   6.198  16.662  0.00  0.00    +0.000 C 
ATOM      6  N   UNL     1       6.218   5.343  15.874  0.00  0.00    +0.000 N 
ATOM      7  C   UNL     1       6.651   4.860  14.648  0.00  0.00    +0.000 C 
ATOM      8  O   UNL     1       7.796   5.084  14.254  0.00  0.00    +0.000 OA
BRANCH   7   9
ATOM      9  C   UNL     1       5.618   4.129  13.793  0.00  0.00    +0.000 C 
BRANCH   9  10
ATOM     10  S   UNL     1       6.335   3.395  12.296  0.00  0.00    +0.000 S 
ATOM     11  H   UNL     1       6.385   4.538  11.592  0.00  0.00    +0.000 HD
ENDBRANCH   9  10
ENDBRANCH   7   9
ENDBRANCH   1   2
BRANCH   1  12
ATOM     12  O   UNL     1       4.603   4.549  18.863  0.00  0.00    +0.000 OA
BRANCH  12  18
ATOM     13  C   UNL     1       2.398   4.979  19.995  0.00  0.00    +0.000 A 
ATOM     14  C   UNL     1       1.171   4.417  20.378  0.00  0.00    +0.000 A 
ATOM     15  C   UNL     1       0.942   3.050  20.242  0.00  0.00    +0.000 A 
ATOM     16  C   UNL     1       1.927   2.238  19.687  0.00  0.00    +0.000 A 
ATOM     17  C   UNL     1       3.129   2.798  19.248  0.00  0.00    +0.000 A 
ATOM     18  C   UNL     1       3.376   4.173  19.377  0.00  0.00    +0.000 A 
BRANCH  13  20
ATOM     19  C   UNL     1       1.499   7.042  20.722  0.00  0.00    +0.000 C 
ATOM     20  O   UNL     1       2.600   6.324  20.163  0.00  0.00    +0.000 OA
ENDBRANCH  13  20
ENDBRANCH  12  18
ENDBRANCH   1  12
TORSDOF 6
ENDMDL
