MODEL 1
REMARK VINA RESULT:      -7.2      0.000      0.000
REMARK  Name = 
REMARK  10 active torsions:
REMARK  status: ('A' for Active; 'I' for Inactive)
REMARK    1  A    between atoms: C_1  and  C_2
REMARK    2  A    between atoms: C_2  and  N_3
REMARK    3  A    between atoms: C_4  and  C_5
REMARK    4  A    between atoms: C_5  and  N_6
REMARK    5  A    between atoms: C_7  and  C_9
REMARK    6  A    between atoms: C_18  and  S_19
REMARK    7  A    between atoms: S_19  and  C_20
REMARK    8  A    between atoms: C_20  and  C_21
REMARK    9  A    between atoms: C_21  and  O_22
REMARK   10  A    between atoms: O_22  and  C_23
REMARK                            x       y       z     vdW  Elec       q    Type
REMARK                         _______ _______ _______ _____ _____    ______ ____
ROOT
ATOM      1  N   UNL     1       1.844   7.931  19.690  0.00  0.00    +0.000 N 
ATOM      2  C   UNL     1       1.894   8.689  18.534  0.00  0.00    +0.000 A 
ATOM      3  N   UNL     1       2.390   7.942  17.564  0.00  0.00    +0.000 NA
ATOM      4  N   UNL     1       2.707   6.710  18.080  0.00  0.00    +0.000 NA
ATOM      5  C   UNL     1       2.390   6.714  19.352  0.00  0.00    +0.000 A 
ENDROOT
BRANCH   1   7
ATOM      6  C   UNL     1      -0.105   8.326  21.197  0.00  0.00    +0.000 C 
ATOM      7  C   UNL     1       1.401   8.374  20.995  0.00  0.00    +0.000 C 
ENDBRANCH   1   7
BRANCH   2   8
ATOM      8  C   UNL     1       1.490  10.119  18.402  0.00  0.00    +0.000 C 
BRANCH   8   9
ATOM      9  N   UNL     1       0.126  10.203  17.925  0.00  0.00    +0.000 N 
ATOM     10  C   UNL     1      -0.814  10.979  18.572  0.00  0.00    +0.000 C 
ATOM     11  O   UNL     1      -0.584  11.554  19.629  0.00  0.00    +0.000 OA
ATOM     12  H   UNL     1      -0.067   9.870  16.985  0.00  0.00    +0.000 HD
BRANCH  10  13
ATOM     13  C   UNL     1      -2.145  11.124  17.916  0.00  0.00    +0.000 A 
ATOM     14  C   UNL     1      -2.293  10.724  16.579  0.00  0.00    +0.000 A 
ATOM     15  C   UNL     1      -3.536  10.824  15.941  0.00  0.00    +0.000 A 
ATOM     16  C   UNL     1      -4.635  11.337  16.629  0.00  0.00    +0.000 A 
ATOM     17  C   UNL     1      -4.492  11.756  17.950  0.00  0.00    +0.000 A 
ATOM     18  C   UNL     1      -3.255  11.649  18.583  0.00  0.00    +0.000 A 
ATOM     19  F   UNL     1      -3.159  12.070  19.854  0.00  0.00    +0.000 F 
ENDBRANCH  10  13
ENDBRANCH   8   9
ENDBRANCH   2   8
BRANCH   5  20
ATOM     20  S   UNL     1       2.620   5.404  20.463  0.00  0.00    +0.000 S 
BRANCH  20  21
ATOM     21  C   UNL     1       2.069   3.950  19.509  0.00  0.00    +0.000 C 
BRANCH  21  22
ATOM     22  C   UNL     1       3.229   3.190  18.863  0.00  0.00    +0.000 C 
BRANCH  22  23
ATOM     23  O   UNL     1       4.455   3.871  19.175  0.00  0.00    +0.000 OA
BRANCH  23  24
ATOM     24  C   UNL     1       5.281   4.134  18.113  0.00  0.00    +0.000 A 
ATOM     25  C   UNL     1       4.748   3.857  16.851  0.00  0.00    +0.000 A 
ATOM     26  C   UNL     1       5.497   4.097  15.695  0.00  0.00    +0.000 A 
ATOM     27  C   UNL     1       6.779   4.630  15.793  0.00  0.00    +0.000 A 
ATOM     28  C   UNL     1       7.310   4.927  17.047  0.00  0.00    +0.000 A 
ATOM     29  C   UNL     1       6.563   4.684  18.205  0.00  0.00    +0.000 A 
ENDBRANCH  23  24
ENDBRANCH  22  23
ENDBRANCH  21  22
ENDBRANCH  20  21
ENDBRANCH   5  20
TORSDOF 9
ENDMDL
MODEL 2
REMARK VINA RESULT:      -7.2      2.763      8.578
REMARK  Name = 
REMARK  10 active torsions:
REMARK  status: ('A' for Active; 'I' for Inactive)
REMARK    1  A    between atoms: C_1  and  C_2
REMARK    2  A    between atoms: C_2  and  N_3
REMARK    3  A    between atoms: C_4  and  C_5
REMARK    4  A    between atoms: C_5  and  N_6
REMARK    5  A    between atoms: C_7  and  C_9
REMARK    6  A    between atoms: C_18  and  S_19
REMARK    7  A    between atoms: S_19  and  C_20
REMARK    8  A    between atoms: C_20  and  C_21
REMARK    9  A    between atoms: C_21  and  O_22
REMARK   10  A    between atoms: O_22  and  C_23
REMARK                            x       y       z     vdW  Elec       q    Type
REMARK                         _______ _______ _______ _____ _____    ______ ____
ROOT
ATOM      1  N   UNL     1       1.025   9.852  19.774  0.00  0.00    +0.000 N 
ATOM      2  C   UNL     1       1.056   9.227  21.008  0.00  0.00    +0.000 A 
ATOM      3  N   UNL     1       1.108  10.155  21.947  0.00  0.00    +0.000 NA
ATOM      4  N   UNL     1       1.153  11.387  21.340  0.00  0.00    +0.000 NA
ATOM      5  C   UNL     1       1.116  11.197  20.044  0.00  0.00    +0.000 A 
ENDROOT
BRANCH   1   7
ATOM      6  C   UNL     1       2.370   9.044  17.834  0.00  0.00    +0.000 C 
ATOM      7  C   UNL     1       1.003   9.205  18.478  0.00  0.00    +0.000 C 
ENDBRANCH   1   7
BRANCH   2   8
ATOM      8  C   UNL     1       1.064   7.755  21.249  0.00  0.00    +0.000 C 
BRANCH   8   9
ATOM      9  N   UNL     1       2.109   7.134  20.464  0.00  0.00    +0.000 N 
ATOM     10  C   UNL     1       2.061   5.794  20.136  0.00  0.00    +0.000 C 
ATOM     11  O   UNL     1       1.198   5.038  20.566  0.00  0.00    +0.000 OA
ATOM     12  H   UNL     1       2.753   7.743  19.968  0.00  0.00    +0.000 HD
BRANCH  10  13
ATOM     13  C   UNL     1       3.101   5.285  19.196  0.00  0.00    +0.000 A 
ATOM     14  C   UNL     1       4.450   5.338  19.579  0.00  0.00    +0.000 A 
ATOM     15  C   UNL     1       5.449   4.846  18.729  0.00  0.00    +0.000 A 
ATOM     16  C   UNL     1       5.108   4.312  17.486  0.00  0.00    +0.000 A 
ATOM     17  C   UNL     1       3.773   4.276  17.089  0.00  0.00    +0.000 A 
ATOM     18  C   UNL     1       2.781   4.761  17.941  0.00  0.00    +0.000 A 
ATOM     19  F   UNL     1       1.509   4.712  17.518  0.00  0.00    +0.000 F 
ENDBRANCH  10  13
ENDBRANCH   8   9
ENDBRANCH   2   8
BRANCH   5  20
ATOM     20  S   UNL     1       1.179  12.435  18.833  0.00  0.00    +0.000 S 
BRANCH  20  21
ATOM     21  C   UNL     1      -0.582  12.788  18.507  0.00  0.00    +0.000 C 
BRANCH  21  22
ATOM     22  C   UNL     1      -1.513  12.161  19.545  0.00  0.00    +0.000 C 
BRANCH  22  23
ATOM     23  O   UNL     1      -1.918  10.864  19.077  0.00  0.00    +0.000 OA
BRANCH  23  24
ATOM     24  C   UNL     1      -2.633  10.845  17.907  0.00  0.00    +0.000 A 
ATOM     25  C   UNL     1      -2.110  10.037  16.893  0.00  0.00    +0.000 A 
ATOM     26  C   UNL     1      -2.762   9.933  15.661  0.00  0.00    +0.000 A 
ATOM     27  C   UNL     1      -3.950  10.625  15.440  0.00  0.00    +0.000 A 
ATOM     28  C   UNL     1      -4.487  11.416  16.452  0.00  0.00    +0.000 A 
ATOM     29  C   UNL     1      -3.834  11.525  17.685  0.00  0.00    +0.000 A 
ENDBRANCH  23  24
ENDBRANCH  22  23
ENDBRANCH  21  22
ENDBRANCH  20  21
ENDBRANCH   5  20
TORSDOF 9
ENDMDL
MODEL 3
REMARK VINA RESULT:      -7.1      2.511      3.715
REMARK  Name = 
REMARK  10 active torsions:
REMARK  status: ('A' for Active; 'I' for Inactive)
REMARK    1  A    between atoms: C_1  and  C_2
REMARK    2  A    between atoms: C_2  and  N_3
REMARK    3  A    between atoms: C_4  and  C_5
REMARK    4  A    between atoms: C_5  and  N_6
REMARK    5  A    between atoms: C_7  and  C_9
REMARK    6  A    between atoms: C_18  and  S_19
REMARK    7  A    between atoms: S_19  and  C_20
REMARK    8  A    between atoms: C_20  and  C_21
REMARK    9  A    between atoms: C_21  and  O_22
REMARK   10  A    between atoms: O_22  and  C_23
REMARK                            x       y       z     vdW  Elec       q    Type
REMARK                         _______ _______ _______ _____ _____    ______ ____
ROOT
ATOM      1  N   UNL     1       1.878   5.312  19.524  0.00  0.00    +0.000 N 
ATOM      2  C   UNL     1       2.101   6.639  19.840  0.00  0.00    +0.000 A 
ATOM      3  N   UNL     1       2.734   7.210  18.831  0.00  0.00    +0.000 NA
ATOM      4  N   UNL     1       2.968   6.258  17.868  0.00  0.00    +0.000 NA
ATOM      5  C   UNL     1       2.466   5.125  18.294  0.00  0.00    +0.000 A 
ENDROOT
BRANCH   1   7
ATOM      6  C   UNL     1       2.199   3.593  21.304  0.00  0.00    +0.000 C 
ATOM      7  C   UNL     1       1.247   4.317  20.366  0.00  0.00    +0.000 C 
ENDBRANCH   1   7
BRANCH   2   8
ATOM      8  C   UNL     1       1.724   7.316  21.115  0.00  0.00    +0.000 C 
BRANCH   8   9
ATOM      9  N   UNL     1       1.141   8.609  20.832  0.00  0.00    +0.000 N 
ATOM     10  C   UNL     1      -0.086   8.973  21.350  0.00  0.00    +0.000 C 
ATOM     11  O   UNL     1      -0.792   8.200  21.986  0.00  0.00    +0.000 OA
ATOM     12  H   UNL     1       1.747   9.326  20.443  0.00  0.00    +0.000 HD
BRANCH  10  13
ATOM     13  C   UNL     1      -0.527  10.381  21.131  0.00  0.00    +0.000 A 
ATOM     14  C   UNL     1      -0.584  11.255  22.227  0.00  0.00    +0.000 A 
ATOM     15  C   UNL     1      -0.970  12.590  22.051  0.00  0.00    +0.000 A 
ATOM     16  C   UNL     1      -1.317  13.056  20.783  0.00  0.00    +0.000 A 
ATOM     17  C   UNL     1      -1.284  12.189  19.693  0.00  0.00    +0.000 A 
ATOM     18  C   UNL     1      -0.892  10.863  19.871  0.00  0.00    +0.000 A 
ATOM     19  F   UNL     1      -0.880  10.060  18.796  0.00  0.00    +0.000 F 
ENDBRANCH  10  13
ENDBRANCH   8   9
ENDBRANCH   2   8
BRANCH   5  20
ATOM     20  S   UNL     1       2.526   3.608  17.459  0.00  0.00    +0.000 S 
BRANCH  20  21
ATOM     21  C   UNL     1       4.316   3.283  17.318  0.00  0.00    +0.000 C 
BRANCH  21  22
ATOM     22  C   UNL     1       4.951   3.972  16.111  0.00  0.00    +0.000 C 
BRANCH  22  23
ATOM     23  O   UNL     1       6.377   3.985  16.285  0.00  0.00    +0.000 OA
BRANCH  23  24
ATOM     24  C   UNL     1       6.885   5.038  17.001  0.00  0.00    +0.000 A 
ATOM     25  C   UNL     1       7.520   4.701  18.200  0.00  0.00    +0.000 A 
ATOM     26  C   UNL     1       8.084   5.692  19.008  0.00  0.00    +0.000 A 
ATOM     27  C   UNL     1       8.030   7.027  18.614  0.00  0.00    +0.000 A 
ATOM     28  C   UNL     1       7.415   7.368  17.412  0.00  0.00    +0.000 A 
ATOM     29  C   UNL     1       6.847   6.377  16.604  0.00  0.00    +0.000 A 
ENDBRANCH  23  24
ENDBRANCH  22  23
ENDBRANCH  21  22
ENDBRANCH  20  21
ENDBRANCH   5  20
TORSDOF 9
ENDMDL
MODEL 4
REMARK VINA RESULT:      -7.1      4.254      9.149
REMARK  Name = 
REMARK  10 active torsions:
REMARK  status: ('A' for Active; 'I' for Inactive)
REMARK    1  A    between atoms: C_1  and  C_2
REMARK    2  A    between atoms: C_2  and  N_3
REMARK    3  A    between atoms: C_4  and  C_5
REMARK    4  A    between atoms: C_5  and  N_6
REMARK    5  A    between atoms: C_7  and  C_9
REMARK    6  A    between atoms: C_18  and  S_19
REMARK    7  A    between atoms: S_19  and  C_20
REMARK    8  A    between atoms: C_20  and  C_21
REMARK    9  A    between atoms: C_21  and  O_22
REMARK   10  A    between atoms: O_22  and  C_23
REMARK                            x       y       z     vdW  Elec       q    Type
REMARK                         _______ _______ _______ _____ _____    ______ ____
ROOT
ATOM      1  N   UNL     1       4.399   5.679  18.331  0.00  0.00    +0.000 N 
ATOM      2  C   UNL     1       5.773   5.836  18.355  0.00  0.00    +0.000 A 
ATOM      3  N   UNL     1       6.264   5.090  19.327  0.00  0.00    +0.000 NA
ATOM      4  N   UNL     1       5.220   4.473  19.973  0.00  0.00    +0.000 NA
ATOM      5  C   UNL     1       4.110   4.840  19.381  0.00  0.00    +0.000 A 
ENDROOT
BRANCH   1   7
ATOM      6  C   UNL     1       3.211   7.805  17.786  0.00  0.00    +0.000 C 
ATOM      7  C   UNL     1       3.468   6.346  17.444  0.00  0.00    +0.000 C 
ENDBRANCH   1   7
BRANCH   2   8
ATOM      8  C   UNL     1       6.573   6.721  17.459  0.00  0.00    +0.000 C 
BRANCH   8   9
ATOM      9  N   UNL     1       6.479   6.253  16.093  0.00  0.00    +0.000 N 
ATOM     10  C   UNL     1       7.149   5.122  15.673  0.00  0.00    +0.000 C 
ATOM     11  O   UNL     1       7.931   4.511  16.391  0.00  0.00    +0.000 OA
ATOM     12  H   UNL     1       5.735   6.633  15.514  0.00  0.00    +0.000 HD
BRANCH  10  13
ATOM     13  C   UNL     1       6.863   4.634  14.293  0.00  0.00    +0.000 A 
ATOM     14  C   UNL     1       5.753   3.800  14.082  0.00  0.00    +0.000 A 
ATOM     15  C   UNL     1       5.443   3.345  12.793  0.00  0.00    +0.000 A 
ATOM     16  C   UNL     1       6.247   3.706  11.712  0.00  0.00    +0.000 A 
ATOM     17  C   UNL     1       7.362   4.516  11.917  0.00  0.00    +0.000 A 
ATOM     18  C   UNL     1       7.664   4.972  13.199  0.00  0.00    +0.000 A 
ATOM     19  F   UNL     1       8.750   5.744  13.354  0.00  0.00    +0.000 F 
ENDBRANCH  10  13
ENDBRANCH   8   9
ENDBRANCH   2   8
BRANCH   5  20
ATOM     20  S   UNL     1       2.508   4.361  19.837  0.00  0.00    +0.000 S 
BRANCH  20  21
ATOM     21  C   UNL     1       2.056   5.585  21.113  0.00  0.00    +0.000 C 
BRANCH  21  22
ATOM     22  C   UNL     1       1.395   6.833  20.530  0.00  0.00    +0.000 C 
BRANCH  22  23
ATOM     23  O   UNL     1       1.817   7.977  21.290  0.00  0.00    +0.000 OA
BRANCH  23  24
ATOM     24  C   UNL     1       0.900   8.989  21.410  0.00  0.00    +0.000 A 
ATOM     25  C   UNL     1       0.451   9.247  22.708  0.00  0.00    +0.000 A 
ATOM     26  C   UNL     1      -0.476  10.264  22.950  0.00  0.00    +0.000 A 
ATOM     27  C   UNL     1      -0.950  11.041  21.896  0.00  0.00    +0.000 A 
ATOM     28  C   UNL     1      -0.493  10.803  20.602  0.00  0.00    +0.000 A 
ATOM     29  C   UNL     1       0.433   9.782  20.358  0.00  0.00    +0.000 A 
ENDBRANCH  23  24
ENDBRANCH  22  23
ENDBRANCH  21  22
ENDBRANCH  20  21
ENDBRANCH   5  20
TORSDOF 9
ENDMDL
MODEL 5
REMARK VINA RESULT:      -7.0      5.534      8.750
REMARK  Name = 
REMARK  10 active torsions:
REMARK  status: ('A' for Active; 'I' for Inactive)
REMARK    1  A    between atoms: C_1  and  C_2
REMARK    2  A    between atoms: C_2  and  N_3
REMARK    3  A    between atoms: C_4  and  C_5
REMARK    4  A    between atoms: C_5  and  N_6
REMARK    5  A    between atoms: C_7  and  C_9
REMARK    6  A    between atoms: C_18  and  S_19
REMARK    7  A    between atoms: S_19  and  C_20
REMARK    8  A    between atoms: C_20  and  C_21
REMARK    9  A    between atoms: C_21  and  O_22
REMARK   10  A    between atoms: O_22  and  C_23
REMARK                            x       y       z     vdW  Elec       q    Type
REMARK                         _______ _______ _______ _____ _____    ______ ____
ROOT
ATOM      1  N   UNL     1       6.025   6.428  17.865  0.00  0.00    +0.000 N 
ATOM      2  C   UNL     1       7.144   7.229  18.003  0.00  0.00    +0.000 A 
ATOM      3  N   UNL     1       8.014   6.607  18.778  0.00  0.00    +0.000 NA
ATOM      4  N   UNL     1       7.459   5.419  19.188  0.00  0.00    +0.000 NA
ATOM      5  C   UNL     1       6.268   5.325  18.649  0.00  0.00    +0.000 A 
ENDROOT
BRANCH   1   7
ATOM      6  C   UNL     1       3.660   7.212  17.993  0.00  0.00    +0.000 C 
ATOM      7  C   UNL     1       4.820   6.746  17.128  0.00  0.00    +0.000 C 
ENDBRANCH   1   7
BRANCH   2   8
ATOM      8  C   UNL     1       7.335   8.584  17.407  0.00  0.00    +0.000 C 
BRANCH   8   9
ATOM      9  N   UNL     1       8.514   9.206  17.968  0.00  0.00    +0.000 N 
ATOM     10  C   UNL     1       8.679  10.577  17.954  0.00  0.00    +0.000 C 
ATOM     11  O   UNL     1       7.899  11.331  17.385  0.00  0.00    +0.000 OA
ATOM     12  H   UNL     1       9.104   8.642  18.574  0.00  0.00    +0.000 HD
BRANCH  10  13
ATOM     13  C   UNL     1       9.849  11.130  18.694  0.00  0.00    +0.000 A 
ATOM     14  C   UNL     1      11.026  11.424  17.987  0.00  0.00    +0.000 A 
ATOM     15  C   UNL     1      12.134  11.968  18.649  0.00  0.00    +0.000 A 
ATOM     16  C   UNL     1      12.081  12.206  20.022  0.00  0.00    +0.000 A 
ATOM     17  C   UNL     1      10.924  11.896  20.735  0.00  0.00    +0.000 A 
ATOM     18  C   UNL     1       9.821  11.362  20.072  0.00  0.00    +0.000 A 
ATOM     19  F   UNL     1       8.730  11.072  20.796  0.00  0.00    +0.000 F 
ENDBRANCH  10  13
ENDBRANCH   8   9
ENDBRANCH   2   8
BRANCH   5  20
ATOM     20  S   UNL     1       5.147   4.024  18.880  0.00  0.00    +0.000 S 
BRANCH  20  21
ATOM     21  C   UNL     1       4.582   3.656  17.185  0.00  0.00    +0.000 C 
BRANCH  21  22
ATOM     22  C   UNL     1       3.617   2.472  17.125  0.00  0.00    +0.000 C 
BRANCH  22  23
ATOM     23  O   UNL     1       2.278   2.959  17.314  0.00  0.00    +0.000 OA
BRANCH  23  24
ATOM     24  C   UNL     1       1.906   3.199  18.612  0.00  0.00    +0.000 A 
ATOM     25  C   UNL     1       2.014   2.111  19.482  0.00  0.00    +0.000 A 
ATOM     26  C   UNL     1       1.672   2.243  20.831  0.00  0.00    +0.000 A 
ATOM     27  C   UNL     1       1.234   3.470  21.322  0.00  0.00    +0.000 A 
ATOM     28  C   UNL     1       1.142   4.564  20.465  0.00  0.00    +0.000 A 
ATOM     29  C   UNL     1       1.481   4.432  19.113  0.00  0.00    +0.000 A 
ENDBRANCH  23  24
ENDBRANCH  22  23
ENDBRANCH  21  22
ENDBRANCH  20  21
ENDBRANCH   5  20
TORSDOF 9
ENDMDL
MODEL 6
REMARK VINA RESULT:      -6.9      1.350      1.936
REMARK  Name = 
REMARK  10 active torsions:
REMARK  status: ('A' for Active; 'I' for Inactive)
REMARK    1  A    between atoms: C_1  and  C_2
REMARK    2  A    between atoms: C_2  and  N_3
REMARK    3  A    between atoms: C_4  and  C_5
REMARK    4  A    between atoms: C_5  and  N_6
REMARK    5  A    between atoms: C_7  and  C_9
REMARK    6  A    between atoms: C_18  and  S_19
REMARK    7  A    between atoms: S_19  and  C_20
REMARK    8  A    between atoms: C_20  and  C_21
REMARK    9  A    between atoms: C_21  and  O_22
REMARK   10  A    between atoms: O_22  and  C_23
REMARK                            x       y       z     vdW  Elec       q    Type
REMARK                         _______ _______ _______ _____ _____    ______ ____
ROOT
ATOM      1  N   UNL     1       1.481   8.624  19.948  0.00  0.00    +0.000 N 
ATOM      2  C   UNL     1       1.324   9.597  18.977  0.00  0.00    +0.000 A 
ATOM      3  N   UNL     1       1.764   9.117  17.828  0.00  0.00    +0.000 NA
ATOM      4  N   UNL     1       2.249   7.850  18.042  0.00  0.00    +0.000 NA
ATOM      5  C   UNL     1       2.088   7.567  19.311  0.00  0.00    +0.000 A 
ENDROOT
BRANCH   1   7
ATOM      6  C   UNL     1      -0.284   8.420  21.701  0.00  0.00    +0.000 C 
ATOM      7  C   UNL     1       1.160   8.748  21.355  0.00  0.00    +0.000 C 
ENDBRANCH   1   7
BRANCH   2   8
ATOM      8  C   UNL     1       0.782  10.970  19.188  0.00  0.00    +0.000 C 
BRANCH   8   9
ATOM      9  N   UNL     1      -0.657  10.961  19.031  0.00  0.00    +0.000 N 
ATOM     10  C   UNL     1      -1.315  11.983  18.378  0.00  0.00    +0.000 C 
ATOM     11  O   UNL     1      -0.745  12.994  17.988  0.00  0.00    +0.000 OA
ATOM     12  H   UNL     1      -1.145  10.085  19.201  0.00  0.00    +0.000 HD
BRANCH  10  13
ATOM     13  C   UNL     1      -2.775  11.805  18.130  0.00  0.00    +0.000 A 
ATOM     14  C   UNL     1      -3.678  12.048  19.176  0.00  0.00    +0.000 A 
ATOM     15  C   UNL     1      -5.057  11.913  18.968  0.00  0.00    +0.000 A 
ATOM     16  C   UNL     1      -5.541  11.520  17.721  0.00  0.00    +0.000 A 
ATOM     17  C   UNL     1      -4.649  11.256  16.683  0.00  0.00    +0.000 A 
ATOM     18  C   UNL     1      -3.278  11.397  16.892  0.00  0.00    +0.000 A 
ATOM     19  F   UNL     1      -2.454  11.127  15.868  0.00  0.00    +0.000 F 
ENDBRANCH  10  13
ENDBRANCH   8   9
ENDBRANCH   2   8
BRANCH   5  20
ATOM     20  S   UNL     1       2.566   6.097  20.094  0.00  0.00    +0.000 S 
BRANCH  20  21
ATOM     21  C   UNL     1       4.096   5.636  19.213  0.00  0.00    +0.000 C 
BRANCH  21  22
ATOM     22  C   UNL     1       4.437   4.152  19.354  0.00  0.00    +0.000 C 
BRANCH  22  23
ATOM     23  O   UNL     1       5.755   3.930  18.827  0.00  0.00    +0.000 OA
BRANCH  23  24
ATOM     24  C   UNL     1       5.928   4.229  17.500  0.00  0.00    +0.000 A 
ATOM     25  C   UNL     1       7.120   4.884  17.180  0.00  0.00    +0.000 A 
ATOM     26  C   UNL     1       7.408   5.229  15.856  0.00  0.00    +0.000 A 
ATOM     27  C   UNL     1       6.511   4.906  14.841  0.00  0.00    +0.000 A 
ATOM     28  C   UNL     1       5.330   4.235  15.150  0.00  0.00    +0.000 A 
ATOM     29  C   UNL     1       5.039   3.893  16.476  0.00  0.00    +0.000 A 
ENDBRANCH  23  24
ENDBRANCH  22  23
ENDBRANCH  21  22
ENDBRANCH  20  21
ENDBRANCH   5  20
TORSDOF 9
ENDMDL
MODEL 7
REMARK VINA RESULT:      -6.9      4.304      9.289
REMARK  Name = 
REMARK  10 active torsions:
REMARK  status: ('A' for Active; 'I' for Inactive)
REMARK    1  A    between atoms: C_1  and  C_2
REMARK    2  A    between atoms: C_2  and  N_3
REMARK    3  A    between atoms: C_4  and  C_5
REMARK    4  A    between atoms: C_5  and  N_6
REMARK    5  A    between atoms: C_7  and  C_9
REMARK    6  A    between atoms: C_18  and  S_19
REMARK    7  A    between atoms: S_19  and  C_20
REMARK    8  A    between atoms: C_20  and  C_21
REMARK    9  A    between atoms: C_21  and  O_22
REMARK   10  A    between atoms: O_22  and  C_23
REMARK                            x       y       z     vdW  Elec       q    Type
REMARK                         _______ _______ _______ _____ _____    ______ ____
ROOT
ATOM      1  N   UNL     1       4.301   5.682  18.329  0.00  0.00    +0.000 N 
ATOM      2  C   UNL     1       4.823   6.758  17.633  0.00  0.00    +0.000 A 
ATOM      3  N   UNL     1       3.892   7.689  17.539  0.00  0.00    +0.000 NA
ATOM      4  N   UNL     1       2.744   7.219  18.130  0.00  0.00    +0.000 NA
ATOM      5  C   UNL     1       2.993   6.016  18.588  0.00  0.00    +0.000 A 
ENDROOT
BRANCH   1   7
ATOM      6  C   UNL     1       4.681   3.315  17.638  0.00  0.00    +0.000 C 
ATOM      7  C   UNL     1       4.975   4.434  18.624  0.00  0.00    +0.000 C 
ENDBRANCH   1   7
BRANCH   2   8
ATOM      8  C   UNL     1       6.196   6.848  17.055  0.00  0.00    +0.000 C 
BRANCH   8   9
ATOM      9  N   UNL     1       6.203   6.300  15.716  0.00  0.00    +0.000 N 
ATOM     10  C   UNL     1       6.975   5.202  15.393  0.00  0.00    +0.000 C 
ATOM     11  O   UNL     1       7.765   4.694  16.179  0.00  0.00    +0.000 OA
ATOM     12  H   UNL     1       5.462   6.588  15.083  0.00  0.00    +0.000 HD
BRANCH  10  13
ATOM     13  C   UNL     1       6.793   4.618  14.033  0.00  0.00    +0.000 A 
ATOM     14  C   UNL     1       5.732   3.726  13.811  0.00  0.00    +0.000 A 
ATOM     15  C   UNL     1       5.519   3.180  12.539  0.00  0.00    +0.000 A 
ATOM     16  C   UNL     1       6.372   3.507  11.485  0.00  0.00    +0.000 A 
ATOM     17  C   UNL     1       7.441   4.374  11.703  0.00  0.00    +0.000 A 
ATOM     18  C   UNL     1       7.646   4.922  12.969  0.00  0.00    +0.000 A 
ATOM     19  F   UNL     1       8.690   5.747  13.137  0.00  0.00    +0.000 F 
ENDBRANCH  10  13
ENDBRANCH   8   9
ENDBRANCH   2   8
BRANCH   5  20
ATOM     20  S   UNL     1       1.860   4.981  19.393  0.00  0.00    +0.000 S 
BRANCH  20  21
ATOM     21  C   UNL     1       1.615   5.806  21.002  0.00  0.00    +0.000 C 
BRANCH  21  22
ATOM     22  C   UNL     1       0.765   7.073  20.896  0.00  0.00    +0.000 C 
BRANCH  22  23
ATOM     23  O   UNL     1       1.458   8.148  21.550  0.00  0.00    +0.000 OA
BRANCH  23  24
ATOM     24  C   UNL     1       0.731   9.292  21.755  0.00  0.00    +0.000 A 
ATOM     25  C   UNL     1      -0.124   9.274  22.860  0.00  0.00    +0.000 A 
ATOM     26  C   UNL     1      -0.906  10.389  23.172  0.00  0.00    +0.000 A 
ATOM     27  C   UNL     1      -0.826  11.538  22.389  0.00  0.00    +0.000 A 
ATOM     28  C   UNL     1       0.039  11.571  21.298  0.00  0.00    +0.000 A 
ATOM     29  C   UNL     1       0.820  10.453  20.982  0.00  0.00    +0.000 A 
ENDBRANCH  23  24
ENDBRANCH  22  23
ENDBRANCH  21  22
ENDBRANCH  20  21
ENDBRANCH   5  20
TORSDOF 9
ENDMDL
MODEL 8
REMARK VINA RESULT:      -6.9      0.848      1.865
REMARK  Name = 
REMARK  10 active torsions:
REMARK  status: ('A' for Active; 'I' for Inactive)
REMARK    1  A    between atoms: C_1  and  C_2
REMARK    2  A    between atoms: C_2  and  N_3
REMARK    3  A    between atoms: C_4  and  C_5
REMARK    4  A    between atoms: C_5  and  N_6
REMARK    5  A    between atoms: C_7  and  C_9
REMARK    6  A    between atoms: C_18  and  S_19
REMARK    7  A    between atoms: S_19  and  C_20
REMARK    8  A    between atoms: C_20  and  C_21
REMARK    9  A    between atoms: C_21  and  O_22
REMARK   10  A    between atoms: O_22  and  C_23
REMARK                            x       y       z     vdW  Elec       q    Type
REMARK                         _______ _______ _______ _____ _____    ______ ____
ROOT
ATOM      1  N   UNL     1       2.265   7.482  18.920  0.00  0.00    +0.000 N 
ATOM      2  C   UNL     1       1.684   8.717  19.150  0.00  0.00    +0.000 A 
ATOM      3  N   UNL     1       1.252   8.752  20.397  0.00  0.00    +0.000 NA
ATOM      4  N   UNL     1       1.505   7.534  20.980  0.00  0.00    +0.000 NA
ATOM      5  C   UNL     1       2.098   6.777  20.089  0.00  0.00    +0.000 A 
ENDROOT
BRANCH   1   7
ATOM      6  C   UNL     1       4.284   7.408  17.456  0.00  0.00    +0.000 C 
ATOM      7  C   UNL     1       2.832   7.013  17.673  0.00  0.00    +0.000 C 
ENDBRANCH   1   7
BRANCH   2   8
ATOM      8  C   UNL     1       1.537   9.818  18.154  0.00  0.00    +0.000 C 
BRANCH   8   9
ATOM      9  N   UNL     1       0.150   9.946  17.764  0.00  0.00    +0.000 N 
ATOM     10  C   UNL     1      -0.693  10.841  18.391  0.00  0.00    +0.000 C 
ATOM     11  O   UNL     1      -0.353  11.498  19.367  0.00  0.00    +0.000 OA
ATOM     12  H   UNL     1      -0.130   9.540  16.876  0.00  0.00    +0.000 HD
BRANCH  10  13
ATOM     13  C   UNL     1      -2.058  11.011  17.813  0.00  0.00    +0.000 A 
ATOM     14  C   UNL     1      -2.293  10.604  16.491  0.00  0.00    +0.000 A 
ATOM     15  C   UNL     1      -3.569  10.727  15.927  0.00  0.00    +0.000 A 
ATOM     16  C   UNL     1      -4.614  11.270  16.674  0.00  0.00    +0.000 A 
ATOM     17  C   UNL     1      -4.383  11.697  17.980  0.00  0.00    +0.000 A 
ATOM     18  C   UNL     1      -3.114  11.567  18.540  0.00  0.00    +0.000 A 
ATOM     19  F   UNL     1      -2.933  11.995  19.799  0.00  0.00    +0.000 F 
ENDBRANCH  10  13
ENDBRANCH   8   9
ENDBRANCH   2   8
BRANCH   5  20
ATOM     20  S   UNL     1       2.597   5.135  20.320  0.00  0.00    +0.000 S 
BRANCH  20  21
ATOM     21  C   UNL     1       1.819   4.262  18.919  0.00  0.00    +0.000 C 
BRANCH  21  22
ATOM     22  C   UNL     1       2.763   3.271  18.240  0.00  0.00    +0.000 C 
BRANCH  22  23
ATOM     23  O   UNL     1       4.107   3.547  18.668  0.00  0.00    +0.000 OA
BRANCH  23  24
ATOM     24  C   UNL     1       4.983   3.928  17.684  0.00  0.00    +0.000 A 
ATOM     25  C   UNL     1       6.229   4.379  18.128  0.00  0.00    +0.000 A 
ATOM     26  C   UNL     1       7.205   4.783  17.213  0.00  0.00    +0.000 A 
ATOM     27  C   UNL     1       6.946   4.724  15.846  0.00  0.00    +0.000 A 
ATOM     28  C   UNL     1       5.714   4.258  15.396  0.00  0.00    +0.000 A 
ATOM     29  C   UNL     1       4.734   3.856  16.311  0.00  0.00    +0.000 A 
ENDBRANCH  23  24
ENDBRANCH  22  23
ENDBRANCH  21  22
ENDBRANCH  20  21
ENDBRANCH   5  20
TORSDOF 9
ENDMDL
MODEL 9
REMARK VINA RESULT:      -6.8      1.641      2.558
REMARK  Name = 
REMARK  10 active torsions:
REMARK  status: ('A' for Active; 'I' for Inactive)
REMARK    1  A    between atoms: C_1  and  C_2
REMARK    2  A    between atoms: C_2  and  N_3
REMARK    3  A    between atoms: C_4  and  C_5
REMARK    4  A    between atoms: C_5  and  N_6
REMARK    5  A    between atoms: C_7  and  C_9
REMARK    6  A    between atoms: C_18  and  S_19
REMARK    7  A    between atoms: S_19  and  C_20
REMARK    8  A    between atoms: C_20  and  C_21
REMARK    9  A    between atoms: C_21  and  O_22
REMARK   10  A    between atoms: O_22  and  C_23
REMARK                            x       y       z     vdW  Elec       q    Type
REMARK                         _______ _______ _______ _____ _____    ______ ____
ROOT
ATOM      1  N   UNL     1       2.093   6.551  19.055  0.00  0.00    +0.000 N 
ATOM      2  C   UNL     1       1.752   7.068  20.291  0.00  0.00    +0.000 A 
ATOM      3  N   UNL     1       1.446   6.067  21.095  0.00  0.00    +0.000 NA
ATOM      4  N   UNL     1       1.541   4.894  20.386  0.00  0.00    +0.000 NA
ATOM      5  C   UNL     1       1.915   5.192  19.166  0.00  0.00    +0.000 A 
ENDROOT
BRANCH   1   7
ATOM      6  C   UNL     1       3.947   7.303  17.563  0.00  0.00    +0.000 C 
ATOM      7  C   UNL     1       2.459   7.305  17.873  0.00  0.00    +0.000 C 
ENDBRANCH   1   7
BRANCH   2   8
ATOM      8  C   UNL     1       1.704   8.514  20.657  0.00  0.00    +0.000 C 
BRANCH   8   9
ATOM      9  N   UNL     1       0.464   9.098  20.193  0.00  0.00    +0.000 N 
ATOM     10  C   UNL     1       0.449  10.065  19.209  0.00  0.00    +0.000 C 
ATOM     11  O   UNL     1       1.473  10.554  18.746  0.00  0.00    +0.000 OA
ATOM     12  H   UNL     1      -0.402   8.623  20.435  0.00  0.00    +0.000 HD
BRANCH  10  13
ATOM     13  C   UNL     1      -0.883  10.489  18.690  0.00  0.00    +0.000 A 
ATOM     14  C   UNL     1      -1.369   9.910  17.507  0.00  0.00    +0.000 A 
ATOM     15  C   UNL     1      -2.627  10.268  17.007  0.00  0.00    +0.000 A 
ATOM     16  C   UNL     1      -3.402  11.216  17.675  0.00  0.00    +0.000 A 
ATOM     17  C   UNL     1      -2.917  11.811  18.839  0.00  0.00    +0.000 A 
ATOM     18  C   UNL     1      -1.667  11.448  19.337  0.00  0.00    +0.000 A 
ATOM     19  F   UNL     1      -1.236  12.049  20.456  0.00  0.00    +0.000 F 
ENDBRANCH  10  13
ENDBRANCH   8   9
ENDBRANCH   2   8
BRANCH   5  20
ATOM     20  S   UNL     1       2.150   4.066  17.870  0.00  0.00    +0.000 S 
BRANCH  20  21
ATOM     21  C   UNL     1       3.565   3.065  18.441  0.00  0.00    +0.000 C 
BRANCH  21  22
ATOM     22  C   UNL     1       4.432   3.794  19.467  0.00  0.00    +0.000 C 
BRANCH  22  23
ATOM     23  O   UNL     1       5.813   3.618  19.112  0.00  0.00    +0.000 OA
BRANCH  23  24
ATOM     24  C   UNL     1       6.368   4.615  18.352  0.00  0.00    +0.000 A 
ATOM     25  C   UNL     1       7.014   5.629  19.064  0.00  0.00    +0.000 A 
ATOM     26  C   UNL     1       7.626   6.691  18.392  0.00  0.00    +0.000 A 
ATOM     27  C   UNL     1       7.608   6.738  17.001  0.00  0.00    +0.000 A 
ATOM     28  C   UNL     1       6.982   5.721  16.283  0.00  0.00    +0.000 A 
ATOM     29  C   UNL     1       6.366   4.659  16.955  0.00  0.00    +0.000 A 
ENDBRANCH  23  24
ENDBRANCH  22  23
ENDBRANCH  21  22
ENDBRANCH  20  21
ENDBRANCH   5  20
TORSDOF 9
ENDMDL
