MODEL 1
REMARK VINA RESULT:      -8.6      0.000      0.000
REMARK  Name = 
REMARK  6 active torsions:
REMARK  status: ('A' for Active; 'I' for Inactive)
REMARK    1  A    between atoms: C_2  and  O_3
REMARK    2  A    between atoms: C_2  and  C_4
REMARK    3  A    between atoms: C_4  and  N_5
REMARK    4  A    between atoms: N_5  and  C_6
REMARK    5  A    between atoms: C_6  and  C_7
REMARK    6  A    between atoms: C_11  and  C_12
REMARK                            x       y       z     vdW  Elec       q    Type
REMARK                         _______ _______ _______ _____ _____    ______ ____
ROOT
ATOM      1  C   UNL     1       5.755   4.977  15.766  0.00  0.00    +0.000 A 
ATOM      2  C   UNL     1       5.239   6.221  16.053  0.00  0.00    +0.000 A 
ATOM      3  C   UNL     1       4.270   6.200  17.102  0.00  0.00    +0.000 A 
ATOM      4  C   UNL     1       3.538   7.257  17.679  0.00  0.00    +0.000 A 
ATOM      5  C   UNL     1       2.608   7.031  18.705  0.00  0.00    +0.000 A 
ATOM      6  C   UNL     1       2.419   5.720  19.150  0.00  0.00    +0.000 A 
ATOM      7  C   UNL     1       3.135   4.649  18.609  0.00  0.00    +0.000 A 
ATOM      8  C   UNL     1       4.064   4.910  17.586  0.00  0.00    +0.000 A 
ATOM      9  S   UNL     1       5.076   3.777  16.776  0.00  0.00    +0.000 S 
ENDROOT
BRANCH   5  10
ATOM     10  C   UNL     1       1.872   8.157  19.299  0.00  0.00    +0.000 A 
ATOM     11  C   UNL     1       1.569   9.297  18.539  0.00  0.00    +0.000 A 
ATOM     12  C   UNL     1       0.845  10.351  19.089  0.00  0.00    +0.000 A 
ATOM     13  C   UNL     1       0.388  10.290  20.410  0.00  0.00    +0.000 A 
ATOM     14  C   UNL     1      -0.370  11.330  20.964  0.00  0.00    +0.000 A 
ATOM     15  C   UNL     1      -0.825  11.256  22.282  0.00  0.00    +0.000 A 
ATOM     16  C   UNL     1      -0.521  10.144  23.061  0.00  0.00    +0.000 A 
ATOM     17  C   UNL     1       0.232   9.101  22.524  0.00  0.00    +0.000 A 
ATOM     18  C   UNL     1       0.687   9.157  21.197  0.00  0.00    +0.000 A 
ATOM     19  C   UNL     1       1.430   8.113  20.633  0.00  0.00    +0.000 A 
ENDBRANCH   5  10
BRANCH   1  20
ATOM     20  C   UNL     1       6.772   4.627  14.727  0.00  0.00    +0.000 C 
BRANCH  20  21
ATOM     21  N   UNL     1       6.338   3.445  13.959  0.00  0.00    +0.000 NA
ATOM     22  H   UNL     1       7.114   2.775  14.006  0.00  0.00    +0.000 HD
BRANCH  21  23
ATOM     23  C   UNL     1       6.156   3.838  12.542  0.00  0.00    +0.000 C 
BRANCH  23  25
ATOM     24  O   UNL     1       5.836   1.666  11.520  0.00  0.00    +0.000 OA
ATOM     25  C   UNL     1       5.392   2.767  11.762  0.00  0.00    +0.000 C 
BRANCH  25  26
ATOM     26  O   UNL     1       4.176   3.186  11.332  0.00  0.00    +0.000 OA
ATOM     27  H   UNL     1       3.634   2.404  11.091  0.00  0.00    +0.000 HD
ENDBRANCH  25  26
ENDBRANCH  23  25
ENDBRANCH  21  23
ENDBRANCH  20  21
ENDBRANCH   1  20
TORSDOF 6
ENDMDL
MODEL 2
REMARK VINA RESULT:      -8.2      0.580      1.730
REMARK  Name = 
REMARK  6 active torsions:
REMARK  status: ('A' for Active; 'I' for Inactive)
REMARK    1  A    between atoms: C_2  and  O_3
REMARK    2  A    between atoms: C_2  and  C_4
REMARK    3  A    between atoms: C_4  and  N_5
REMARK    4  A    between atoms: N_5  and  C_6
REMARK    5  A    between atoms: C_6  and  C_7
REMARK    6  A    between atoms: C_11  and  C_12
REMARK                            x       y       z     vdW  Elec       q    Type
REMARK                         _______ _______ _______ _____ _____    ______ ____
ROOT
ATOM      1  C   UNL     1       5.603   5.193  15.756  0.00  0.00    +0.000 A 
ATOM      2  C   UNL     1       5.059   6.399  16.134  0.00  0.00    +0.000 A 
ATOM      3  C   UNL     1       4.142   6.287  17.223  0.00  0.00    +0.000 A 
ATOM      4  C   UNL     1       3.402   7.283  17.889  0.00  0.00    +0.000 A 
ATOM      5  C   UNL     1       2.530   6.969  18.943  0.00  0.00    +0.000 A 
ATOM      6  C   UNL     1       2.407   5.630  19.323  0.00  0.00    +0.000 A 
ATOM      7  C   UNL     1       3.133   4.617  18.692  0.00  0.00    +0.000 A 
ATOM      8  C   UNL     1       4.004   4.966  17.644  0.00  0.00    +0.000 A 
ATOM      9  S   UNL     1       5.014   3.916  16.728  0.00  0.00    +0.000 S 
ENDROOT
BRANCH   5  10
ATOM     10  C   UNL     1       1.784   8.033  19.630  0.00  0.00    +0.000 A 
ATOM     11  C   UNL     1       1.416   7.897  20.978  0.00  0.00    +0.000 A 
ATOM     12  C   UNL     1       0.736   8.915  21.640  0.00  0.00    +0.000 A 
ATOM     13  C   UNL     1       0.419  10.107  20.980  0.00  0.00    +0.000 A 
ATOM     14  C   UNL     1      -0.236  11.152  21.645  0.00  0.00    +0.000 A 
ATOM     15  C   UNL     1      -0.543  12.339  20.978  0.00  0.00    +0.000 A 
ATOM     16  C   UNL     1      -0.206  12.491  19.637  0.00  0.00    +0.000 A 
ATOM     17  C   UNL     1       0.446  11.460  18.961  0.00  0.00    +0.000 A 
ATOM     18  C   UNL     1       0.771  10.265  19.622  0.00  0.00    +0.000 A 
ATOM     19  C   UNL     1       1.439   9.224  18.967  0.00  0.00    +0.000 A 
ENDBRANCH   5  10
BRANCH   1  20
ATOM     20  C   UNL     1       6.582   4.936  14.655  0.00  0.00    +0.000 C 
BRANCH  20  21
ATOM     21  N   UNL     1       6.367   3.596  14.076  0.00  0.00    +0.000 NA
ATOM     22  H   UNL     1       7.118   3.003  14.446  0.00  0.00    +0.000 HD
BRANCH  21  23
ATOM     23  C   UNL     1       6.530   3.681  12.606  0.00  0.00    +0.000 C 
BRANCH  23  25
ATOM     24  O   UNL     1       4.344   3.310  11.630  0.00  0.00    +0.000 OA
ATOM     25  C   UNL     1       5.449   2.879  11.880  0.00  0.00    +0.000 C 
BRANCH  25  26
ATOM     26  O   UNL     1       5.835   1.615  11.576  0.00  0.00    +0.000 OA
ATOM     27  H   UNL     1       6.663   1.649  11.050  0.00  0.00    +0.000 HD
ENDBRANCH  25  26
ENDBRANCH  23  25
ENDBRANCH  21  23
ENDBRANCH  20  21
ENDBRANCH   1  20
TORSDOF 6
ENDMDL
MODEL 3
REMARK VINA RESULT:      -8.2      3.159      4.262
REMARK  Name = 
REMARK  6 active torsions:
REMARK  status: ('A' for Active; 'I' for Inactive)
REMARK    1  A    between atoms: C_2  and  O_3
REMARK    2  A    between atoms: C_2  and  C_4
REMARK    3  A    between atoms: C_4  and  N_5
REMARK    4  A    between atoms: N_5  and  C_6
REMARK    5  A    between atoms: C_6  and  C_7
REMARK    6  A    between atoms: C_11  and  C_12
REMARK                            x       y       z     vdW  Elec       q    Type
REMARK                         _______ _______ _______ _____ _____    ______ ____
ROOT
ATOM      1  C   UNL     1       4.143   5.176  18.685  0.00  0.00    +0.000 A 
ATOM      2  C   UNL     1       3.400   5.614  19.757  0.00  0.00    +0.000 A 
ATOM      3  C   UNL     1       2.707   6.836  19.502  0.00  0.00    +0.000 A 
ATOM      4  C   UNL     1       1.850   7.582  20.335  0.00  0.00    +0.000 A 
ATOM      5  C   UNL     1       1.268   8.783  19.902  0.00  0.00    +0.000 A 
ATOM      6  C   UNL     1       1.560   9.233  18.612  0.00  0.00    +0.000 A 
ATOM      7  C   UNL     1       2.397   8.514  17.755  0.00  0.00    +0.000 A 
ATOM      8  C   UNL     1       2.959   7.310  18.216  0.00  0.00    +0.000 A 
ATOM      9  S   UNL     1       3.997   6.241  17.355  0.00  0.00    +0.000 S 
ENDROOT
BRANCH   5  10
ATOM     10  C   UNL     1       0.364   9.530  20.788  0.00  0.00    +0.000 A 
ATOM     11  C   UNL     1       0.243   9.189  22.144  0.00  0.00    +0.000 A 
ATOM     12  C   UNL     1      -0.589   9.913  22.993  0.00  0.00    +0.000 A 
ATOM     13  C   UNL     1      -1.313  11.012  22.515  0.00  0.00    +0.000 A 
ATOM     14  C   UNL     1      -2.128  11.768  23.367  0.00  0.00    +0.000 A 
ATOM     15  C   UNL     1      -2.842  12.865  22.881  0.00  0.00    +0.000 A 
ATOM     16  C   UNL     1      -2.753  13.212  21.536  0.00  0.00    +0.000 A 
ATOM     17  C   UNL     1      -1.946  12.469  20.676  0.00  0.00    +0.000 A 
ATOM     18  C   UNL     1      -1.215  11.370  21.154  0.00  0.00    +0.000 A 
ATOM     19  C   UNL     1      -0.386  10.620  20.311  0.00  0.00    +0.000 A 
ENDBRANCH   5  10
BRANCH   1  20
ATOM     20  C   UNL     1       4.997   3.951  18.603  0.00  0.00    +0.000 C 
BRANCH  20  21
ATOM     21  N   UNL     1       4.517   3.061  17.529  0.00  0.00    +0.000 NA
ATOM     22  H   UNL     1       3.942   3.645  16.911  0.00  0.00    +0.000 HD
BRANCH  21  23
ATOM     23  C   UNL     1       3.642   2.024  18.125  0.00  0.00    +0.000 C 
BRANCH  23  25
ATOM     24  O   UNL     1       1.773   3.249  17.191  0.00  0.00    +0.000 OA
ATOM     25  C   UNL     1       2.165   2.351  17.904  0.00  0.00    +0.000 C 
BRANCH  25  26
ATOM     26  O   UNL     1       1.330   1.556  18.619  0.00  0.00    +0.000 OA
ATOM     27  H   UNL     1       0.709   1.107  18.006  0.00  0.00    +0.000 HD
ENDBRANCH  25  26
ENDBRANCH  23  25
ENDBRANCH  21  23
ENDBRANCH  20  21
ENDBRANCH   1  20
TORSDOF 6
ENDMDL
MODEL 4
REMARK VINA RESULT:      -8.0      3.140      4.042
REMARK  Name = 
REMARK  6 active torsions:
REMARK  status: ('A' for Active; 'I' for Inactive)
REMARK    1  A    between atoms: C_2  and  O_3
REMARK    2  A    between atoms: C_2  and  C_4
REMARK    3  A    between atoms: C_4  and  N_5
REMARK    4  A    between atoms: N_5  and  C_6
REMARK    5  A    between atoms: C_6  and  C_7
REMARK    6  A    between atoms: C_11  and  C_12
REMARK                            x       y       z     vdW  Elec       q    Type
REMARK                         _______ _______ _______ _____ _____    ______ ____
ROOT
ATOM      1  C   UNL     1       4.776   5.226  17.364  0.00  0.00    +0.000 A 
ATOM      2  C   UNL     1       4.238   6.474  17.587  0.00  0.00    +0.000 A 
ATOM      3  C   UNL     1       3.302   6.499  18.666  0.00  0.00    +0.000 A 
ATOM      4  C   UNL     1       2.562   7.574  19.197  0.00  0.00    +0.000 A 
ATOM      5  C   UNL     1       1.670   7.395  20.265  0.00  0.00    +0.000 A 
ATOM      6  C   UNL     1       1.526   6.111  20.798  0.00  0.00    +0.000 A 
ATOM      7  C   UNL     1       2.252   5.024  20.304  0.00  0.00    +0.000 A 
ATOM      8  C   UNL     1       3.143   5.239  19.238  0.00  0.00    +0.000 A 
ATOM      9  S   UNL     1       4.157   4.079  18.470  0.00  0.00    +0.000 S 
ENDROOT
BRANCH   5  10
ATOM     10  C   UNL     1       0.924   8.539  20.808  0.00  0.00    +0.000 A 
ATOM     11  C   UNL     1       0.813   8.731  22.194  0.00  0.00    +0.000 A 
ATOM     12  C   UNL     1       0.134   9.830  22.712  0.00  0.00    +0.000 A 
ATOM     13  C   UNL     1      -0.440  10.780  21.860  0.00  0.00    +0.000 A 
ATOM     14  C   UNL     1      -1.097  11.907  22.369  0.00  0.00    +0.000 A 
ATOM     15  C   UNL     1      -1.663  12.851  21.510  0.00  0.00    +0.000 A 
ATOM     16  C   UNL     1      -1.582  12.673  20.131  0.00  0.00    +0.000 A 
ATOM     17  C   UNL     1      -0.931  11.556  19.610  0.00  0.00    +0.000 A 
ATOM     18  C   UNL     1      -0.349  10.605  20.462  0.00  0.00    +0.000 A 
ATOM     19  C   UNL     1       0.324   9.485  19.959  0.00  0.00    +0.000 A 
ENDBRANCH   5  10
BRANCH   1  20
ATOM     20  C   UNL     1       5.769   4.833  16.318  0.00  0.00    +0.000 C 
BRANCH  20  21
ATOM     21  N   UNL     1       7.085   5.432  16.607  0.00  0.00    +0.000 NA
ATOM     22  H   UNL     1       7.703   5.145  15.839  0.00  0.00    +0.000 HD
BRANCH  21  23
ATOM     23  C   UNL     1       7.610   4.845  17.863  0.00  0.00    +0.000 C 
BRANCH  23  25
ATOM     24  O   UNL     1       8.163   7.071  18.643  0.00  0.00    +0.000 OA
ATOM     25  C   UNL     1       7.872   5.925  18.913  0.00  0.00    +0.000 C 
BRANCH  25  26
ATOM     26  O   UNL     1       7.784   5.465  20.185  0.00  0.00    +0.000 OA
ATOM     27  H   UNL     1       7.383   6.159  20.752  0.00  0.00    +0.000 HD
ENDBRANCH  25  26
ENDBRANCH  23  25
ENDBRANCH  21  23
ENDBRANCH  20  21
ENDBRANCH   1  20
TORSDOF 6
ENDMDL
MODEL 5
REMARK VINA RESULT:      -8.0      1.630      1.891
REMARK  Name = 
REMARK  6 active torsions:
REMARK  status: ('A' for Active; 'I' for Inactive)
REMARK    1  A    between atoms: C_2  and  O_3
REMARK    2  A    between atoms: C_2  and  C_4
REMARK    3  A    between atoms: C_4  and  N_5
REMARK    4  A    between atoms: N_5  and  C_6
REMARK    5  A    between atoms: C_6  and  C_7
REMARK    6  A    between atoms: C_11  and  C_12
REMARK                            x       y       z     vdW  Elec       q    Type
REMARK                         _______ _______ _______ _____ _____    ______ ____
ROOT
ATOM      1  C   UNL     1       4.836   4.203  17.135  0.00  0.00    +0.000 A 
ATOM      2  C   UNL     1       4.341   5.488  17.128  0.00  0.00    +0.000 A 
ATOM      3  C   UNL     1       3.509   5.778  18.251  0.00  0.00    +0.000 A 
ATOM      4  C   UNL     1       2.838   6.968  18.597  0.00  0.00    +0.000 A 
ATOM      5  C   UNL     1       2.044   7.054  19.751  0.00  0.00    +0.000 A 
ATOM      6  C   UNL     1       1.929   5.921  20.561  0.00  0.00    +0.000 A 
ATOM      7  C   UNL     1       2.588   4.728  20.254  0.00  0.00    +0.000 A 
ATOM      8  C   UNL     1       3.381   4.676  19.094  0.00  0.00    +0.000 A 
ATOM      9  S   UNL     1       4.302   3.343  18.513  0.00  0.00    +0.000 S 
ENDROOT
BRANCH   5  10
ATOM     10  C   UNL     1       1.371   8.315  20.095  0.00  0.00    +0.000 A 
ATOM     11  C   UNL     1       1.310   9.372  19.173  0.00  0.00    +0.000 A 
ATOM     12  C   UNL     1       0.647  10.555  19.484  0.00  0.00    +0.000 A 
ATOM     13  C   UNL     1       0.009  10.711  20.720  0.00  0.00    +0.000 A 
ATOM     14  C   UNL     1      -0.690  11.885  21.031  0.00  0.00    +0.000 A 
ATOM     15  C   UNL     1      -1.326  12.028  22.265  0.00  0.00    +0.000 A 
ATOM     16  C   UNL     1      -1.264  11.002  23.204  0.00  0.00    +0.000 A 
ATOM     17  C   UNL     1      -0.573   9.828  22.908  0.00  0.00    +0.000 A 
ATOM     18  C   UNL     1       0.063   9.666  21.667  0.00  0.00    +0.000 A 
ATOM     19  C   UNL     1       0.748   8.489  21.343  0.00  0.00    +0.000 A 
ENDBRANCH   5  10
BRANCH   1  20
ATOM     20  C   UNL     1       5.723   3.559  16.118  0.00  0.00    +0.000 C 
BRANCH  20  21
ATOM     21  N   UNL     1       6.355   4.582  15.265  0.00  0.00    +0.000 NA
ATOM     22  H   UNL     1       5.750   5.410  15.318  0.00  0.00    +0.000 HD
BRANCH  21  23
ATOM     23  C   UNL     1       6.353   4.101  13.863  0.00  0.00    +0.000 C 
BRANCH  23  25
ATOM     24  O   UNL     1       7.515   4.692  11.822  0.00  0.00    +0.000 OA
ATOM     25  C   UNL     1       7.376   4.856  13.015  0.00  0.00    +0.000 C 
BRANCH  25  26
ATOM     26  O   UNL     1       8.147   5.705  13.739  0.00  0.00    +0.000 OA
ATOM     27  H   UNL     1       8.573   5.209  14.470  0.00  0.00    +0.000 HD
ENDBRANCH  25  26
ENDBRANCH  23  25
ENDBRANCH  21  23
ENDBRANCH  20  21
ENDBRANCH   1  20
TORSDOF 6
ENDMDL
MODEL 6
REMARK VINA RESULT:      -7.9      4.995      8.932
REMARK  Name = 
REMARK  6 active torsions:
REMARK  status: ('A' for Active; 'I' for Inactive)
REMARK    1  A    between atoms: C_2  and  O_3
REMARK    2  A    between atoms: C_2  and  C_4
REMARK    3  A    between atoms: C_4  and  N_5
REMARK    4  A    between atoms: N_5  and  C_6
REMARK    5  A    between atoms: C_6  and  C_7
REMARK    6  A    between atoms: C_11  and  C_12
REMARK                            x       y       z     vdW  Elec       q    Type
REMARK                         _______ _______ _______ _____ _____    ______ ____
ROOT
ATOM      1  C   UNL     1      -0.247  11.308  19.387  0.00  0.00    +0.000 A 
ATOM      2  C   UNL     1       0.434  10.617  18.411  0.00  0.00    +0.000 A 
ATOM      3  C   UNL     1       1.053   9.423  18.893  0.00  0.00    +0.000 A 
ATOM      4  C   UNL     1       1.817   8.459  18.207  0.00  0.00    +0.000 A 
ATOM      5  C   UNL     1       2.360   7.347  18.868  0.00  0.00    +0.000 A 
ATOM      6  C   UNL     1       2.127   7.213  20.239  0.00  0.00    +0.000 A 
ATOM      7  C   UNL     1       1.365   8.144  20.950  0.00  0.00    +0.000 A 
ATOM      8  C   UNL     1       0.829   9.244  20.257  0.00  0.00    +0.000 A 
ATOM      9  S   UNL     1      -0.151  10.508  20.894  0.00  0.00    +0.000 S 
ENDROOT
BRANCH   5  10
ATOM     10  C   UNL     1       3.138   6.348  18.121  0.00  0.00    +0.000 A 
ATOM     11  C   UNL     1       2.652   5.043  17.945  0.00  0.00    +0.000 A 
ATOM     12  C   UNL     1       3.372   4.104  17.213  0.00  0.00    +0.000 A 
ATOM     13  C   UNL     1       4.592   4.445  16.620  0.00  0.00    +0.000 A 
ATOM     14  C   UNL     1       5.310   3.518  15.853  0.00  0.00    +0.000 A 
ATOM     15  C   UNL     1       6.525   3.871  15.262  0.00  0.00    +0.000 A 
ATOM     16  C   UNL     1       7.037   5.153  15.438  0.00  0.00    +0.000 A 
ATOM     17  C   UNL     1       6.334   6.087  16.198  0.00  0.00    +0.000 A 
ATOM     18  C   UNL     1       5.107   5.749  16.789  0.00  0.00    +0.000 A 
ATOM     19  C   UNL     1       4.377   6.676  17.543  0.00  0.00    +0.000 A 
ENDBRANCH   5  10
BRANCH   1  20
ATOM     20  C   UNL     1      -0.997  12.594  19.242  0.00  0.00    +0.000 C 
BRANCH  20  21
ATOM     21  N   UNL     1      -1.715  12.629  17.954  0.00  0.00    +0.000 NA
ATOM     22  H   UNL     1      -1.997  13.606  17.812  0.00  0.00    +0.000 HD
BRANCH  21  23
ATOM     23  C   UNL     1      -2.944  11.810  18.073  0.00  0.00    +0.000 C 
BRANCH  23  25
ATOM     24  O   UNL     1      -3.025  11.030  15.781  0.00  0.00    +0.000 OA
ATOM     25  C   UNL     1      -3.021  10.761  16.963  0.00  0.00    +0.000 C 
BRANCH  25  26
ATOM     26  O   UNL     1      -3.124   9.493  17.432  0.00  0.00    +0.000 OA
ATOM     27  H   UNL     1      -2.380   8.958  17.081  0.00  0.00    +0.000 HD
ENDBRANCH  25  26
ENDBRANCH  23  25
ENDBRANCH  21  23
ENDBRANCH  20  21
ENDBRANCH   1  20
TORSDOF 6
ENDMDL
MODEL 7
REMARK VINA RESULT:      -7.9      6.179     10.258
REMARK  Name = 
REMARK  6 active torsions:
REMARK  status: ('A' for Active; 'I' for Inactive)
REMARK    1  A    between atoms: C_2  and  O_3
REMARK    2  A    between atoms: C_2  and  C_4
REMARK    3  A    between atoms: C_4  and  N_5
REMARK    4  A    between atoms: N_5  and  C_6
REMARK    5  A    between atoms: C_6  and  C_7
REMARK    6  A    between atoms: C_11  and  C_12
REMARK                            x       y       z     vdW  Elec       q    Type
REMARK                         _______ _______ _______ _____ _____    ______ ____
ROOT
ATOM      1  C   UNL     1      -0.418  10.516  21.920  0.00  0.00    +0.000 A 
ATOM      2  C   UNL     1       0.146   9.274  21.734  0.00  0.00    +0.000 A 
ATOM      3  C   UNL     1       0.822   9.144  20.483  0.00  0.00    +0.000 A 
ATOM      4  C   UNL     1       1.522   8.047  19.943  0.00  0.00    +0.000 A 
ATOM      5  C   UNL     1       2.115   8.108  18.672  0.00  0.00    +0.000 A 
ATOM      6  C   UNL     1       1.996   9.294  17.943  0.00  0.00    +0.000 A 
ATOM      7  C   UNL     1       1.319  10.406  18.453  0.00  0.00    +0.000 A 
ATOM      8  C   UNL     1       0.742  10.314  19.731  0.00  0.00    +0.000 A 
ATOM      9  S   UNL     1      -0.120  11.538  20.582  0.00  0.00    +0.000 S 
ENDROOT
BRANCH   5  10
ATOM     10  C   UNL     1       2.853   6.953  18.142  0.00  0.00    +0.000 A 
ATOM     11  C   UNL     1       2.411   5.643  18.389  0.00  0.00    +0.000 A 
ATOM     12  C   UNL     1       3.090   4.548  17.863  0.00  0.00    +0.000 A 
ATOM     13  C   UNL     1       4.221   4.729  17.060  0.00  0.00    +0.000 A 
ATOM     14  C   UNL     1       4.894   3.636  16.497  0.00  0.00    +0.000 A 
ATOM     15  C   UNL     1       6.019   3.828  15.694  0.00  0.00    +0.000 A 
ATOM     16  C   UNL     1       6.488   5.116  15.451  0.00  0.00    +0.000 A 
ATOM     17  C   UNL     1       5.830   6.214  16.003  0.00  0.00    +0.000 A 
ATOM     18  C   UNL     1       4.691   6.036  16.804  0.00  0.00    +0.000 A 
ATOM     19  C   UNL     1       4.005   7.125  17.355  0.00  0.00    +0.000 A 
ENDBRANCH   5  10
BRANCH   1  20
ATOM     20  C   UNL     1      -1.204  10.996  23.098  0.00  0.00    +0.000 C 
BRANCH  20  21
ATOM     21  N   UNL     1      -1.153  12.468  23.186  0.00  0.00    +0.000 NA
ATOM     22  H   UNL     1      -0.508  12.685  23.954  0.00  0.00    +0.000 HD
BRANCH  21  23
ATOM     23  C   UNL     1      -2.496  12.969  23.560  0.00  0.00    +0.000 C 
BRANCH  23  25
ATOM     24  O   UNL     1      -4.415  12.273  22.255  0.00  0.00    +0.000 OA
ATOM     25  C   UNL     1      -3.438  12.984  22.355  0.00  0.00    +0.000 C 
BRANCH  25  26
ATOM     26  O   UNL     1      -3.050  13.849  21.385  0.00  0.00    +0.000 OA
ATOM     27  H   UNL     1      -2.090  13.736  21.218  0.00  0.00    +0.000 HD
ENDBRANCH  25  26
ENDBRANCH  23  25
ENDBRANCH  21  23
ENDBRANCH  20  21
ENDBRANCH   1  20
TORSDOF 6
ENDMDL
MODEL 8
REMARK VINA RESULT:      -7.9      2.976      4.306
REMARK  Name = 
REMARK  6 active torsions:
REMARK  status: ('A' for Active; 'I' for Inactive)
REMARK    1  A    between atoms: C_2  and  O_3
REMARK    2  A    between atoms: C_2  and  C_4
REMARK    3  A    between atoms: C_4  and  N_5
REMARK    4  A    between atoms: N_5  and  C_6
REMARK    5  A    between atoms: C_6  and  C_7
REMARK    6  A    between atoms: C_11  and  C_12
REMARK                            x       y       z     vdW  Elec       q    Type
REMARK                         _______ _______ _______ _____ _____    ______ ____
ROOT
ATOM      1  C   UNL     1       3.972   5.287  18.733  0.00  0.00    +0.000 A 
ATOM      2  C   UNL     1       3.255   5.750  19.813  0.00  0.00    +0.000 A 
ATOM      3  C   UNL     1       2.564   6.972  19.548  0.00  0.00    +0.000 A 
ATOM      4  C   UNL     1       1.730   7.739  20.385  0.00  0.00    +0.000 A 
ATOM      5  C   UNL     1       1.145   8.935  19.941  0.00  0.00    +0.000 A 
ATOM      6  C   UNL     1       1.411   9.357  18.636  0.00  0.00    +0.000 A 
ATOM      7  C   UNL     1       2.224   8.615  17.775  0.00  0.00    +0.000 A 
ATOM      8  C   UNL     1       2.790   7.418  18.248  0.00  0.00    +0.000 A 
ATOM      9  S   UNL     1       3.802   6.325  17.385  0.00  0.00    +0.000 S 
ENDROOT
BRANCH   5  10
ATOM     10  C   UNL     1       0.265   9.705  20.832  0.00  0.00    +0.000 A 
ATOM     11  C   UNL     1       0.170   9.389  22.196  0.00  0.00    +0.000 A 
ATOM     12  C   UNL     1      -0.639  10.135  23.048  0.00  0.00    +0.000 A 
ATOM     13  C   UNL     1      -1.363  11.232  22.566  0.00  0.00    +0.000 A 
ATOM     14  C   UNL     1      -2.154  12.010  23.421  0.00  0.00    +0.000 A 
ATOM     15  C   UNL     1      -2.868  13.104  22.930  0.00  0.00    +0.000 A 
ATOM     16  C   UNL     1      -2.804  13.427  21.578  0.00  0.00    +0.000 A 
ATOM     17  C   UNL     1      -2.021  12.662  20.715  0.00  0.00    +0.000 A 
ATOM     18  C   UNL     1      -1.289  11.565  21.197  0.00  0.00    +0.000 A 
ATOM     19  C   UNL     1      -0.484  10.793  20.351  0.00  0.00    +0.000 A 
ENDBRANCH   5  10
BRANCH   1  20
ATOM     20  C   UNL     1       4.816   4.055  18.657  0.00  0.00    +0.000 C 
BRANCH  20  21
ATOM     21  N   UNL     1       5.798   4.170  17.562  0.00  0.00    +0.000 NA
ATOM     22  H   UNL     1       5.970   3.214  17.232  0.00  0.00    +0.000 HD
BRANCH  21  23
ATOM     23  C   UNL     1       7.067   4.700  18.115  0.00  0.00    +0.000 C 
BRANCH  23  25
ATOM     24  O   UNL     1       7.710   7.035  18.100  0.00  0.00    +0.000 OA
ATOM     25  C   UNL     1       7.439   6.036  17.470  0.00  0.00    +0.000 C 
BRANCH  25  26
ATOM     26  O   UNL     1       7.398   6.004  16.115  0.00  0.00    +0.000 OA
ATOM     27  H   UNL     1       7.566   5.087  15.809  0.00  0.00    +0.000 HD
ENDBRANCH  25  26
ENDBRANCH  23  25
ENDBRANCH  21  23
ENDBRANCH  20  21
ENDBRANCH   1  20
TORSDOF 6
ENDMDL
MODEL 9
REMARK VINA RESULT:      -7.8      2.875      3.396
REMARK  Name = 
REMARK  6 active torsions:
REMARK  status: ('A' for Active; 'I' for Inactive)
REMARK    1  A    between atoms: C_2  and  O_3
REMARK    2  A    between atoms: C_2  and  C_4
REMARK    3  A    between atoms: C_4  and  N_5
REMARK    4  A    between atoms: N_5  and  C_6
REMARK    5  A    between atoms: C_6  and  C_7
REMARK    6  A    between atoms: C_11  and  C_12
REMARK                            x       y       z     vdW  Elec       q    Type
REMARK                         _______ _______ _______ _____ _____    ______ ____
ROOT
ATOM      1  C   UNL     1       4.307   4.730  17.539  0.00  0.00    +0.000 A 
ATOM      2  C   UNL     1       3.834   6.021  17.482  0.00  0.00    +0.000 A 
ATOM      3  C   UNL     1       3.018   6.373  18.600  0.00  0.00    +0.000 A 
ATOM      4  C   UNL     1       2.371   7.588  18.901  0.00  0.00    +0.000 A 
ATOM      5  C   UNL     1       1.591   7.736  20.058  0.00  0.00    +0.000 A 
ATOM      6  C   UNL     1       1.464   6.641  20.916  0.00  0.00    +0.000 A 
ATOM      7  C   UNL     1       2.101   5.424  20.655  0.00  0.00    +0.000 A 
ATOM      8  C   UNL     1       2.881   5.310  19.490  0.00  0.00    +0.000 A 
ATOM      9  S   UNL     1       3.773   3.938  18.957  0.00  0.00    +0.000 S 
ENDROOT
BRANCH   5  10
ATOM     10  C   UNL     1       0.942   9.022  20.355  0.00  0.00    +0.000 A 
ATOM     11  C   UNL     1       0.951  10.064  19.415  0.00  0.00    +0.000 A 
ATOM     12  C   UNL     1       0.311  11.272  19.680  0.00  0.00    +0.000 A 
ATOM     13  C   UNL     1      -0.372  11.467  20.886  0.00  0.00    +0.000 A 
ATOM     14  C   UNL     1      -1.047  12.666  21.150  0.00  0.00    +0.000 A 
ATOM     15  C   UNL     1      -1.728  12.848  22.355  0.00  0.00    +0.000 A 
ATOM     16  C   UNL     1      -1.736  11.837  23.310  0.00  0.00    +0.000 A 
ATOM     17  C   UNL     1      -1.069  10.638  23.061  0.00  0.00    +0.000 A 
ATOM     18  C   UNL     1      -0.388  10.437  21.850  0.00  0.00    +0.000 A 
ATOM     19  C   UNL     1       0.275   9.235  21.573  0.00  0.00    +0.000 A 
ENDBRANCH   5  10
BRANCH   1  20
ATOM     20  C   UNL     1       5.173   4.028  16.542  0.00  0.00    +0.000 C 
BRANCH  20  21
ATOM     21  N   UNL     1       6.588   4.094  16.953  0.00  0.00    +0.000 NA
ATOM     22  H   UNL     1       6.583   4.208  17.973  0.00  0.00    +0.000 HD
BRANCH  21  23
ATOM     23  C   UNL     1       7.199   5.308  16.359  0.00  0.00    +0.000 C 
BRANCH  23  25
ATOM     24  O   UNL     1       7.764   6.130  18.566  0.00  0.00    +0.000 OA
ATOM     25  C   UNL     1       7.452   6.378  17.421  0.00  0.00    +0.000 C 
BRANCH  25  26
ATOM     26  O   UNL     1       7.256   7.640  16.965  0.00  0.00    +0.000 OA
ATOM     27  H   UNL     1       7.321   8.268  17.716  0.00  0.00    +0.000 HD
ENDBRANCH  25  26
ENDBRANCH  23  25
ENDBRANCH  21  23
ENDBRANCH  20  21
ENDBRANCH   1  20
TORSDOF 6
ENDMDL
