MODEL 1
REMARK VINA RESULT:      -7.3      0.000      0.000
REMARK  Name = 
REMARK  11 active torsions:
REMARK  status: ('A' for Active; 'I' for Inactive)
REMARK    1  A    between atoms: C_1  and  C_2
REMARK    2  A    between atoms: C_2  and  O_3
REMARK    3  A    between atoms: O_3  and  C_4
REMARK    4  A    between atoms: C_4  and  C_6
REMARK    5  A    between atoms: C_7  and  C_8
REMARK    6  A    between atoms: C_10  and  N_11
REMARK    7  A    between atoms: C_12  and  C_13
REMARK    8  A    between atoms: C_15  and  C_16
REMARK    9  A    between atoms: C_19  and  O_20
REMARK   10  A    between atoms: C_21  and  O_22
REMARK   11  A    between atoms: O_22  and  C_23
REMARK                            x       y       z     vdW  Elec       q    Type
REMARK                         _______ _______ _______ _____ _____    ______ ____
ROOT
ATOM      1  C   UNL     1       2.572   6.087  18.985  0.00  0.00    +0.000 C 
ATOM      2  C   UNL     1       2.015   6.190  20.214  0.00  0.00    +0.000 C 
ATOM      3  C   UNL     1       1.517   7.428  20.910  0.00  0.00    +0.000 C 
ATOM      4  O   UNL     1       1.808   5.075  21.014  0.00  0.00    +0.000 OA
ATOM      5  C   UNL     1       2.355   3.846  20.688  0.00  0.00    +0.000 C 
ATOM      6  C   UNL     1       2.854   3.612  19.458  0.00  0.00    +0.000 C 
ATOM      7  C   UNL     1       2.908   4.716  18.404  0.00  0.00    +0.000 C 
ENDROOT
BRANCH   7   8
ATOM      8  C   UNL     1       4.231   4.672  17.633  0.00  0.00    +0.000 A 
ATOM      9  C   UNL     1       4.266   4.567  16.241  0.00  0.00    +0.000 A 
ATOM     10  C   UNL     1       5.489   4.525  15.572  0.00  0.00    +0.000 A 
ATOM     11  C   UNL     1       6.694   4.570  16.284  0.00  0.00    +0.000 A 
ATOM     12  C   UNL     1       6.689   4.673  17.677  0.00  0.00    +0.000 A 
ATOM     13  C   UNL     1       5.453   4.737  18.336  0.00  0.00    +0.000 A 
BRANCH  11  14
ATOM     14  O   UNL     1       7.861   4.499  15.578  0.00  0.00    +0.000 OA
ATOM     15  H   UNL     1       8.151   3.574  15.537  0.00  0.00    +0.000 HD
ENDBRANCH  11  14
BRANCH  12  16
ATOM     16  O   UNL     1       7.755   4.706  18.537  0.00  0.00    +0.000 OA
ATOM     17  C   UNL     1       7.913   5.855  19.359  0.00  0.00    +0.000 C 
ENDBRANCH  12  16
ENDBRANCH   7   8
BRANCH   5  18
ATOM     18  N   UNL     1       2.311   2.955  21.732  0.00  0.00    +0.000 N 
ATOM     19  H   UNL     1       1.367   2.784  22.069  0.00  0.00    +0.000 HD
ATOM     20  H   UNL     1       2.882   2.118  21.648  0.00  0.00    +0.000 HD
ENDBRANCH   5  18
BRANCH   1  21
ATOM     21  C   UNL     1       2.881   7.314  18.199  0.00  0.00    +0.000 C 
ATOM     22  O   UNL     1       4.013   7.713  17.962  0.00  0.00    +0.000 OA
BRANCH  21  23
ATOM     23  O   UNL     1       1.748   7.903  17.752  0.00  0.00    +0.000 OA
BRANCH  23  25
ATOM     24  C   UNL     1       0.380   9.888  18.269  0.00  0.00    +0.000 C 
ATOM     25  C   UNL     1       1.722   9.339  17.804  0.00  0.00    +0.000 C 
ENDBRANCH  23  25
ENDBRANCH  21  23
ENDBRANCH   1  21
BRANCH   6  26
ATOM     26  C   UNL     1       3.360   2.316  19.135  0.00  0.00    +0.000 C 
ATOM     27  N   UNL     1       3.795   1.279  18.851  0.00  0.00    +0.000 NA
ENDBRANCH   6  26
TORSDOF 8
ENDMDL
MODEL 2
REMARK VINA RESULT:      -6.7      0.755      1.941
REMARK  Name = 
REMARK  11 active torsions:
REMARK  status: ('A' for Active; 'I' for Inactive)
REMARK    1  A    between atoms: C_1  and  C_2
REMARK    2  A    between atoms: C_2  and  O_3
REMARK    3  A    between atoms: O_3  and  C_4
REMARK    4  A    between atoms: C_4  and  C_6
REMARK    5  A    between atoms: C_7  and  C_8
REMARK    6  A    between atoms: C_10  and  N_11
REMARK    7  A    between atoms: C_12  and  C_13
REMARK    8  A    between atoms: C_15  and  C_16
REMARK    9  A    between atoms: C_19  and  O_20
REMARK   10  A    between atoms: C_21  and  O_22
REMARK   11  A    between atoms: O_22  and  C_23
REMARK                            x       y       z     vdW  Elec       q    Type
REMARK                         _______ _______ _______ _____ _____    ______ ____
ROOT
ATOM      1  C   UNL     1       2.579   6.110  19.024  0.00  0.00    +0.000 C 
ATOM      2  C   UNL     1       1.984   6.222  20.235  0.00  0.00    +0.000 C 
ATOM      3  C   UNL     1       1.451   7.462  20.901  0.00  0.00    +0.000 C 
ATOM      4  O   UNL     1       1.764   5.113  21.041  0.00  0.00    +0.000 OA
ATOM      5  C   UNL     1       2.335   3.888  20.747  0.00  0.00    +0.000 C 
ATOM      6  C   UNL     1       2.873   3.644  19.535  0.00  0.00    +0.000 C 
ATOM      7  C   UNL     1       2.947   4.737  18.470  0.00  0.00    +0.000 C 
ENDROOT
BRANCH   7   8
ATOM      8  C   UNL     1       4.293   4.699  17.740  0.00  0.00    +0.000 A 
ATOM      9  C   UNL     1       5.505   4.714  18.436  0.00  0.00    +0.000 A 
ATOM     10  C   UNL     1       6.713   4.684  17.739  0.00  0.00    +0.000 A 
ATOM     11  C   UNL     1       6.728   4.655  16.339  0.00  0.00    +0.000 A 
ATOM     12  C   UNL     1       5.532   4.641  15.618  0.00  0.00    +0.000 A 
ATOM     13  C   UNL     1       4.324   4.649  16.331  0.00  0.00    +0.000 A 
BRANCH  11  14
ATOM     14  O   UNL     1       7.941   4.652  15.710  0.00  0.00    +0.000 OA
ATOM     15  H   UNL     1       7.801   4.716  14.752  0.00  0.00    +0.000 HD
ENDBRANCH  11  14
BRANCH  12  16
ATOM     16  O   UNL     1       5.350   4.636  14.260  0.00  0.00    +0.000 OA
ATOM     17  C   UNL     1       6.049   3.663  13.496  0.00  0.00    +0.000 C 
ENDBRANCH  12  16
ENDBRANCH   7   8
BRANCH   5  18
ATOM     18  N   UNL     1       2.268   3.007  21.799  0.00  0.00    +0.000 N 
ATOM     19  H   UNL     1       2.469   2.048  21.528  0.00  0.00    +0.000 HD
ATOM     20  H   UNL     1       2.706   3.296  22.670  0.00  0.00    +0.000 HD
ENDBRANCH   5  18
BRANCH   1  21
ATOM     21  C   UNL     1       2.897   7.332  18.234  0.00  0.00    +0.000 C 
ATOM     22  O   UNL     1       4.032   7.735  18.016  0.00  0.00    +0.000 OA
BRANCH  21  23
ATOM     23  O   UNL     1       1.772   7.911  17.758  0.00  0.00    +0.000 OA
BRANCH  23  25
ATOM     24  C   UNL     1       0.375   9.891  18.218  0.00  0.00    +0.000 C 
ATOM     25  C   UNL     1       1.735   9.347  17.800  0.00  0.00    +0.000 C 
ENDBRANCH  23  25
ENDBRANCH  21  23
ENDBRANCH   1  21
BRANCH   6  26
ATOM     26  C   UNL     1       3.402   2.351  19.243  0.00  0.00    +0.000 C 
ATOM     27  N   UNL     1       3.817   1.288  19.035  0.00  0.00    +0.000 NA
ENDBRANCH   6  26
TORSDOF 8
ENDMDL
MODEL 3
REMARK VINA RESULT:      -6.6      1.891      5.493
REMARK  Name = 
REMARK  11 active torsions:
REMARK  status: ('A' for Active; 'I' for Inactive)
REMARK    1  A    between atoms: C_1  and  C_2
REMARK    2  A    between atoms: C_2  and  O_3
REMARK    3  A    between atoms: O_3  and  C_4
REMARK    4  A    between atoms: C_4  and  C_6
REMARK    5  A    between atoms: C_7  and  C_8
REMARK    6  A    between atoms: C_10  and  N_11
REMARK    7  A    between atoms: C_12  and  C_13
REMARK    8  A    between atoms: C_15  and  C_16
REMARK    9  A    between atoms: C_19  and  O_20
REMARK   10  A    between atoms: C_21  and  O_22
REMARK   11  A    between atoms: O_22  and  C_23
REMARK                            x       y       z     vdW  Elec       q    Type
REMARK                         _______ _______ _______ _____ _____    ______ ____
ROOT
ATOM      1  C   UNL     1       4.624   5.320  17.401  0.00  0.00    +0.000 C 
ATOM      2  C   UNL     1       4.786   4.157  16.729  0.00  0.00    +0.000 C 
ATOM      3  C   UNL     1       5.737   3.856  15.602  0.00  0.00    +0.000 C 
ATOM      4  O   UNL     1       4.051   3.024  17.050  0.00  0.00    +0.000 OA
ATOM      5  C   UNL     1       2.973   3.090  17.916  0.00  0.00    +0.000 C 
ATOM      6  C   UNL     1       2.775   4.169  18.698  0.00  0.00    +0.000 C 
ATOM      7  C   UNL     1       3.683   5.393  18.600  0.00  0.00    +0.000 C 
ENDROOT
BRANCH   7   8
ATOM      8  C   UNL     1       2.867   6.687  18.675  0.00  0.00    +0.000 A 
ATOM      9  C   UNL     1       2.546   7.420  17.529  0.00  0.00    +0.000 A 
ATOM     10  C   UNL     1       1.805   8.597  17.635  0.00  0.00    +0.000 A 
ATOM     11  C   UNL     1       1.388   9.067  18.886  0.00  0.00    +0.000 A 
ATOM     12  C   UNL     1       1.696   8.357  20.048  0.00  0.00    +0.000 A 
ATOM     13  C   UNL     1       2.422   7.163  19.927  0.00  0.00    +0.000 A 
BRANCH  11  14
ATOM     14  O   UNL     1       0.688  10.240  18.931  0.00  0.00    +0.000 OA
ATOM     15  H   UNL     1       1.308  10.974  19.061  0.00  0.00    +0.000 HD
ENDBRANCH  11  14
BRANCH  12  16
ATOM     16  O   UNL     1       1.397   8.669  21.348  0.00  0.00    +0.000 OA
ATOM     17  C   UNL     1       0.038   8.597  21.756  0.00  0.00    +0.000 C 
ENDBRANCH  12  16
ENDBRANCH   7   8
BRANCH   5  18
ATOM     18  N   UNL     1       2.191   1.962  17.872  0.00  0.00    +0.000 N 
ATOM     19  H   UNL     1       1.714   1.773  18.750  0.00  0.00    +0.000 HD
ATOM     20  H   UNL     1       1.611   1.834  17.046  0.00  0.00    +0.000 HD
ENDBRANCH   5  18
BRANCH   1  21
ATOM     21  C   UNL     1       5.348   6.545  16.959  0.00  0.00    +0.000 C 
ATOM     22  O   UNL     1       5.180   7.093  15.878  0.00  0.00    +0.000 OA
BRANCH  21  23
ATOM     23  O   UNL     1       6.185   6.990  17.924  0.00  0.00    +0.000 OA
BRANCH  23  25
ATOM     24  C   UNL     1       7.836   5.765  19.287  0.00  0.00    +0.000 C 
ATOM     25  C   UNL     1       7.495   6.398  17.945  0.00  0.00    +0.000 C 
ENDBRANCH  23  25
ENDBRANCH  21  23
ENDBRANCH   1  21
BRANCH   6  26
ATOM     26  C   UNL     1       1.687   4.182  19.622  0.00  0.00    +0.000 C 
ATOM     27  N   UNL     1       0.810   4.159  20.381  0.00  0.00    +0.000 NA
ENDBRANCH   6  26
TORSDOF 8
ENDMDL
MODEL 4
REMARK VINA RESULT:      -6.3      2.475      5.796
REMARK  Name = 
REMARK  11 active torsions:
REMARK  status: ('A' for Active; 'I' for Inactive)
REMARK    1  A    between atoms: C_1  and  C_2
REMARK    2  A    between atoms: C_2  and  O_3
REMARK    3  A    between atoms: O_3  and  C_4
REMARK    4  A    between atoms: C_4  and  C_6
REMARK    5  A    between atoms: C_7  and  C_8
REMARK    6  A    between atoms: C_10  and  N_11
REMARK    7  A    between atoms: C_12  and  C_13
REMARK    8  A    between atoms: C_15  and  C_16
REMARK    9  A    between atoms: C_19  and  O_20
REMARK   10  A    between atoms: C_21  and  O_22
REMARK   11  A    between atoms: O_22  and  C_23
REMARK                            x       y       z     vdW  Elec       q    Type
REMARK                         _______ _______ _______ _____ _____    ______ ____
ROOT
ATOM      1  C   UNL     1       3.106   4.053  17.733  0.00  0.00    +0.000 C 
ATOM      2  C   UNL     1       3.939   2.991  17.823  0.00  0.00    +0.000 C 
ATOM      3  C   UNL     1       3.582   1.538  17.985  0.00  0.00    +0.000 C 
ATOM      4  O   UNL     1       5.318   3.139  17.747  0.00  0.00    +0.000 OA
ATOM      5  C   UNL     1       5.908   4.390  17.795  0.00  0.00    +0.000 C 
ATOM      6  C   UNL     1       5.179   5.510  17.624  0.00  0.00    +0.000 C 
ATOM      7  C   UNL     1       3.662   5.447  17.451  0.00  0.00    +0.000 C 
ENDROOT
BRANCH   7   8
ATOM      8  C   UNL     1       2.975   6.564  18.242  0.00  0.00    +0.000 A 
ATOM      9  C   UNL     1       2.642   6.411  19.591  0.00  0.00    +0.000 A 
ATOM     10  C   UNL     1       2.012   7.447  20.279  0.00  0.00    +0.000 A 
ATOM     11  C   UNL     1       1.690   8.644  19.628  0.00  0.00    +0.000 A 
ATOM     12  C   UNL     1       2.009   8.825  18.280  0.00  0.00    +0.000 A 
ATOM     13  C   UNL     1       2.663   7.783  17.605  0.00  0.00    +0.000 A 
BRANCH  11  14
ATOM     14  O   UNL     1       1.050   9.615  20.346  0.00  0.00    +0.000 OA
ATOM     15  H   UNL     1       0.279   9.225  20.787  0.00  0.00    +0.000 HD
ENDBRANCH  11  14
BRANCH  12  16
ATOM     16  O   UNL     1       1.756   9.905  17.477  0.00  0.00    +0.000 OA
ATOM     17  C   UNL     1       2.291  11.164  17.862  0.00  0.00    +0.000 C 
ENDBRANCH  12  16
ENDBRANCH   7   8
BRANCH   5  18
ATOM     18  N   UNL     1       7.261   4.326  18.019  0.00  0.00    +0.000 N 
ATOM     19  H   UNL     1       7.812   4.545  17.193  0.00  0.00    +0.000 HD
ATOM     20  H   UNL     1       7.608   4.750  18.877  0.00  0.00    +0.000 HD
ENDBRANCH   5  18
BRANCH   1  21
ATOM     21  C   UNL     1       1.641   3.872  17.929  0.00  0.00    +0.000 C 
ATOM     22  O   UNL     1       0.783   4.377  17.217  0.00  0.00    +0.000 OA
BRANCH  21  23
ATOM     23  O   UNL     1       1.387   3.047  18.970  0.00  0.00    +0.000 OA
BRANCH  23  25
ATOM     24  C   UNL     1       1.674   3.261  21.409  0.00  0.00    +0.000 C 
ATOM     25  C   UNL     1       0.897   3.673  20.167  0.00  0.00    +0.000 C 
ENDBRANCH  23  25
ENDBRANCH  21  23
ENDBRANCH   1  21
BRANCH   6  26
ATOM     26  C   UNL     1       5.826   6.783  17.622  0.00  0.00    +0.000 C 
ATOM     27  N   UNL     1       6.381   7.801  17.636  0.00  0.00    +0.000 NA
ENDBRANCH   6  26
TORSDOF 8
ENDMDL
MODEL 5
REMARK VINA RESULT:      -6.3      2.493      5.706
REMARK  Name = 
REMARK  11 active torsions:
REMARK  status: ('A' for Active; 'I' for Inactive)
REMARK    1  A    between atoms: C_1  and  C_2
REMARK    2  A    between atoms: C_2  and  O_3
REMARK    3  A    between atoms: O_3  and  C_4
REMARK    4  A    between atoms: C_4  and  C_6
REMARK    5  A    between atoms: C_7  and  C_8
REMARK    6  A    between atoms: C_10  and  N_11
REMARK    7  A    between atoms: C_12  and  C_13
REMARK    8  A    between atoms: C_15  and  C_16
REMARK    9  A    between atoms: C_19  and  O_20
REMARK   10  A    between atoms: C_21  and  O_22
REMARK   11  A    between atoms: O_22  and  C_23
REMARK                            x       y       z     vdW  Elec       q    Type
REMARK                         _______ _______ _______ _____ _____    ______ ____
ROOT
ATOM      1  C   UNL     1       3.302   4.243  18.243  0.00  0.00    +0.000 C 
ATOM      2  C   UNL     1       4.164   3.281  18.647  0.00  0.00    +0.000 C 
ATOM      3  C   UNL     1       3.847   1.905  19.168  0.00  0.00    +0.000 C 
ATOM      4  O   UNL     1       5.538   3.469  18.598  0.00  0.00    +0.000 OA
ATOM      5  C   UNL     1       6.083   4.716  18.343  0.00  0.00    +0.000 C 
ATOM      6  C   UNL     1       5.328   5.717  17.851  0.00  0.00    +0.000 C 
ATOM      7  C   UNL     1       3.827   5.540  17.631  0.00  0.00    +0.000 C 
ENDROOT
BRANCH   7   8
ATOM      8  C   UNL     1       3.058   6.791  18.069  0.00  0.00    +0.000 A 
ATOM      9  C   UNL     1       2.764   7.822  17.173  0.00  0.00    +0.000 A 
ATOM     10  C   UNL     1       2.066   8.949  17.608  0.00  0.00    +0.000 A 
ATOM     11  C   UNL     1       1.669   9.071  18.944  0.00  0.00    +0.000 A 
ATOM     12  C   UNL     1       1.952   8.057  19.862  0.00  0.00    +0.000 A 
ATOM     13  C   UNL     1       2.634   6.918  19.409  0.00  0.00    +0.000 A 
BRANCH  11  14
ATOM     14  O   UNL     1       1.012  10.209  19.318  0.00  0.00    +0.000 OA
ATOM     15  H   UNL     1       0.635  10.081  20.203  0.00  0.00    +0.000 HD
ENDBRANCH  11  14
BRANCH  12  16
ATOM     16  O   UNL     1       1.666   8.009  21.201  0.00  0.00    +0.000 OA
ATOM     17  C   UNL     1       0.328   8.259  21.608  0.00  0.00    +0.000 C 
ENDBRANCH  12  16
ENDBRANCH   7   8
BRANCH   5  18
ATOM     18  N   UNL     1       7.423   4.776  18.638  0.00  0.00    +0.000 N 
ATOM     19  H   UNL     1       7.674   4.235  19.461  0.00  0.00    +0.000 HD
ATOM     20  H   UNL     1       8.071   4.679  17.860  0.00  0.00    +0.000 HD
ENDBRANCH   5  18
BRANCH   1  21
ATOM     21  C   UNL     1       1.835   4.051  18.412  0.00  0.00    +0.000 C 
ATOM     22  O   UNL     1       1.074   3.729  17.509  0.00  0.00    +0.000 OA
BRANCH  21  23
ATOM     23  O   UNL     1       1.464   4.240  19.698  0.00  0.00    +0.000 OA
BRANCH  23  25
ATOM     24  C   UNL     1       1.382   2.717  21.636  0.00  0.00    +0.000 C 
ATOM     25  C   UNL     1       0.757   3.153  20.318  0.00  0.00    +0.000 C 
ENDBRANCH  23  25
ENDBRANCH  21  23
ENDBRANCH   1  21
BRANCH   6  26
ATOM     26  C   UNL     1       5.932   6.974  17.544  0.00  0.00    +0.000 C 
ATOM     27  N   UNL     1       6.413   7.991  17.261  0.00  0.00    +0.000 NA
ENDBRANCH   6  26
TORSDOF 8
ENDMDL
MODEL 6
REMARK VINA RESULT:      -5.9      0.983      1.620
REMARK  Name = 
REMARK  11 active torsions:
REMARK  status: ('A' for Active; 'I' for Inactive)
REMARK    1  A    between atoms: C_1  and  C_2
REMARK    2  A    between atoms: C_2  and  O_3
REMARK    3  A    between atoms: O_3  and  C_4
REMARK    4  A    between atoms: C_4  and  C_6
REMARK    5  A    between atoms: C_7  and  C_8
REMARK    6  A    between atoms: C_10  and  N_11
REMARK    7  A    between atoms: C_12  and  C_13
REMARK    8  A    between atoms: C_15  and  C_16
REMARK    9  A    between atoms: C_19  and  O_20
REMARK   10  A    between atoms: C_21  and  O_22
REMARK   11  A    between atoms: O_22  and  C_23
REMARK                            x       y       z     vdW  Elec       q    Type
REMARK                         _______ _______ _______ _____ _____    ______ ____
ROOT
ATOM      1  C   UNL     1       2.508   5.739  19.033  0.00  0.00    +0.000 C 
ATOM      2  C   UNL     1       1.964   5.824  20.269  0.00  0.00    +0.000 C 
ATOM      3  C   UNL     1       1.421   7.042  20.966  0.00  0.00    +0.000 C 
ATOM      4  O   UNL     1       1.816   4.705  21.076  0.00  0.00    +0.000 OA
ATOM      5  C   UNL     1       2.413   3.500  20.748  0.00  0.00    +0.000 C 
ATOM      6  C   UNL     1       2.904   3.281  19.513  0.00  0.00    +0.000 C 
ATOM      7  C   UNL     1       2.896   4.381  18.453  0.00  0.00    +0.000 C 
ENDROOT
BRANCH   7   8
ATOM      8  C   UNL     1       4.210   4.392  17.665  0.00  0.00    +0.000 A 
ATOM      9  C   UNL     1       4.229   4.310  16.270  0.00  0.00    +0.000 A 
ATOM     10  C   UNL     1       5.444   4.317  15.585  0.00  0.00    +0.000 A 
ATOM     11  C   UNL     1       6.656   4.389  16.282  0.00  0.00    +0.000 A 
ATOM     12  C   UNL     1       6.667   4.470  17.677  0.00  0.00    +0.000 A 
ATOM     13  C   UNL     1       5.438   4.485  18.353  0.00  0.00    +0.000 A 
BRANCH  11  14
ATOM     14  O   UNL     1       7.816   4.366  15.560  0.00  0.00    +0.000 OA
ATOM     15  H   UNL     1       7.604   4.465  14.618  0.00  0.00    +0.000 HD
ENDBRANCH  11  14
BRANCH  12  16
ATOM     16  O   UNL     1       7.742   4.524  18.524  0.00  0.00    +0.000 OA
ATOM     17  C   UNL     1       7.876   5.664  19.361  0.00  0.00    +0.000 C 
ENDBRANCH  12  16
ENDBRANCH   7   8
BRANCH   5  18
ATOM     18  N   UNL     1       2.421   2.612  21.796  0.00  0.00    +0.000 N 
ATOM     19  H   UNL     1       3.051   1.828  21.648  0.00  0.00    +0.000 HD
ATOM     20  H   UNL     1       2.455   3.005  22.733  0.00  0.00    +0.000 HD
ENDBRANCH   5  18
BRANCH   1  21
ATOM     21  C   UNL     1       2.752   6.975  18.238  0.00  0.00    +0.000 C 
ATOM     22  O   UNL     1       1.884   7.585  17.629  0.00  0.00    +0.000 OA
BRANCH  21  23
ATOM     23  O   UNL     1       4.049   7.352  18.310  0.00  0.00    +0.000 OA
BRANCH  23  25
ATOM     24  C   UNL     1       6.176   7.879  17.179  0.00  0.00    +0.000 C 
ATOM     25  C   UNL     1       4.663   7.742  17.071  0.00  0.00    +0.000 C 
ENDBRANCH  23  25
ENDBRANCH  21  23
ENDBRANCH   1  21
BRANCH   6  26
ATOM     26  C   UNL     1       3.462   2.007  19.188  0.00  0.00    +0.000 C 
ATOM     27  N   UNL     1       3.902   0.976  18.891  0.00  0.00    +0.000 NA
ENDBRANCH   6  26
TORSDOF 8
ENDMDL
MODEL 7
REMARK VINA RESULT:      -5.7      5.160      7.998
REMARK  Name = 
REMARK  11 active torsions:
REMARK  status: ('A' for Active; 'I' for Inactive)
REMARK    1  A    between atoms: C_1  and  C_2
REMARK    2  A    between atoms: C_2  and  O_3
REMARK    3  A    between atoms: O_3  and  C_4
REMARK    4  A    between atoms: C_4  and  C_6
REMARK    5  A    between atoms: C_7  and  C_8
REMARK    6  A    between atoms: C_10  and  N_11
REMARK    7  A    between atoms: C_12  and  C_13
REMARK    8  A    between atoms: C_15  and  C_16
REMARK    9  A    between atoms: C_19  and  O_20
REMARK   10  A    between atoms: C_21  and  O_22
REMARK   11  A    between atoms: O_22  and  C_23
REMARK                            x       y       z     vdW  Elec       q    Type
REMARK                         _______ _______ _______ _____ _____    ______ ____
ROOT
ATOM      1  C   UNL     1       0.599  13.035  19.626  0.00  0.00    +0.000 C 
ATOM      2  C   UNL     1      -0.254  13.984  20.078  0.00  0.00    +0.000 C 
ATOM      3  C   UNL     1       0.072  15.251  20.822  0.00  0.00    +0.000 C 
ATOM      4  O   UNL     1      -1.623  13.891  19.867  0.00  0.00    +0.000 OA
ATOM      5  C   UNL     1      -2.197  12.729  19.382  0.00  0.00    +0.000 C 
ATOM      6  C   UNL     1      -1.443  11.760  18.827  0.00  0.00    +0.000 C 
ATOM      7  C   UNL     1       0.080  11.871  18.784  0.00  0.00    +0.000 C 
ENDROOT
BRANCH   7   8
ATOM      8  C   UNL     1       0.736  10.525  19.110  0.00  0.00    +0.000 A 
ATOM      9  C   UNL     1       1.421   9.789  18.140  0.00  0.00    +0.000 A 
ATOM     10  C   UNL     1       2.002   8.565  18.470  0.00  0.00    +0.000 A 
ATOM     11  C   UNL     1       1.893   8.051  19.767  0.00  0.00    +0.000 A 
ATOM     12  C   UNL     1       1.213   8.764  20.757  0.00  0.00    +0.000 A 
ATOM     13  C   UNL     1       0.652  10.005  20.418  0.00  0.00    +0.000 A 
BRANCH  11  14
ATOM     14  O   UNL     1       2.460   6.835  20.027  0.00  0.00    +0.000 OA
ATOM     15  H   UNL     1       2.708   6.416  19.188  0.00  0.00    +0.000 HD
ENDBRANCH  11  14
BRANCH  12  16
ATOM     16  O   UNL     1       0.986   8.415  22.062  0.00  0.00    +0.000 OA
ATOM     17  C   UNL     1       0.331   9.357  22.901  0.00  0.00    +0.000 C 
ENDBRANCH  12  16
ENDBRANCH   7   8
BRANCH   5  18
ATOM     18  N   UNL     1      -3.562  12.713  19.531  0.00  0.00    +0.000 N 
ATOM     19  H   UNL     1      -4.059  12.896  18.664  0.00  0.00    +0.000 HD
ATOM     20  H   UNL     1      -3.956  11.958  20.088  0.00  0.00    +0.000 HD
ENDBRANCH   5  18
BRANCH   1  21
ATOM     21  C   UNL     1       2.047  13.109  19.965  0.00  0.00    +0.000 C 
ATOM     22  O   UNL     1       2.498  12.971  21.094  0.00  0.00    +0.000 OA
BRANCH  21  23
ATOM     23  O   UNL     1       2.797  13.309  18.857  0.00  0.00    +0.000 OA
BRANCH  23  25
ATOM     24  C   UNL     1       2.813  15.663  18.121  0.00  0.00    +0.000 C 
ATOM     25  C   UNL     1       3.554  14.531  18.820  0.00  0.00    +0.000 C 
ENDBRANCH  23  25
ENDBRANCH  21  23
ENDBRANCH   1  21
BRANCH   6  26
ATOM     26  C   UNL     1      -2.070  10.599  18.284  0.00  0.00    +0.000 C 
ATOM     27  N   UNL     1      -2.579   9.670  17.810  0.00  0.00    +0.000 NA
ENDBRANCH   6  26
TORSDOF 8
ENDMDL
MODEL 8
REMARK VINA RESULT:      -5.7      2.601      5.734
REMARK  Name = 
REMARK  11 active torsions:
REMARK  status: ('A' for Active; 'I' for Inactive)
REMARK    1  A    between atoms: C_1  and  C_2
REMARK    2  A    between atoms: C_2  and  O_3
REMARK    3  A    between atoms: O_3  and  C_4
REMARK    4  A    between atoms: C_4  and  C_6
REMARK    5  A    between atoms: C_7  and  C_8
REMARK    6  A    between atoms: C_10  and  N_11
REMARK    7  A    between atoms: C_12  and  C_13
REMARK    8  A    between atoms: C_15  and  C_16
REMARK    9  A    between atoms: C_19  and  O_20
REMARK   10  A    between atoms: C_21  and  O_22
REMARK   11  A    between atoms: O_22  and  C_23
REMARK                            x       y       z     vdW  Elec       q    Type
REMARK                         _______ _______ _______ _____ _____    ______ ____
ROOT
ATOM      1  C   UNL     1       3.300   4.365  19.325  0.00  0.00    +0.000 C 
ATOM      2  C   UNL     1       4.261   3.558  19.833  0.00  0.00    +0.000 C 
ATOM      3  C   UNL     1       4.096   2.379  20.754  0.00  0.00    +0.000 C 
ATOM      4  O   UNL     1       5.601   3.734  19.515  0.00  0.00    +0.000 OA
ATOM      5  C   UNL     1       6.037   4.864  18.847  0.00  0.00    +0.000 C 
ATOM      6  C   UNL     1       5.167   5.685  18.227  0.00  0.00    +0.000 C 
ATOM      7  C   UNL     1       3.660   5.445  18.307  0.00  0.00    +0.000 C 
ENDROOT
BRANCH   7   8
ATOM      8  C   UNL     1       2.906   6.764  18.504  0.00  0.00    +0.000 A 
ATOM      9  C   UNL     1       2.664   7.636  17.440  0.00  0.00    +0.000 A 
ATOM     10  C   UNL     1       1.978   8.831  17.656  0.00  0.00    +0.000 A 
ATOM     11  C   UNL     1       1.538   9.179  18.939  0.00  0.00    +0.000 A 
ATOM     12  C   UNL     1       1.768   8.328  20.022  0.00  0.00    +0.000 A 
ATOM     13  C   UNL     1       2.439   7.118  19.787  0.00  0.00    +0.000 A 
BRANCH  11  14
ATOM     14  O   UNL     1       0.895  10.375  19.095  0.00  0.00    +0.000 OA
ATOM     15  H   UNL     1       1.219  10.806  19.902  0.00  0.00    +0.000 HD
ENDBRANCH  11  14
BRANCH  12  16
ATOM     16  O   UNL     1       1.437   8.507  21.338  0.00  0.00    +0.000 OA
ATOM     17  C   UNL     1       0.059   8.513  21.686  0.00  0.00    +0.000 C 
ENDBRANCH  12  16
ENDBRANCH   7   8
BRANCH   5  18
ATOM     18  N   UNL     1       7.402   5.012  18.895  0.00  0.00    +0.000 N 
ATOM     19  H   UNL     1       7.836   4.461  19.631  0.00  0.00    +0.000 HD
ATOM     20  H   UNL     1       7.900   4.993  18.009  0.00  0.00    +0.000 HD
ENDBRANCH   5  18
BRANCH   1  21
ATOM     21  C   UNL     1       1.887   4.218  19.772  0.00  0.00    +0.000 C 
ATOM     22  O   UNL     1       1.498   4.446  20.910  0.00  0.00    +0.000 OA
BRANCH  21  23
ATOM     23  O   UNL     1       1.089   3.838  18.749  0.00  0.00    +0.000 OA
BRANCH  23  25
ATOM     24  C   UNL     1       2.113   1.848  17.715  0.00  0.00    +0.000 C 
ATOM     25  C   UNL     1       0.967   2.422  18.536  0.00  0.00    +0.000 C 
ENDBRANCH  23  25
ENDBRANCH  21  23
ENDBRANCH   1  21
BRANCH   6  26
ATOM     26  C   UNL     1       5.653   6.812  17.497  0.00  0.00    +0.000 C 
ATOM     27  N   UNL     1       6.081   7.716  16.911  0.00  0.00    +0.000 NA
ENDBRANCH   6  26
TORSDOF 8
ENDMDL
MODEL 9
REMARK VINA RESULT:      -5.4      1.855      5.403
REMARK  Name = 
REMARK  11 active torsions:
REMARK  status: ('A' for Active; 'I' for Inactive)
REMARK    1  A    between atoms: C_1  and  C_2
REMARK    2  A    between atoms: C_2  and  O_3
REMARK    3  A    between atoms: O_3  and  C_4
REMARK    4  A    between atoms: C_4  and  C_6
REMARK    5  A    between atoms: C_7  and  C_8
REMARK    6  A    between atoms: C_10  and  N_11
REMARK    7  A    between atoms: C_12  and  C_13
REMARK    8  A    between atoms: C_15  and  C_16
REMARK    9  A    between atoms: C_19  and  O_20
REMARK   10  A    between atoms: C_21  and  O_22
REMARK   11  A    between atoms: O_22  and  C_23
REMARK                            x       y       z     vdW  Elec       q    Type
REMARK                         _______ _______ _______ _____ _____    ______ ____
ROOT
ATOM      1  C   UNL     1       4.477   5.207  17.605  0.00  0.00    +0.000 C 
ATOM      2  C   UNL     1       4.572   4.175  16.735  0.00  0.00    +0.000 C 
ATOM      3  C   UNL     1       5.397   4.086  15.480  0.00  0.00    +0.000 C 
ATOM      4  O   UNL     1       3.881   2.988  16.939  0.00  0.00    +0.000 OA
ATOM      5  C   UNL     1       2.903   2.885  17.913  0.00  0.00    +0.000 C 
ATOM      6  C   UNL     1       2.785   3.815  18.880  0.00  0.00    +0.000 C 
ATOM      7  C   UNL     1       3.671   5.059  18.893  0.00  0.00    +0.000 C 
ENDROOT
BRANCH   7   8
ATOM      8  C   UNL     1       2.861   6.304  19.268  0.00  0.00    +0.000 A 
ATOM      9  C   UNL     1       2.304   6.461  20.540  0.00  0.00    +0.000 A 
ATOM     10  C   UNL     1       1.568   7.605  20.845  0.00  0.00    +0.000 A 
ATOM     11  C   UNL     1       1.364   8.601  19.883  0.00  0.00    +0.000 A 
ATOM     12  C   UNL     1       1.907   8.470  18.603  0.00  0.00    +0.000 A 
ATOM     13  C   UNL     1       2.665   7.325  18.314  0.00  0.00    +0.000 A 
BRANCH  11  14
ATOM     14  O   UNL     1       0.612   9.688  20.231  0.00  0.00    +0.000 OA
ATOM     15  H   UNL     1      -0.272   9.390  20.495  0.00  0.00    +0.000 HD
ENDBRANCH  11  14
BRANCH  12  16
ATOM     16  O   UNL     1       1.797   9.319  17.534  0.00  0.00    +0.000 OA
ATOM     17  C   UNL     1       2.222  10.664  17.702  0.00  0.00    +0.000 C 
ENDBRANCH  12  16
ENDBRANCH   7   8
BRANCH   5  18
ATOM     18  N   UNL     1       2.126   1.762  17.764  0.00  0.00    +0.000 N 
ATOM     19  H   UNL     1       1.141   1.975  17.631  0.00  0.00    +0.000 HD
ATOM     20  H   UNL     1       2.482   1.032  17.152  0.00  0.00    +0.000 HD
ENDBRANCH   5  18
BRANCH   1  21
ATOM     21  C   UNL     1       5.143   6.504  17.300  0.00  0.00    +0.000 C 
ATOM     22  O   UNL     1       4.766   7.286  16.438  0.00  0.00    +0.000 OA
BRANCH  21  23
ATOM     23  O   UNL     1       6.193   6.718  18.125  0.00  0.00    +0.000 OA
BRANCH  23  25
ATOM     24  C   UNL     1       7.944   8.418  17.766  0.00  0.00    +0.000 C 
ATOM     25  C   UNL     1       7.449   7.005  17.487  0.00  0.00    +0.000 C 
ENDBRANCH  23  25
ENDBRANCH  21  23
ENDBRANCH   1  21
BRANCH   6  26
ATOM     26  C   UNL     1       1.803   3.651  19.904  0.00  0.00    +0.000 C 
ATOM     27  N   UNL     1       1.024   3.490  20.749  0.00  0.00    +0.000 NA
ENDBRANCH   6  26
TORSDOF 8
ENDMDL
