MODEL 1
REMARK VINA RESULT:      -8.0      0.000      0.000
REMARK  Name = 
REMARK  3 active torsions:
REMARK  status: ('A' for Active; 'I' for Inactive)
REMARK    1  A    between atoms: C_5  and  O_6
REMARK    2  A    between atoms: O_6  and  C_7
REMARK    3  A    between atoms: C_10  and  C_11
REMARK                            x       y       z     vdW  Elec       q    Type
REMARK                         _______ _______ _______ _____ _____    ______ ____
ROOT
ATOM      1  O   UNL     1       4.111   2.177  21.210  0.00  0.00    +0.000 OA
ATOM      2  S   UNL     1       3.622   2.505  19.890  0.00  0.00    +0.000 S 
ATOM      3  O   UNL     1       2.662   1.692  19.181  0.00  0.00    +0.000 OA
ATOM      4  N   UNL     1       4.880   2.886  18.913  0.00  0.00    +0.000 NA
ATOM      5  C   UNL     1       4.853   4.160  18.681  0.00  0.00    +0.000 C 
ATOM      6  C   UNL     1       3.760   4.957  19.232  0.00  0.00    +0.000 A 
ATOM      7  C   UNL     1       3.481   6.307  19.147  0.00  0.00    +0.000 A 
ATOM      8  C   UNL     1       2.359   6.780  19.840  0.00  0.00    +0.000 A 
ATOM      9  C   UNL     1       1.551   5.907  20.599  0.00  0.00    +0.000 A 
ATOM     10  C   UNL     1       1.851   4.546  20.680  0.00  0.00    +0.000 A 
ATOM     11  C   UNL     1       2.959   4.115  19.981  0.00  0.00    +0.000 A 
ENDROOT
BRANCH   5  12
ATOM     12  O   UNL     1       5.780   4.899  17.986  0.00  0.00    +0.000 OA
BRANCH  12  13
ATOM     13  C   UNL     1       5.885   4.682  16.597  0.00  0.00    +0.000 A 
ATOM     14  C   UNL     1       7.141   4.849  16.017  0.00  0.00    +0.000 A 
ATOM     15  C   UNL     1       7.314   4.564  14.657  0.00  0.00    +0.000 A 
ATOM     16  C   UNL     1       6.235   4.109  13.879  0.00  0.00    +0.000 A 
ATOM     17  C   UNL     1       4.981   3.942  14.485  0.00  0.00    +0.000 A 
ATOM     18  C   UNL     1       4.811   4.207  15.842  0.00  0.00    +0.000 A 
BRANCH  16  19
ATOM     19  C   UNL     1       6.398   3.775  12.416  0.00  0.00    +0.000 C 
ATOM     20  F   UNL     1       7.281   4.582  11.765  0.00  0.00    +0.000 F 
ATOM     21  F   UNL     1       6.846   2.502  12.225  0.00  0.00    +0.000 F 
ATOM     22  F   UNL     1       5.227   3.865  11.726  0.00  0.00    +0.000 F 
ENDBRANCH  16  19
ENDBRANCH  12  13
ENDBRANCH   5  12
TORSDOF 3
ENDMDL
MODEL 2
REMARK VINA RESULT:      -7.9      4.859      7.483
REMARK  Name = 
REMARK  3 active torsions:
REMARK  status: ('A' for Active; 'I' for Inactive)
REMARK    1  A    between atoms: C_5  and  O_6
REMARK    2  A    between atoms: O_6  and  C_7
REMARK    3  A    between atoms: C_10  and  C_11
REMARK                            x       y       z     vdW  Elec       q    Type
REMARK                         _______ _______ _______ _____ _____    ______ ____
ROOT
ATOM      1  O   UNL     1       8.240   4.461  18.627  0.00  0.00    +0.000 OA
ATOM      2  S   UNL     1       7.376   5.533  18.186  0.00  0.00    +0.000 S 
ATOM      3  O   UNL     1       7.805   6.910  18.110  0.00  0.00    +0.000 OA
ATOM      4  N   UNL     1       5.930   5.427  18.945  0.00  0.00    +0.000 NA
ATOM      5  C   UNL     1       5.038   5.044  18.087  0.00  0.00    +0.000 C 
ATOM      6  C   UNL     1       5.433   4.851  16.694  0.00  0.00    +0.000 A 
ATOM      7  C   UNL     1       4.709   4.457  15.586  0.00  0.00    +0.000 A 
ATOM      8  C   UNL     1       5.403   4.321  14.376  0.00  0.00    +0.000 A 
ATOM      9  C   UNL     1       6.790   4.572  14.300  0.00  0.00    +0.000 A 
ATOM     10  C   UNL     1       7.507   4.964  15.431  0.00  0.00    +0.000 A 
ATOM     11  C   UNL     1       6.791   5.093  16.603  0.00  0.00    +0.000 A 
ENDROOT
BRANCH   5  12
ATOM     12  O   UNL     1       3.720   4.743  18.334  0.00  0.00    +0.000 OA
BRANCH  12  13
ATOM     13  C   UNL     1       2.927   5.729  18.956  0.00  0.00    +0.000 A 
ATOM     14  C   UNL     1       2.354   5.407  20.184  0.00  0.00    +0.000 A 
ATOM     15  C   UNL     1       1.627   6.380  20.881  0.00  0.00    +0.000 A 
ATOM     16  C   UNL     1       1.479   7.675  20.353  0.00  0.00    +0.000 A 
ATOM     17  C   UNL     1       2.071   7.980  19.119  0.00  0.00    +0.000 A 
ATOM     18  C   UNL     1       2.809   7.018  18.433  0.00  0.00    +0.000 A 
BRANCH  16  19
ATOM     19  C   UNL     1       0.719   8.750  21.092  0.00  0.00    +0.000 C 
ATOM     20  F   UNL     1      -0.402   8.297  21.718  0.00  0.00    +0.000 F 
ATOM     21  F   UNL     1       1.473   9.341  22.061  0.00  0.00    +0.000 F 
ATOM     22  F   UNL     1       0.310   9.758  20.273  0.00  0.00    +0.000 F 
ENDBRANCH  16  19
ENDBRANCH  12  13
ENDBRANCH   5  12
TORSDOF 3
ENDMDL
MODEL 3
REMARK VINA RESULT:      -7.9      0.314      1.317
REMARK  Name = 
REMARK  3 active torsions:
REMARK  status: ('A' for Active; 'I' for Inactive)
REMARK    1  A    between atoms: C_5  and  O_6
REMARK    2  A    between atoms: O_6  and  C_7
REMARK    3  A    between atoms: C_10  and  C_11
REMARK                            x       y       z     vdW  Elec       q    Type
REMARK                         _______ _______ _______ _____ _____    ______ ____
ROOT
ATOM      1  O   UNL     1       4.627   2.249  21.062  0.00  0.00    +0.000 OA
ATOM      2  S   UNL     1       4.014   2.501  19.777  0.00  0.00    +0.000 S 
ATOM      3  O   UNL     1       3.104   1.577  19.143  0.00  0.00    +0.000 OA
ATOM      4  N   UNL     1       5.150   3.007  18.712  0.00  0.00    +0.000 NA
ATOM      5  C   UNL     1       4.965   4.266  18.474  0.00  0.00    +0.000 C 
ATOM      6  C   UNL     1       3.831   4.944  19.095  0.00  0.00    +0.000 A 
ATOM      7  C   UNL     1       3.397   6.254  19.021  0.00  0.00    +0.000 A 
ATOM      8  C   UNL     1       2.279   6.609  19.788  0.00  0.00    +0.000 A 
ATOM      9  C   UNL     1       1.629   5.662  20.608  0.00  0.00    +0.000 A 
ATOM     10  C   UNL     1       2.085   4.344  20.676  0.00  0.00    +0.000 A 
ATOM     11  C   UNL     1       3.182   4.029  19.904  0.00  0.00    +0.000 A 
ENDROOT
BRANCH   5  12
ATOM     12  O   UNL     1       5.753   5.094  17.710  0.00  0.00    +0.000 OA
BRANCH  12  13
ATOM     13  C   UNL     1       5.988   4.724  16.370  0.00  0.00    +0.000 A 
ATOM     14  C   UNL     1       4.883   4.346  15.609  0.00  0.00    +0.000 A 
ATOM     15  C   UNL     1       5.052   4.050  14.251  0.00  0.00    +0.000 A 
ATOM     16  C   UNL     1       6.322   4.138  13.653  0.00  0.00    +0.000 A 
ATOM     17  C   UNL     1       7.418   4.527  14.437  0.00  0.00    +0.000 A 
ATOM     18  C   UNL     1       7.249   4.840  15.783  0.00  0.00    +0.000 A 
BRANCH  16  19
ATOM     19  C   UNL     1       6.530   3.845  12.187  0.00  0.00    +0.000 C 
ATOM     20  F   UNL     1       7.189   2.678  11.949  0.00  0.00    +0.000 F 
ATOM     21  F   UNL     1       5.352   3.753  11.508  0.00  0.00    +0.000 F 
ATOM     22  F   UNL     1       7.248   4.816  11.557  0.00  0.00    +0.000 F 
ENDBRANCH  16  19
ENDBRANCH  12  13
ENDBRANCH   5  12
TORSDOF 3
ENDMDL
MODEL 4
REMARK VINA RESULT:      -7.8      4.987      7.571
REMARK  Name = 
REMARK  3 active torsions:
REMARK  status: ('A' for Active; 'I' for Inactive)
REMARK    1  A    between atoms: C_5  and  O_6
REMARK    2  A    between atoms: O_6  and  C_7
REMARK    3  A    between atoms: C_10  and  C_11
REMARK                            x       y       z     vdW  Elec       q    Type
REMARK                         _______ _______ _______ _____ _____    ______ ____
ROOT
ATOM      1  O   UNL     1       8.120   4.522  18.608  0.00  0.00    +0.000 OA
ATOM      2  S   UNL     1       7.301   5.602  18.107  0.00  0.00    +0.000 S 
ATOM      3  O   UNL     1       7.775   6.961  17.989  0.00  0.00    +0.000 OA
ATOM      4  N   UNL     1       5.835   5.571  18.837  0.00  0.00    +0.000 NA
ATOM      5  C   UNL     1       4.951   5.183  17.974  0.00  0.00    +0.000 C 
ATOM      6  C   UNL     1       5.369   4.924  16.599  0.00  0.00    +0.000 A 
ATOM      7  C   UNL     1       4.657   4.510  15.490  0.00  0.00    +0.000 A 
ATOM      8  C   UNL     1       5.372   4.306  14.302  0.00  0.00    +0.000 A 
ATOM      9  C   UNL     1       6.767   4.510  14.248  0.00  0.00    +0.000 A 
ATOM     10  C   UNL     1       7.472   4.923  15.380  0.00  0.00    +0.000 A 
ATOM     11  C   UNL     1       6.736   5.120  16.529  0.00  0.00    +0.000 A 
ENDROOT
BRANCH   5  12
ATOM     12  O   UNL     1       3.618   4.934  18.202  0.00  0.00    +0.000 OA
BRANCH  12  13
ATOM     13  C   UNL     1       2.917   5.827  19.037  0.00  0.00    +0.000 A 
ATOM     14  C   UNL     1       2.759   7.135  18.582  0.00  0.00    +0.000 A 
ATOM     15  C   UNL     1       2.000   8.039  19.335  0.00  0.00    +0.000 A 
ATOM     16  C   UNL     1       1.394   7.634  20.538  0.00  0.00    +0.000 A 
ATOM     17  C   UNL     1       1.560   6.311  20.973  0.00  0.00    +0.000 A 
ATOM     18  C   UNL     1       2.300   5.406  20.216  0.00  0.00    +0.000 A 
BRANCH  16  19
ATOM     19  C   UNL     1       0.552   8.580  21.360  0.00  0.00    +0.000 C 
ATOM     20  F   UNL     1      -0.692   8.103  21.640  0.00  0.00    +0.000 F 
ATOM     21  F   UNL     1       1.122   8.865  22.564  0.00  0.00    +0.000 F 
ATOM     22  F   UNL     1       0.363   9.781  20.744  0.00  0.00    +0.000 F 
ENDBRANCH  16  19
ENDBRANCH  12  13
ENDBRANCH   5  12
TORSDOF 3
ENDMDL
MODEL 5
REMARK VINA RESULT:      -7.8      5.960      7.630
REMARK  Name = 
REMARK  3 active torsions:
REMARK  status: ('A' for Active; 'I' for Inactive)
REMARK    1  A    between atoms: C_5  and  O_6
REMARK    2  A    between atoms: O_6  and  C_7
REMARK    3  A    between atoms: C_10  and  C_11
REMARK                            x       y       z     vdW  Elec       q    Type
REMARK                         _______ _______ _______ _____ _____    ______ ____
ROOT
ATOM      1  O   UNL     1       6.101   4.794  19.656  0.00  0.00    +0.000 OA
ATOM      2  S   UNL     1       5.686   4.869  18.273  0.00  0.00    +0.000 S 
ATOM      3  O   UNL     1       6.514   4.422  17.177  0.00  0.00    +0.000 OA
ATOM      4  N   UNL     1       5.074   6.354  17.959  0.00  0.00    +0.000 NA
ATOM      5  C   UNL     1       3.793   6.251  17.804  0.00  0.00    +0.000 C 
ATOM      6  C   UNL     1       3.177   4.928  17.869  0.00  0.00    +0.000 A 
ATOM      7  C   UNL     1       1.861   4.526  17.742  0.00  0.00    +0.000 A 
ATOM      8  C   UNL     1       1.584   3.162  17.904  0.00  0.00    +0.000 A 
ATOM      9  C   UNL     1       2.612   2.240  18.192  0.00  0.00    +0.000 A 
ATOM     10  C   UNL     1       3.935   2.664  18.324  0.00  0.00    +0.000 A 
ATOM     11  C   UNL     1       4.172   4.011  18.152  0.00  0.00    +0.000 A 
ENDROOT
BRANCH   5  12
ATOM     12  O   UNL     1       2.891   7.272  17.619  0.00  0.00    +0.000 OA
BRANCH  12  13
ATOM     13  C   UNL     1       2.264   7.809  18.761  0.00  0.00    +0.000 A 
ATOM     14  C   UNL     1       1.581   9.014  18.608  0.00  0.00    +0.000 A 
ATOM     15  C   UNL     1       0.873   9.547  19.691  0.00  0.00    +0.000 A 
ATOM     16  C   UNL     1       0.841   8.872  20.925  0.00  0.00    +0.000 A 
ATOM     17  C   UNL     1       1.529   7.657  21.055  0.00  0.00    +0.000 A 
ATOM     18  C   UNL     1       2.220   7.117  19.972  0.00  0.00    +0.000 A 
BRANCH  16  19
ATOM     19  C   UNL     1       0.068   9.412  22.104  0.00  0.00    +0.000 C 
ATOM     20  F   UNL     1      -0.976   8.622  22.482  0.00  0.00    +0.000 F 
ATOM     21  F   UNL     1       0.848   9.552  23.212  0.00  0.00    +0.000 F 
ATOM     22  F   UNL     1      -0.462  10.643  21.863  0.00  0.00    +0.000 F 
ENDBRANCH  16  19
ENDBRANCH  12  13
ENDBRANCH   5  12
TORSDOF 3
ENDMDL
MODEL 6
REMARK VINA RESULT:      -7.7      4.765      7.313
REMARK  Name = 
REMARK  3 active torsions:
REMARK  status: ('A' for Active; 'I' for Inactive)
REMARK    1  A    between atoms: C_5  and  O_6
REMARK    2  A    between atoms: O_6  and  C_7
REMARK    3  A    between atoms: C_10  and  C_11
REMARK                            x       y       z     vdW  Elec       q    Type
REMARK                         _______ _______ _______ _____ _____    ______ ____
ROOT
ATOM      1  O   UNL     1       8.199   4.687  18.952  0.00  0.00    +0.000 OA
ATOM      2  S   UNL     1       7.419   5.772  18.401  0.00  0.00    +0.000 S 
ATOM      3  O   UNL     1       7.952   7.098  18.191  0.00  0.00    +0.000 OA
ATOM      4  N   UNL     1       5.970   5.852  19.158  0.00  0.00    +0.000 NA
ATOM      5  C   UNL     1       5.051   5.454  18.337  0.00  0.00    +0.000 C 
ATOM      6  C   UNL     1       5.428   5.094  16.973  0.00  0.00    +0.000 A 
ATOM      7  C   UNL     1       4.674   4.648  15.905  0.00  0.00    +0.000 A 
ATOM      8  C   UNL     1       5.354   4.340  14.719  0.00  0.00    +0.000 A 
ATOM      9  C   UNL     1       6.756   4.476  14.627  0.00  0.00    +0.000 A 
ATOM     10  C   UNL     1       7.502   4.923  15.718  0.00  0.00    +0.000 A 
ATOM     11  C   UNL     1       6.800   5.222  16.866  0.00  0.00    +0.000 A 
ENDROOT
BRANCH   5  12
ATOM     12  O   UNL     1       3.714   5.281  18.605  0.00  0.00    +0.000 OA
BRANCH  12  13
ATOM     13  C   UNL     1       2.931   6.435  18.812  0.00  0.00    +0.000 A 
ATOM     14  C   UNL     1       2.344   6.593  20.066  0.00  0.00    +0.000 A 
ATOM     15  C   UNL     1       1.627   7.761  20.349  0.00  0.00    +0.000 A 
ATOM     16  C   UNL     1       1.500   8.773  19.381  0.00  0.00    +0.000 A 
ATOM     17  C   UNL     1       2.105   8.596  18.127  0.00  0.00    +0.000 A 
ATOM     18  C   UNL     1       2.834   7.443  17.851  0.00  0.00    +0.000 A 
BRANCH  16  19
ATOM     19  C   UNL     1       0.751  10.052  19.664  0.00  0.00    +0.000 C 
ATOM     20  F   UNL     1       1.079  11.076  18.829  0.00  0.00    +0.000 F 
ATOM     21  F   UNL     1      -0.598   9.896  19.549  0.00  0.00    +0.000 F 
ATOM     22  F   UNL     1       0.965  10.515  20.927  0.00  0.00    +0.000 F 
ENDBRANCH  16  19
ENDBRANCH  12  13
ENDBRANCH   5  12
TORSDOF 3
ENDMDL
MODEL 7
REMARK VINA RESULT:      -7.7      4.803      7.400
REMARK  Name = 
REMARK  3 active torsions:
REMARK  status: ('A' for Active; 'I' for Inactive)
REMARK    1  A    between atoms: C_5  and  O_6
REMARK    2  A    between atoms: O_6  and  C_7
REMARK    3  A    between atoms: C_10  and  C_11
REMARK                            x       y       z     vdW  Elec       q    Type
REMARK                         _______ _______ _______ _____ _____    ______ ____
ROOT
ATOM      1  O   UNL     1       8.261   4.293  16.831  0.00  0.00    +0.000 OA
ATOM      2  S   UNL     1       7.255   5.213  16.348  0.00  0.00    +0.000 S 
ATOM      3  O   UNL     1       7.455   6.642  16.294  0.00  0.00    +0.000 OA
ATOM      4  N   UNL     1       5.810   4.863  17.033  0.00  0.00    +0.000 NA
ATOM      5  C   UNL     1       5.037   4.346  16.132  0.00  0.00    +0.000 C 
ATOM      6  C   UNL     1       5.526   4.234  14.761  0.00  0.00    +0.000 A 
ATOM      7  C   UNL     1       4.933   3.735  13.617  0.00  0.00    +0.000 A 
ATOM      8  C   UNL     1       5.698   3.726  12.443  0.00  0.00    +0.000 A 
ATOM      9  C   UNL     1       7.026   4.202  12.437  0.00  0.00    +0.000 A 
ATOM     10  C   UNL     1       7.613   4.696  13.603  0.00  0.00    +0.000 A 
ATOM     11  C   UNL     1       6.829   4.696  14.737  0.00  0.00    +0.000 A 
ENDROOT
BRANCH   5  12
ATOM     12  O   UNL     1       3.776   3.831  16.313  0.00  0.00    +0.000 OA
BRANCH  12  13
ATOM     13  C   UNL     1       3.341   3.608  17.635  0.00  0.00    +0.000 A 
ATOM     14  C   UNL     1       2.155   4.224  18.031  0.00  0.00    +0.000 A 
ATOM     15  C   UNL     1       1.638   3.968  19.306  0.00  0.00    +0.000 A 
ATOM     16  C   UNL     1       2.303   3.093  20.184  0.00  0.00    +0.000 A 
ATOM     17  C   UNL     1       3.491   2.478  19.762  0.00  0.00    +0.000 A 
ATOM     18  C   UNL     1       3.997   2.718  18.487  0.00  0.00    +0.000 A 
BRANCH  16  19
ATOM     19  C   UNL     1       1.758   2.781  21.556  0.00  0.00    +0.000 C 
ATOM     20  F   UNL     1       0.398   2.794  21.621  0.00  0.00    +0.000 F 
ATOM     21  F   UNL     1       2.140   1.549  21.995  0.00  0.00    +0.000 F 
ATOM     22  F   UNL     1       2.187   3.663  22.502  0.00  0.00    +0.000 F 
ENDBRANCH  16  19
ENDBRANCH  12  13
ENDBRANCH   5  12
TORSDOF 3
ENDMDL
MODEL 8
REMARK VINA RESULT:      -7.7      4.803      7.299
REMARK  Name = 
REMARK  3 active torsions:
REMARK  status: ('A' for Active; 'I' for Inactive)
REMARK    1  A    between atoms: C_5  and  O_6
REMARK    2  A    between atoms: O_6  and  C_7
REMARK    3  A    between atoms: C_10  and  C_11
REMARK                            x       y       z     vdW  Elec       q    Type
REMARK                         _______ _______ _______ _____ _____    ______ ____
ROOT
ATOM      1  O   UNL     1       8.023   5.068  17.312  0.00  0.00    +0.000 OA
ATOM      2  S   UNL     1       6.941   5.762  16.652  0.00  0.00    +0.000 S 
ATOM      3  O   UNL     1       6.882   7.200  16.536  0.00  0.00    +0.000 OA
ATOM      4  N   UNL     1       5.505   5.172  17.174  0.00  0.00    +0.000 NA
ATOM      5  C   UNL     1       4.966   4.485  16.218  0.00  0.00    +0.000 C 
ATOM      6  C   UNL     1       5.646   4.415  14.927  0.00  0.00    +0.000 A 
ATOM      7  C   UNL     1       5.311   3.771  13.752  0.00  0.00    +0.000 A 
ATOM      8  C   UNL     1       6.214   3.862  12.684  0.00  0.00    +0.000 A 
ATOM      9  C   UNL     1       7.422   4.580  12.813  0.00  0.00    +0.000 A 
ATOM     10  C   UNL     1       7.748   5.220  14.010  0.00  0.00    +0.000 A 
ATOM     11  C   UNL     1       6.834   5.114  15.036  0.00  0.00    +0.000 A 
ENDROOT
BRANCH   5  12
ATOM     12  O   UNL     1       3.807   3.748  16.273  0.00  0.00    +0.000 OA
BRANCH  12  13
ATOM     13  C   UNL     1       3.264   3.474  17.544  0.00  0.00    +0.000 A 
ATOM     14  C   UNL     1       3.978   2.611  18.373  0.00  0.00    +0.000 A 
ATOM     15  C   UNL     1       3.523   2.373  19.675  0.00  0.00    +0.000 A 
ATOM     16  C   UNL     1       2.359   3.002  20.151  0.00  0.00    +0.000 A 
ATOM     17  C   UNL     1       1.660   3.873  19.303  0.00  0.00    +0.000 A 
ATOM     18  C   UNL     1       2.121   4.124  18.013  0.00  0.00    +0.000 A 
BRANCH  16  19
ATOM     19  C   UNL     1       1.857   2.781  21.558  0.00  0.00    +0.000 C 
ATOM     20  F   UNL     1       2.302   1.624  22.122  0.00  0.00    +0.000 F 
ATOM     21  F   UNL     1       2.238   3.779  22.404  0.00  0.00    +0.000 F 
ATOM     22  F   UNL     1       0.498   2.733  21.626  0.00  0.00    +0.000 F 
ENDBRANCH  16  19
ENDBRANCH  12  13
ENDBRANCH   5  12
TORSDOF 3
ENDMDL
MODEL 9
REMARK VINA RESULT:      -7.6      5.933      7.558
REMARK  Name = 
REMARK  3 active torsions:
REMARK  status: ('A' for Active; 'I' for Inactive)
REMARK    1  A    between atoms: C_5  and  O_6
REMARK    2  A    between atoms: O_6  and  C_7
REMARK    3  A    between atoms: C_10  and  C_11
REMARK                            x       y       z     vdW  Elec       q    Type
REMARK                         _______ _______ _______ _____ _____    ______ ____
ROOT
ATOM      1  O   UNL     1       6.154   4.927  19.740  0.00  0.00    +0.000 OA
ATOM      2  S   UNL     1       5.790   4.952  18.341  0.00  0.00    +0.000 S 
ATOM      3  O   UNL     1       6.666   4.491  17.290  0.00  0.00    +0.000 OA
ATOM      4  N   UNL     1       5.159   6.414  17.960  0.00  0.00    +0.000 NA
ATOM      5  C   UNL     1       3.887   6.278  17.761  0.00  0.00    +0.000 C 
ATOM      6  C   UNL     1       3.296   4.945  17.844  0.00  0.00    +0.000 A 
ATOM      7  C   UNL     1       1.995   4.511  17.681  0.00  0.00    +0.000 A 
ATOM      8  C   UNL     1       1.740   3.147  17.874  0.00  0.00    +0.000 A 
ATOM      9  C   UNL     1       2.775   2.256  18.228  0.00  0.00    +0.000 A 
ATOM     10  C   UNL     1       4.084   2.712  18.394  0.00  0.00    +0.000 A 
ATOM     11  C   UNL     1       4.299   4.059  18.190  0.00  0.00    +0.000 A 
ENDROOT
BRANCH   5  12
ATOM     12  O   UNL     1       2.972   7.274  17.512  0.00  0.00    +0.000 OA
BRANCH  12  13
ATOM     13  C   UNL     1       2.235   7.776  18.603  0.00  0.00    +0.000 A 
ATOM     14  C   UNL     1       2.283   7.053  19.794  0.00  0.00    +0.000 A 
ATOM     15  C   UNL     1       1.636   7.553  20.930  0.00  0.00    +0.000 A 
ATOM     16  C   UNL     1       0.947   8.778  20.878  0.00  0.00    +0.000 A 
ATOM     17  C   UNL     1       0.919   9.493  19.672  0.00  0.00    +0.000 A 
ATOM     18  C   UNL     1       1.577   9.005  18.546  0.00  0.00    +0.000 A 
BRANCH  16  19
ATOM     19  C   UNL     1       0.259   9.353  22.093  0.00  0.00    +0.000 C 
ATOM     20  F   UNL     1       1.043   9.376  23.207  0.00  0.00    +0.000 F 
ATOM     21  F   UNL     1      -0.145  10.639  21.896  0.00  0.00    +0.000 F 
ATOM     22  F   UNL     1      -0.861   8.659  22.437  0.00  0.00    +0.000 F 
ENDBRANCH  16  19
ENDBRANCH  12  13
ENDBRANCH   5  12
TORSDOF 3
ENDMDL
