MODEL 1
REMARK VINA RESULT:      -8.1      0.000      0.000
REMARK  Name = 
REMARK  9 active torsions:
REMARK  status: ('A' for Active; 'I' for Inactive)
REMARK    1  A    between atoms: C_2  and  C_3
REMARK    2  A    between atoms: C_3  and  C_4
REMARK    3  A    between atoms: C_4  and  C_5
REMARK    4  A    between atoms: C_5  and  C_6
REMARK    5  A    between atoms: C_6  and  C_7
REMARK    6  A    between atoms: C_7  and  N_8
REMARK    7  A    between atoms: C_14  and  N_15
REMARK    8  A    between atoms: C_16  and  C_18
REMARK    9  A    between atoms: N_28  and  O_29
REMARK                            x       y       z     vdW  Elec       q    Type
REMARK                         _______ _______ _______ _____ _____    ______ ____
ROOT
ATOM      1  N   UNL     1       4.694   5.147  17.403  0.00  0.00    +0.000 N 
ATOM      2  C   UNL     1       5.800   4.872  18.235  0.00  0.00    +0.000 C 
ATOM      3  O   UNL     1       6.001   3.835  18.838  0.00  0.00    +0.000 OA
ATOM      4  C   UNL     1       6.683   6.046  18.267  0.00  0.00    +0.000 A 
ATOM      5  C   UNL     1       7.822   6.167  19.031  0.00  0.00    +0.000 A 
ATOM      6  C   UNL     1       8.552   7.355  18.939  0.00  0.00    +0.000 A 
ATOM      7  C   UNL     1       8.149   8.412  18.095  0.00  0.00    +0.000 A 
ATOM      8  C   UNL     1       6.978   8.270  17.329  0.00  0.00    +0.000 A 
ATOM      9  C   UNL     1       6.268   7.080  17.445  0.00  0.00    +0.000 A 
ATOM     10  S   UNL     1       4.784   6.644  16.638  0.00  0.00    +0.000 S 
ATOM     11  O   UNL     1       5.068   6.447  15.235  0.00  0.00    +0.000 OA
ATOM     12  O   UNL     1       3.725   7.494  17.126  0.00  0.00    +0.000 OA
ENDROOT
BRANCH   7  13
ATOM     13  N   UNL     1       8.879   9.615  17.975  0.00  0.00    +0.000 N 
ATOM     14  C   UNL     1       9.311  10.448  19.002  0.00  0.00    +0.000 C 
ATOM     15  O   UNL     1       9.071  10.258  20.191  0.00  0.00    +0.000 OA
ATOM     16  H   UNL     1       9.126   9.917  17.039  0.00  0.00    +0.000 HD
BRANCH  14  17
ATOM     17  C   UNL     1      10.098  11.607  18.586  0.00  0.00    +0.000 A 
ATOM     18  C   UNL     1       9.724  12.545  17.638  0.00  0.00    +0.000 A 
ATOM     19  C   UNL     1      10.690  13.576  17.471  0.00  0.00    +0.000 A 
ATOM     20  C   UNL     1      11.780  13.391  18.290  0.00  0.00    +0.000 A 
ATOM     21  S   UNL     1      11.633  11.980  19.246  0.00  0.00    +0.000 S 
ENDBRANCH  14  17
ENDBRANCH   7  13
BRANCH   1  22
ATOM     22  C   UNL     1       3.597   4.224  17.100  0.00  0.00    +0.000 C 
BRANCH  22  23
ATOM     23  C   UNL     1       2.290   4.762  17.687  0.00  0.00    +0.000 C 
BRANCH  23  24
ATOM     24  C   UNL     1       2.368   4.954  19.203  0.00  0.00    +0.000 C 
BRANCH  24  25
ATOM     25  C   UNL     1       1.231   4.205  19.905  0.00  0.00    +0.000 C 
BRANCH  25  26
ATOM     26  C   UNL     1       1.522   2.711  20.015  0.00  0.00    +0.000 C 
BRANCH  26  28
ATOM     27  O   UNL     1       3.016   2.506  21.928  0.00  0.00    +0.000 OA
ATOM     28  C   UNL     1       2.837   2.429  20.716  0.00  0.00    +0.000 C 
ATOM     29  N   UNL     1       3.843   2.069  19.852  0.00  0.00    +0.000 N 
ATOM     30  H   UNL     1       3.775   2.062  18.841  0.00  0.00    +0.000 HD
BRANCH  29  31
ATOM     31  O   UNL     1       5.110   1.821  20.420  0.00  0.00    +0.000 OA
ATOM     32  H   UNL     1       5.630   1.512  19.645  0.00  0.00    +0.000 HD
ENDBRANCH  29  31
ENDBRANCH  26  28
ENDBRANCH  25  26
ENDBRANCH  24  25
ENDBRANCH  23  24
ENDBRANCH  22  23
ENDBRANCH   1  22
TORSDOF 9
ENDMDL
MODEL 2
REMARK VINA RESULT:      -7.4      4.902      7.785
REMARK  Name = 
REMARK  9 active torsions:
REMARK  status: ('A' for Active; 'I' for Inactive)
REMARK    1  A    between atoms: C_2  and  C_3
REMARK    2  A    between atoms: C_3  and  C_4
REMARK    3  A    between atoms: C_4  and  C_5
REMARK    4  A    between atoms: C_5  and  C_6
REMARK    5  A    between atoms: C_6  and  C_7
REMARK    6  A    between atoms: C_7  and  N_8
REMARK    7  A    between atoms: C_14  and  N_15
REMARK    8  A    between atoms: C_16  and  C_18
REMARK    9  A    between atoms: N_28  and  O_29
REMARK                            x       y       z     vdW  Elec       q    Type
REMARK                         _______ _______ _______ _____ _____    ______ ____
ROOT
ATOM      1  N   UNL     1       4.931   4.131  17.343  0.00  0.00    +0.000 N 
ATOM      2  C   UNL     1       3.992   3.425  18.124  0.00  0.00    +0.000 C 
ATOM      3  O   UNL     1       3.848   2.218  18.153  0.00  0.00    +0.000 OA
ATOM      4  C   UNL     1       3.199   4.384  18.907  0.00  0.00    +0.000 A 
ATOM      5  C   UNL     1       2.142   4.062  19.728  0.00  0.00    +0.000 A 
ATOM      6  C   UNL     1       1.497   5.100  20.406  0.00  0.00    +0.000 A 
ATOM      7  C   UNL     1       1.901   6.444  20.265  0.00  0.00    +0.000 A 
ATOM      8  C   UNL     1       2.978   6.752  19.415  0.00  0.00    +0.000 A 
ATOM      9  C   UNL     1       3.598   5.700  18.748  0.00  0.00    +0.000 A 
ATOM     10  S   UNL     1       4.931   5.791  17.626  0.00  0.00    +0.000 S 
ATOM     11  O   UNL     1       6.121   6.151  18.359  0.00  0.00    +0.000 OA
ATOM     12  O   UNL     1       4.488   6.478  16.436  0.00  0.00    +0.000 OA
ENDROOT
BRANCH   7  13
ATOM     13  N   UNL     1       1.273   7.507  20.952  0.00  0.00    +0.000 N 
ATOM     14  C   UNL     1       1.024   8.791  20.477  0.00  0.00    +0.000 C 
ATOM     15  O   UNL     1       1.364   9.194  19.368  0.00  0.00    +0.000 OA
ATOM     16  H   UNL     1       0.962   7.328  21.900  0.00  0.00    +0.000 HD
BRANCH  14  17
ATOM     17  C   UNL     1       0.307   9.675  21.394  0.00  0.00    +0.000 A 
ATOM     18  C   UNL     1      -0.288   9.298  22.587  0.00  0.00    +0.000 A 
ATOM     19  C   UNL     1      -0.886  10.390  23.274  0.00  0.00    +0.000 A 
ATOM     20  C   UNL     1      -0.741  11.570  22.581  0.00  0.00    +0.000 A 
ATOM     21  S   UNL     1       0.109  11.352  21.112  0.00  0.00    +0.000 S 
ENDBRANCH  14  17
ENDBRANCH   7  13
BRANCH   1  22
ATOM     22  C   UNL     1       5.917   3.534  16.438  0.00  0.00    +0.000 C 
BRANCH  22  23
ATOM     23  C   UNL     1       6.970   4.577  16.057  0.00  0.00    +0.000 C 
BRANCH  23  24
ATOM     24  C   UNL     1       7.004   4.848  14.552  0.00  0.00    +0.000 C 
BRANCH  24  25
ATOM     25  C   UNL     1       5.967   3.989  13.821  0.00  0.00    +0.000 C 
BRANCH  25  26
ATOM     26  C   UNL     1       6.449   3.585  12.431  0.00  0.00    +0.000 C 
BRANCH  26  28
ATOM     27  O   UNL     1       5.572   1.613  11.301  0.00  0.00    +0.000 OA
ATOM     28  C   UNL     1       5.416   2.772  11.675  0.00  0.00    +0.000 C 
ATOM     29  N   UNL     1       4.253   3.463  11.438  0.00  0.00    +0.000 N 
ATOM     30  H   UNL     1       4.094   4.440  11.656  0.00  0.00    +0.000 HD
BRANCH  29  31
ATOM     31  O   UNL     1       3.249   2.789  10.710  0.00  0.00    +0.000 OA
ATOM     32  H   UNL     1       3.412   1.850  10.949  0.00  0.00    +0.000 HD
ENDBRANCH  29  31
ENDBRANCH  26  28
ENDBRANCH  25  26
ENDBRANCH  24  25
ENDBRANCH  23  24
ENDBRANCH  22  23
ENDBRANCH   1  22
TORSDOF 9
ENDMDL
MODEL 3
REMARK VINA RESULT:      -7.3      4.994      7.848
REMARK  Name = 
REMARK  9 active torsions:
REMARK  status: ('A' for Active; 'I' for Inactive)
REMARK    1  A    between atoms: C_2  and  C_3
REMARK    2  A    between atoms: C_3  and  C_4
REMARK    3  A    between atoms: C_4  and  C_5
REMARK    4  A    between atoms: C_5  and  C_6
REMARK    5  A    between atoms: C_6  and  C_7
REMARK    6  A    between atoms: C_7  and  N_8
REMARK    7  A    between atoms: C_14  and  N_15
REMARK    8  A    between atoms: C_16  and  C_18
REMARK    9  A    between atoms: N_28  and  O_29
REMARK                            x       y       z     vdW  Elec       q    Type
REMARK                         _______ _______ _______ _____ _____    ______ ____
ROOT
ATOM      1  N   UNL     1       5.295   4.604  16.893  0.00  0.00    +0.000 N 
ATOM      2  C   UNL     1       4.362   3.810  17.593  0.00  0.00    +0.000 C 
ATOM      3  O   UNL     1       4.248   2.602  17.513  0.00  0.00    +0.000 OA
ATOM      4  C   UNL     1       3.534   4.677  18.442  0.00  0.00    +0.000 A 
ATOM      5  C   UNL     1       2.472   4.259  19.214  0.00  0.00    +0.000 A 
ATOM      6  C   UNL     1       1.790   5.217  19.968  0.00  0.00    +0.000 A 
ATOM      7  C   UNL     1       2.163   6.578  19.953  0.00  0.00    +0.000 A 
ATOM      8  C   UNL     1       3.245   6.985  19.152  0.00  0.00    +0.000 A 
ATOM      9  C   UNL     1       3.901   6.012  18.407  0.00  0.00    +0.000 A 
ATOM     10  S   UNL     1       5.249   6.232  17.321  0.00  0.00    +0.000 S 
ATOM     11  O   UNL     1       6.418   6.554  18.105  0.00  0.00    +0.000 OA
ATOM     12  O   UNL     1       4.808   7.011  16.189  0.00  0.00    +0.000 OA
ENDROOT
BRANCH   7  13
ATOM     13  N   UNL     1       1.498   7.561  20.719  0.00  0.00    +0.000 N 
ATOM     14  C   UNL     1       1.076   8.819  20.300  0.00  0.00    +0.000 C 
ATOM     15  O   UNL     1       1.269   9.271  19.174  0.00  0.00    +0.000 OA
ATOM     16  H   UNL     1       1.296   7.337  21.687  0.00  0.00    +0.000 HD
BRANCH  14  17
ATOM     17  C   UNL     1       0.362   9.611  21.299  0.00  0.00    +0.000 A 
ATOM     18  C   UNL     1      -0.009   9.181  22.562  0.00  0.00    +0.000 A 
ATOM     19  C   UNL     1      -0.668  10.192  23.317  0.00  0.00    +0.000 A 
ATOM     20  C   UNL     1      -0.789  11.363  22.605  0.00  0.00    +0.000 A 
ATOM     21  S   UNL     1      -0.115  11.234  21.037  0.00  0.00    +0.000 S 
ENDBRANCH  14  17
ENDBRANCH   7  13
BRANCH   1  22
ATOM     22  C   UNL     1       6.310   4.113  15.957  0.00  0.00    +0.000 C 
BRANCH  22  23
ATOM     23  C   UNL     1       5.940   4.523  14.530  0.00  0.00    +0.000 C 
BRANCH  23  24
ATOM     24  C   UNL     1       5.476   3.337  13.684  0.00  0.00    +0.000 C 
BRANCH  24  25
ATOM     25  C   UNL     1       5.841   3.542  12.210  0.00  0.00    +0.000 C 
BRANCH  25  26
ATOM     26  C   UNL     1       5.318   2.406  11.336  0.00  0.00    +0.000 C 
BRANCH  26  28
ATOM     27  O   UNL     1       7.495   1.400  10.904  0.00  0.00    +0.000 OA
ATOM     28  C   UNL     1       6.314   1.268  11.212  0.00  0.00    +0.000 C 
ATOM     29  N   UNL     1       5.765   0.038  11.482  0.00  0.00    +0.000 N 
ATOM     30  H   UNL     1       4.784  -0.140  11.667  0.00  0.00    +0.000 HD
BRANCH  29  31
ATOM     31  O   UNL     1       6.616  -1.080  11.357  0.00  0.00    +0.000 OA
ATOM     32  H   UNL     1       7.171  -0.835  10.584  0.00  0.00    +0.000 HD
ENDBRANCH  29  31
ENDBRANCH  26  28
ENDBRANCH  25  26
ENDBRANCH  24  25
ENDBRANCH  23  24
ENDBRANCH  22  23
ENDBRANCH   1  22
TORSDOF 9
ENDMDL
MODEL 4
REMARK VINA RESULT:      -7.2      1.098      1.282
REMARK  Name = 
REMARK  9 active torsions:
REMARK  status: ('A' for Active; 'I' for Inactive)
REMARK    1  A    between atoms: C_2  and  C_3
REMARK    2  A    between atoms: C_3  and  C_4
REMARK    3  A    between atoms: C_4  and  C_5
REMARK    4  A    between atoms: C_5  and  C_6
REMARK    5  A    between atoms: C_6  and  C_7
REMARK    6  A    between atoms: C_7  and  N_8
REMARK    7  A    between atoms: C_14  and  N_15
REMARK    8  A    between atoms: C_16  and  C_18
REMARK    9  A    between atoms: N_28  and  O_29
REMARK                            x       y       z     vdW  Elec       q    Type
REMARK                         _______ _______ _______ _____ _____    ______ ____
ROOT
ATOM      1  N   UNL     1       4.995   4.930  17.131  0.00  0.00    +0.000 N 
ATOM      2  C   UNL     1       6.015   4.764  18.092  0.00  0.00    +0.000 C 
ATOM      3  O   UNL     1       6.213   3.767  18.760  0.00  0.00    +0.000 OA
ATOM      4  C   UNL     1       6.810   5.997  18.167  0.00  0.00    +0.000 A 
ATOM      5  C   UNL     1       7.846   6.226  19.046  0.00  0.00    +0.000 A 
ATOM      6  C   UNL     1       8.502   7.457  18.982  0.00  0.00    +0.000 A 
ATOM      7  C   UNL     1       8.130   8.451  18.051  0.00  0.00    +0.000 A 
ATOM      8  C   UNL     1       7.066   8.199  17.168  0.00  0.00    +0.000 A 
ATOM      9  C   UNL     1       6.426   6.968  17.258  0.00  0.00    +0.000 A 
ATOM     10  S   UNL     1       5.074   6.399  16.313  0.00  0.00    +0.000 S 
ATOM     11  O   UNL     1       5.527   6.170  14.961  0.00  0.00    +0.000 OA
ATOM     12  O   UNL     1       3.914   7.192  16.642  0.00  0.00    +0.000 OA
ENDROOT
BRANCH   7  13
ATOM     13  N   UNL     1       8.790   9.696  17.958  0.00  0.00    +0.000 N 
ATOM     14  C   UNL     1       9.253  10.488  19.004  0.00  0.00    +0.000 C 
ATOM     15  O   UNL     1       9.108  10.215  20.193  0.00  0.00    +0.000 OA
ATOM     16  H   UNL     1       8.955  10.066  17.029  0.00  0.00    +0.000 HD
BRANCH  14  17
ATOM     17  C   UNL     1       9.950  11.710  18.610  0.00  0.00    +0.000 A 
ATOM     18  C   UNL     1      10.959  11.801  17.665  0.00  0.00    +0.000 A 
ATOM     19  C   UNL     1      11.422  13.133  17.479  0.00  0.00    +0.000 A 
ATOM     20  C   UNL     1      10.759  14.022  18.294  0.00  0.00    +0.000 A 
ATOM     21  S   UNL     1       9.593  13.246  19.276  0.00  0.00    +0.000 S 
ENDBRANCH  14  17
ENDBRANCH   7  13
BRANCH   1  22
ATOM     22  C   UNL     1       4.001   3.923  16.750  0.00  0.00    +0.000 C 
BRANCH  22  23
ATOM     23  C   UNL     1       2.743   4.087  17.606  0.00  0.00    +0.000 C 
BRANCH  23  24
ATOM     24  C   UNL     1       2.332   2.783  18.293  0.00  0.00    +0.000 C 
BRANCH  24  25
ATOM     25  C   UNL     1       0.847   2.812  18.670  0.00  0.00    +0.000 C 
BRANCH  25  26
ATOM     26  C   UNL     1       0.581   3.751  19.842  0.00  0.00    +0.000 C 
BRANCH  26  28
ATOM     27  O   UNL     1       2.330   4.631  21.291  0.00  0.00    +0.000 OA
ATOM     28  C   UNL     1       1.664   3.677  20.900  0.00  0.00    +0.000 C 
ATOM     29  N   UNL     1       1.844   2.410  21.401  0.00  0.00    +0.000 N 
ATOM     30  H   UNL     1       1.379   1.574  21.065  0.00  0.00    +0.000 HD
BRANCH  29  31
ATOM     31  O   UNL     1       2.858   2.246  22.368  0.00  0.00    +0.000 OA
ATOM     32  H   UNL     1       2.751   3.050  22.922  0.00  0.00    +0.000 HD
ENDBRANCH  29  31
ENDBRANCH  26  28
ENDBRANCH  25  26
ENDBRANCH  24  25
ENDBRANCH  23  24
ENDBRANCH  22  23
ENDBRANCH   1  22
TORSDOF 9
ENDMDL
MODEL 5
REMARK VINA RESULT:      -7.2      4.995      7.639
REMARK  Name = 
REMARK  9 active torsions:
REMARK  status: ('A' for Active; 'I' for Inactive)
REMARK    1  A    between atoms: C_2  and  C_3
REMARK    2  A    between atoms: C_3  and  C_4
REMARK    3  A    between atoms: C_4  and  C_5
REMARK    4  A    between atoms: C_5  and  C_6
REMARK    5  A    between atoms: C_6  and  C_7
REMARK    6  A    between atoms: C_7  and  N_8
REMARK    7  A    between atoms: C_14  and  N_15
REMARK    8  A    between atoms: C_16  and  C_18
REMARK    9  A    between atoms: N_28  and  O_29
REMARK                            x       y       z     vdW  Elec       q    Type
REMARK                         _______ _______ _______ _____ _____    ______ ____
ROOT
ATOM      1  N   UNL     1       5.468   4.633  16.462  0.00  0.00    +0.000 N 
ATOM      2  C   UNL     1       4.473   4.025  17.256  0.00  0.00    +0.000 C 
ATOM      3  O   UNL     1       4.294   2.829  17.389  0.00  0.00    +0.000 OA
ATOM      4  C   UNL     1       3.670   5.071  17.906  0.00  0.00    +0.000 A 
ATOM      5  C   UNL     1       2.566   4.852  18.699  0.00  0.00    +0.000 A 
ATOM      6  C   UNL     1       1.917   5.963  19.244  0.00  0.00    +0.000 A 
ATOM      7  C   UNL     1       2.364   7.279  19.000  0.00  0.00    +0.000 A 
ATOM      8  C   UNL     1       3.490   7.480  18.181  0.00  0.00    +0.000 A 
ATOM      9  C   UNL     1       4.112   6.357  17.647  0.00  0.00    +0.000 A 
ATOM     10  S   UNL     1       5.500   6.311  16.591  0.00  0.00    +0.000 S 
ATOM     11  O   UNL     1       6.663   6.711  17.348  0.00  0.00    +0.000 OA
ATOM     12  O   UNL     1       5.135   6.894  15.322  0.00  0.00    +0.000 OA
ENDROOT
BRANCH   7  13
ATOM     13  N   UNL     1       1.734   8.415  19.553  0.00  0.00    +0.000 N 
ATOM     14  C   UNL     1       1.051   9.418  18.873  0.00  0.00    +0.000 C 
ATOM     15  O   UNL     1       0.936   9.468  17.651  0.00  0.00    +0.000 OA
ATOM     16  H   UNL     1       1.773   8.524  20.560  0.00  0.00    +0.000 HD
BRANCH  14  17
ATOM     17  C   UNL     1       0.449  10.453  19.712  0.00  0.00    +0.000 A 
ATOM     18  C   UNL     1      -0.111  11.637  19.263  0.00  0.00    +0.000 A 
ATOM     19  C   UNL     1      -0.643  12.430  20.318  0.00  0.00    +0.000 A 
ATOM     20  C   UNL     1      -0.465  11.833  21.545  0.00  0.00    +0.000 A 
ATOM     21  S   UNL     1       0.343  10.329  21.416  0.00  0.00    +0.000 S 
ENDBRANCH  14  17
ENDBRANCH   7  13
BRANCH   1  22
ATOM     22  C   UNL     1       6.480   3.931  15.668  0.00  0.00    +0.000 C 
BRANCH  22  23
ATOM     23  C   UNL     1       6.010   3.815  14.216  0.00  0.00    +0.000 C 
BRANCH  23  24
ATOM     24  C   UNL     1       7.054   4.330  13.223  0.00  0.00    +0.000 C 
BRANCH  24  25
ATOM     25  C   UNL     1       6.701   3.906  11.794  0.00  0.00    +0.000 C 
BRANCH  25  26
ATOM     26  C   UNL     1       7.299   2.546  11.445  0.00  0.00    +0.000 C 
BRANCH  26  28
ATOM     27  O   UNL     1       5.035   1.685  11.191  0.00  0.00    +0.000 OA
ATOM     28  C   UNL     1       6.240   1.473  11.289  0.00  0.00    +0.000 C 
ATOM     29  N   UNL     1       6.759   0.201  11.264  0.00  0.00    +0.000 N 
ATOM     30  H   UNL     1       7.732  -0.040  11.414  0.00  0.00    +0.000 HD
BRANCH  29  31
ATOM     31  O   UNL     1       5.837  -0.861  11.154  0.00  0.00    +0.000 OA
ATOM     32  H   UNL     1       5.456  -0.716  10.259  0.00  0.00    +0.000 HD
ENDBRANCH  29  31
ENDBRANCH  26  28
ENDBRANCH  25  26
ENDBRANCH  24  25
ENDBRANCH  23  24
ENDBRANCH  22  23
ENDBRANCH   1  22
TORSDOF 9
ENDMDL
MODEL 6
REMARK VINA RESULT:      -7.1      5.023      7.569
REMARK  Name = 
REMARK  9 active torsions:
REMARK  status: ('A' for Active; 'I' for Inactive)
REMARK    1  A    between atoms: C_2  and  C_3
REMARK    2  A    between atoms: C_3  and  C_4
REMARK    3  A    between atoms: C_4  and  C_5
REMARK    4  A    between atoms: C_5  and  C_6
REMARK    5  A    between atoms: C_6  and  C_7
REMARK    6  A    between atoms: C_7  and  N_8
REMARK    7  A    between atoms: C_14  and  N_15
REMARK    8  A    between atoms: C_16  and  C_18
REMARK    9  A    between atoms: N_28  and  O_29
REMARK                            x       y       z     vdW  Elec       q    Type
REMARK                         _______ _______ _______ _____ _____    ______ ____
ROOT
ATOM      1  N   UNL     1       5.755   5.198  16.930  0.00  0.00    +0.000 N 
ATOM      2  C   UNL     1       4.876   4.709  17.920  0.00  0.00    +0.000 C 
ATOM      3  O   UNL     1       4.911   3.603  18.425  0.00  0.00    +0.000 OA
ATOM      4  C   UNL     1       3.894   5.752  18.250  0.00  0.00    +0.000 A 
ATOM      5  C   UNL     1       2.839   5.606  19.123  0.00  0.00    +0.000 A 
ATOM      6  C   UNL     1       1.998   6.704  19.326  0.00  0.00    +0.000 A 
ATOM      7  C   UNL     1       2.208   7.933  18.666  0.00  0.00    +0.000 A 
ATOM      8  C   UNL     1       3.287   8.057  17.773  0.00  0.00    +0.000 A 
ATOM      9  C   UNL     1       4.103   6.948  17.584  0.00  0.00    +0.000 A 
ATOM     10  S   UNL     1       5.487   6.812  16.531  0.00  0.00    +0.000 S 
ATOM     11  O   UNL     1       6.554   7.622  17.071  0.00  0.00    +0.000 OA
ATOM     12  O   UNL     1       5.036   6.896  15.162  0.00  0.00    +0.000 OA
ENDROOT
BRANCH   7  13
ATOM     13  N   UNL     1       1.381   9.060  18.869  0.00  0.00    +0.000 N 
ATOM     14  C   UNL     1       0.952   9.587  20.083  0.00  0.00    +0.000 C 
ATOM     15  O   UNL     1       1.218   9.099  21.179  0.00  0.00    +0.000 OA
ATOM     16  H   UNL     1       1.055   9.552  18.045  0.00  0.00    +0.000 HD
BRANCH  14  17
ATOM     17  C   UNL     1       0.141  10.799  19.995  0.00  0.00    +0.000 A 
ATOM     18  C   UNL     1      -0.555  11.230  18.877  0.00  0.00    +0.000 A 
ATOM     19  C   UNL     1      -1.278  12.434  19.109  0.00  0.00    +0.000 A 
ATOM     20  C   UNL     1      -1.107  12.892  20.395  0.00  0.00    +0.000 A 
ATOM     21  S   UNL     1      -0.076  11.876  21.308  0.00  0.00    +0.000 S 
ENDBRANCH  14  17
ENDBRANCH   7  13
BRANCH   1  22
ATOM     22  C   UNL     1       6.882   4.467  16.346  0.00  0.00    +0.000 C 
BRANCH  22  23
ATOM     23  C   UNL     1       6.381   3.545  15.232  0.00  0.00    +0.000 C 
BRANCH  23  24
ATOM     24  C   UNL     1       6.383   4.230  13.864  0.00  0.00    +0.000 C 
BRANCH  24  25
ATOM     25  C   UNL     1       5.407   3.537  12.907  0.00  0.00    +0.000 C 
BRANCH  25  26
ATOM     26  C   UNL     1       6.007   3.369  11.514  0.00  0.00    +0.000 C 
BRANCH  26  28
ATOM     27  O   UNL     1       7.840   1.829  11.068  0.00  0.00    +0.000 OA
ATOM     28  C   UNL     1       6.654   2.011  11.324  0.00  0.00    +0.000 C 
ATOM     29  N   UNL     1       5.772   0.967  11.467  0.00  0.00    +0.000 N 
ATOM     30  H   UNL     1       4.771   1.058  11.603  0.00  0.00    +0.000 HD
BRANCH  29  31
ATOM     31  O   UNL     1       6.286  -0.332  11.272  0.00  0.00    +0.000 OA
ATOM     32  H   UNL     1       7.031  -0.360  11.912  0.00  0.00    +0.000 HD
ENDBRANCH  29  31
ENDBRANCH  26  28
ENDBRANCH  25  26
ENDBRANCH  24  25
ENDBRANCH  23  24
ENDBRANCH  22  23
ENDBRANCH   1  22
TORSDOF 9
ENDMDL
MODEL 7
REMARK VINA RESULT:      -7.1      4.938      7.704
REMARK  Name = 
REMARK  9 active torsions:
REMARK  status: ('A' for Active; 'I' for Inactive)
REMARK    1  A    between atoms: C_2  and  C_3
REMARK    2  A    between atoms: C_3  and  C_4
REMARK    3  A    between atoms: C_4  and  C_5
REMARK    4  A    between atoms: C_5  and  C_6
REMARK    5  A    between atoms: C_6  and  C_7
REMARK    6  A    between atoms: C_7  and  N_8
REMARK    7  A    between atoms: C_14  and  N_15
REMARK    8  A    between atoms: C_16  and  C_18
REMARK    9  A    between atoms: N_28  and  O_29
REMARK                            x       y       z     vdW  Elec       q    Type
REMARK                         _______ _______ _______ _____ _____    ______ ____
ROOT
ATOM      1  N   UNL     1       5.094   4.260  17.108  0.00  0.00    +0.000 N 
ATOM      2  C   UNL     1       4.159   3.561  17.900  0.00  0.00    +0.000 C 
ATOM      3  O   UNL     1       4.008   2.354  17.932  0.00  0.00    +0.000 OA
ATOM      4  C   UNL     1       3.380   4.525  18.689  0.00  0.00    +0.000 A 
ATOM      5  C   UNL     1       2.329   4.211  19.522  0.00  0.00    +0.000 A 
ATOM      6  C   UNL     1       1.697   5.254  20.205  0.00  0.00    +0.000 A 
ATOM      7  C   UNL     1       2.107   6.596  20.057  0.00  0.00    +0.000 A 
ATOM      8  C   UNL     1       3.177   6.895  19.195  0.00  0.00    +0.000 A 
ATOM      9  C   UNL     1       3.784   5.839  18.524  0.00  0.00    +0.000 A 
ATOM     10  S   UNL     1       5.106   5.920  17.388  0.00  0.00    +0.000 S 
ATOM     11  O   UNL     1       6.306   6.275  18.108  0.00  0.00    +0.000 OA
ATOM     12  O   UNL     1       4.655   6.608  16.202  0.00  0.00    +0.000 OA
ENDROOT
BRANCH   7  13
ATOM     13  N   UNL     1       1.493   7.663  20.748  0.00  0.00    +0.000 N 
ATOM     14  C   UNL     1       1.074   8.881  20.223  0.00  0.00    +0.000 C 
ATOM     15  O   UNL     1       1.224   9.215  19.051  0.00  0.00    +0.000 OA
ATOM     16  H   UNL     1       1.331   7.541  21.742  0.00  0.00    +0.000 HD
BRANCH  14  17
ATOM     17  C   UNL     1       0.418   9.784  21.167  0.00  0.00    +0.000 A 
ATOM     18  C   UNL     1       0.187  11.135  20.972  0.00  0.00    +0.000 A 
ATOM     19  C   UNL     1      -0.500  11.741  22.061  0.00  0.00    +0.000 A 
ATOM     20  C   UNL     1      -0.766  10.835  23.062  0.00  0.00    +0.000 A 
ATOM     21  S   UNL     1      -0.184   9.270  22.686  0.00  0.00    +0.000 S 
ENDBRANCH  14  17
ENDBRANCH   7  13
BRANCH   1  22
ATOM     22  C   UNL     1       6.067   3.656  16.193  0.00  0.00    +0.000 C 
BRANCH  22  23
ATOM     23  C   UNL     1       6.894   4.752  15.518  0.00  0.00    +0.000 C 
BRANCH  23  24
ATOM     24  C   UNL     1       6.828   4.674  13.992  0.00  0.00    +0.000 C 
BRANCH  24  25
ATOM     25  C   UNL     1       5.684   3.759  13.542  0.00  0.00    +0.000 C 
BRANCH  25  26
ATOM     26  C   UNL     1       5.680   3.562  12.030  0.00  0.00    +0.000 C 
BRANCH  26  28
ATOM     27  O   UNL     1       7.688   2.391  11.299  0.00  0.00    +0.000 OA
ATOM     28  C   UNL     1       6.498   2.359  11.602  0.00  0.00    +0.000 C 
ATOM     29  N   UNL     1       5.774   1.192  11.582  0.00  0.00    +0.000 N 
ATOM     30  H   UNL     1       4.777   1.116  11.748  0.00  0.00    +0.000 HD
BRANCH  29  31
ATOM     31  O   UNL     1       6.453   0.028  11.163  0.00  0.00    +0.000 OA
ATOM     32  H   UNL     1       6.963   0.351  10.388  0.00  0.00    +0.000 HD
ENDBRANCH  29  31
ENDBRANCH  26  28
ENDBRANCH  25  26
ENDBRANCH  24  25
ENDBRANCH  23  24
ENDBRANCH  22  23
ENDBRANCH   1  22
TORSDOF 9
ENDMDL
MODEL 8
REMARK VINA RESULT:      -7.0      0.916      1.263
REMARK  Name = 
REMARK  9 active torsions:
REMARK  status: ('A' for Active; 'I' for Inactive)
REMARK    1  A    between atoms: C_2  and  C_3
REMARK    2  A    between atoms: C_3  and  C_4
REMARK    3  A    between atoms: C_4  and  C_5
REMARK    4  A    between atoms: C_5  and  C_6
REMARK    5  A    between atoms: C_6  and  C_7
REMARK    6  A    between atoms: C_7  and  N_8
REMARK    7  A    between atoms: C_14  and  N_15
REMARK    8  A    between atoms: C_16  and  C_18
REMARK    9  A    between atoms: N_28  and  O_29
REMARK                            x       y       z     vdW  Elec       q    Type
REMARK                         _______ _______ _______ _____ _____    ______ ____
ROOT
ATOM      1  N   UNL     1       4.762   5.262  17.386  0.00  0.00    +0.000 N 
ATOM      2  C   UNL     1       5.873   4.994  18.213  0.00  0.00    +0.000 C 
ATOM      3  O   UNL     1       6.085   3.958  18.814  0.00  0.00    +0.000 OA
ATOM      4  C   UNL     1       6.748   6.174  18.242  0.00  0.00    +0.000 A 
ATOM      5  C   UNL     1       7.890   6.303  19.000  0.00  0.00    +0.000 A 
ATOM      6  C   UNL     1       8.610   7.497  18.907  0.00  0.00    +0.000 A 
ATOM      7  C   UNL     1       8.196   8.551  18.066  0.00  0.00    +0.000 A 
ATOM      8  C   UNL     1       7.023   8.402  17.305  0.00  0.00    +0.000 A 
ATOM      9  C   UNL     1       6.322   7.206  17.422  0.00  0.00    +0.000 A 
ATOM     10  S   UNL     1       4.838   6.760  16.622  0.00  0.00    +0.000 S 
ATOM     11  O   UNL     1       5.116   6.568  15.218  0.00  0.00    +0.000 OA
ATOM     12  O   UNL     1       3.774   7.602  17.116  0.00  0.00    +0.000 OA
ENDROOT
BRANCH   7  13
ATOM     13  N   UNL     1       8.917   9.759  17.943  0.00  0.00    +0.000 N 
ATOM     14  C   UNL     1       9.293  10.627  18.964  0.00  0.00    +0.000 C 
ATOM     15  O   UNL     1       9.003  10.467  20.147  0.00  0.00    +0.000 OA
ATOM     16  H   UNL     1       9.201  10.039  17.011  0.00  0.00    +0.000 HD
BRANCH  14  17
ATOM     17  C   UNL     1      10.085  11.784  18.550  0.00  0.00    +0.000 A 
ATOM     18  C   UNL     1       9.581  12.985  18.080  0.00  0.00    +0.000 A 
ATOM     19  C   UNL     1      10.601  13.932  17.785  0.00  0.00    +0.000 A 
ATOM     20  C   UNL     1      11.856  13.423  18.029  0.00  0.00    +0.000 A 
ATOM     21  S   UNL     1      11.796  11.813  18.605  0.00  0.00    +0.000 S 
ENDBRANCH  14  17
ENDBRANCH   7  13
BRANCH   1  22
ATOM     22  C   UNL     1       3.670   4.332  17.087  0.00  0.00    +0.000 C 
BRANCH  22  23
ATOM     23  C   UNL     1       2.575   4.459  18.148  0.00  0.00    +0.000 C 
BRANCH  23  24
ATOM     24  C   UNL     1       1.321   3.660  17.790  0.00  0.00    +0.000 C 
BRANCH  24  25
ATOM     25  C   UNL     1       1.227   2.387  18.638  0.00  0.00    +0.000 C 
BRANCH  25  26
ATOM     26  C   UNL     1       2.541   2.086  19.353  0.00  0.00    +0.000 C 
BRANCH  26  28
ATOM     27  O   UNL     1       3.413   2.362  21.611  0.00  0.00    +0.000 OA
ATOM     28  C   UNL     1       2.451   2.319  20.849  0.00  0.00    +0.000 C 
ATOM     29  N   UNL     1       1.162   2.485  21.294  0.00  0.00    +0.000 N 
ATOM     30  H   UNL     1       0.327   2.386  20.727  0.00  0.00    +0.000 HD
BRANCH  29  31
ATOM     31  O   UNL     1       0.987   2.674  22.680  0.00  0.00    +0.000 OA
ATOM     32  H   UNL     1       0.210   2.104  22.873  0.00  0.00    +0.000 HD
ENDBRANCH  29  31
ENDBRANCH  26  28
ENDBRANCH  25  26
ENDBRANCH  24  25
ENDBRANCH  23  24
ENDBRANCH  22  23
ENDBRANCH   1  22
TORSDOF 9
ENDMDL
MODEL 9
REMARK VINA RESULT:      -7.0      4.935      7.471
REMARK  Name = 
REMARK  9 active torsions:
REMARK  status: ('A' for Active; 'I' for Inactive)
REMARK    1  A    between atoms: C_2  and  C_3
REMARK    2  A    between atoms: C_3  and  C_4
REMARK    3  A    between atoms: C_4  and  C_5
REMARK    4  A    between atoms: C_5  and  C_6
REMARK    5  A    between atoms: C_6  and  C_7
REMARK    6  A    between atoms: C_7  and  N_8
REMARK    7  A    between atoms: C_14  and  N_15
REMARK    8  A    between atoms: C_16  and  C_18
REMARK    9  A    between atoms: N_28  and  O_29
REMARK                            x       y       z     vdW  Elec       q    Type
REMARK                         _______ _______ _______ _____ _____    ______ ____
ROOT
ATOM      1  N   UNL     1       5.713   5.215  17.139  0.00  0.00    +0.000 N 
ATOM      2  C   UNL     1       4.816   4.806  18.149  0.00  0.00    +0.000 C 
ATOM      3  O   UNL     1       4.833   3.738  18.731  0.00  0.00    +0.000 OA
ATOM      4  C   UNL     1       3.843   5.879  18.393  0.00  0.00    +0.000 A 
ATOM      5  C   UNL     1       2.776   5.806  19.260  0.00  0.00    +0.000 A 
ATOM      6  C   UNL     1       1.945   6.924  19.376  0.00  0.00    +0.000 A 
ATOM      7  C   UNL     1       2.176   8.102  18.633  0.00  0.00    +0.000 A 
ATOM      8  C   UNL     1       3.268   8.152  17.748  0.00  0.00    +0.000 A 
ATOM      9  C   UNL     1       4.074   7.023  17.648  0.00  0.00    +0.000 A 
ATOM     10  S   UNL     1       5.468   6.799  16.624  0.00  0.00    +0.000 S 
ATOM     11  O   UNL     1       6.537   7.634  17.120  0.00  0.00    +0.000 OA
ATOM     12  O   UNL     1       5.035   6.792  15.247  0.00  0.00    +0.000 OA
ENDROOT
BRANCH   7  13
ATOM     13  N   UNL     1       1.360   9.249  18.746  0.00  0.00    +0.000 N 
ATOM     14  C   UNL     1       0.937   9.875  19.915  0.00  0.00    +0.000 C 
ATOM     15  O   UNL     1       1.200   9.473  21.046  0.00  0.00    +0.000 OA
ATOM     16  H   UNL     1       1.038   9.677  17.886  0.00  0.00    +0.000 HD
BRANCH  14  17
ATOM     17  C   UNL     1       0.137  11.083  19.730  0.00  0.00    +0.000 A 
ATOM     18  C   UNL     1       0.276  12.000  18.702  0.00  0.00    +0.000 A 
ATOM     19  C   UNL     1      -0.671  13.060  18.776  0.00  0.00    +0.000 A 
ATOM     20  C   UNL     1      -1.500  12.928  19.867  0.00  0.00    +0.000 A 
ATOM     21  S   UNL     1      -1.130  11.535  20.790  0.00  0.00    +0.000 S 
ENDBRANCH  14  17
ENDBRANCH   7  13
BRANCH   1  22
ATOM     22  C   UNL     1       6.839   4.433  16.622  0.00  0.00    +0.000 C 
BRANCH  22  23
ATOM     23  C   UNL     1       6.539   3.976  15.192  0.00  0.00    +0.000 C 
BRANCH  23  24
ATOM     24  C   UNL     1       7.346   4.754  14.151  0.00  0.00    +0.000 C 
BRANCH  24  25
ATOM     25  C   UNL     1       6.964   4.321  12.732  0.00  0.00    +0.000 C 
BRANCH  25  26
ATOM     26  C   UNL     1       5.496   3.915  12.641  0.00  0.00    +0.000 C 
BRANCH  26  28
ATOM     27  O   UNL     1       4.271   2.468  11.112  0.00  0.00    +0.000 OA
ATOM     28  C   UNL     1       5.287   2.697  11.762  0.00  0.00    +0.000 C 
ATOM     29  N   UNL     1       6.364   1.845  11.754  0.00  0.00    +0.000 N 
ATOM     30  H   UNL     1       7.196   1.943  12.326  0.00  0.00    +0.000 HD
BRANCH  29  31
ATOM     31  O   UNL     1       6.239   0.669  10.986  0.00  0.00    +0.000 OA
ATOM     32  H   UNL     1       7.164   0.510  10.694  0.00  0.00    +0.000 HD
ENDBRANCH  29  31
ENDBRANCH  26  28
ENDBRANCH  25  26
ENDBRANCH  24  25
ENDBRANCH  23  24
ENDBRANCH  22  23
ENDBRANCH   1  22
TORSDOF 9
ENDMDL
