MODEL 1
REMARK VINA RESULT:      -7.8      0.000      0.000
REMARK  Name = 
REMARK  6 active torsions:
REMARK  status: ('A' for Active; 'I' for Inactive)
REMARK    1  A    between atoms: C_1  and  N_2
REMARK    2  A    between atoms: C_3  and  C_5
REMARK    3  A    between atoms: C_5  and  C_6
REMARK    4  A    between atoms: C_5  and  C_14
REMARK    5  A    between atoms: C_6  and  C_7
REMARK    6  A    between atoms: C_14  and  N_15
REMARK                            x       y       z     vdW  Elec       q    Type
REMARK                         _______ _______ _______ _____ _____    ______ ____
ROOT
ATOM      1  C   UNL     1       2.171   6.891  18.846  0.00  0.00    +0.000 C 
ENDROOT
BRANCH   1   2
ATOM      2  N   UNL     1       1.966   8.261  19.371  0.00  0.00    +0.000 NA
ATOM      3  C   UNL     1       1.306   8.345  20.671  0.00  0.00    +0.000 C 
ATOM      4  C   UNL     1       1.310   9.817  21.145  0.00  0.00    +0.000 C 
ATOM      5  C   UNL     1       0.645  10.827  20.139  0.00  0.00    +0.000 C 
ATOM      6  C   UNL     1       0.120   9.977  18.965  0.00  0.00    +0.000 C 
ATOM      7  C   UNL     1       1.351   9.177  18.388  0.00  0.00    +0.000 C 
ATOM      8  O   UNL     1       1.679  11.688  19.536  0.00  0.00    +0.000 OA
ATOM      9  C   UNL     1       1.132  12.715  18.658  0.00  0.00    +0.000 C 
ATOM     10  C   UNL     1       0.463  13.822  19.462  0.00  0.00    +0.000 C 
ATOM     11  C   UNL     1      -0.222  13.230  20.651  0.00  0.00    +0.000 A 
ATOM     12  C   UNL     1      -0.688  13.998  21.766  0.00  0.00    +0.000 A 
ATOM     13  C   UNL     1      -1.079  13.180  22.790  0.00  0.00    +0.000 A 
ATOM     14  F   UNL     1      -1.387  13.629  23.980  0.00  0.00    +0.000 F 
ATOM     15  S   UNL     1      -1.110  11.541  22.349  0.00  0.00    +0.000 S 
ATOM     16  C   UNL     1      -0.240  11.853  20.890  0.00  0.00    +0.000 A 
ENDBRANCH   1   2
BRANCH   1  17
ATOM     17  C   UNL     1       2.772   5.903  19.903  0.00  0.00    +0.000 C 
BRANCH  17  20
ATOM     18  C   UNL     1       1.396   2.705  21.466  0.00  0.00    +0.000 C 
ATOM     19  N   UNL     1       2.103   3.927  21.201  0.00  0.00    +0.000 N 
ATOM     20  C   UNL     1       1.932   4.622  20.028  0.00  0.00    +0.000 C 
ATOM     21  O   UNL     1       1.213   4.188  19.131  0.00  0.00    +0.000 OA
ATOM     22  H   UNL     1       2.651   4.370  21.940  0.00  0.00    +0.000 HD
ENDBRANCH  17  20
BRANCH  17  23
ATOM     23  C   UNL     1       4.240   5.558  19.516  0.00  0.00    +0.000 C 
BRANCH  23  24
ATOM     24  C   UNL     1       4.593   5.428  18.038  0.00  0.00    +0.000 A 
ATOM     25  C   UNL     1       5.049   6.572  17.351  0.00  0.00    +0.000 A 
ATOM     26  C   UNL     1       5.404   6.528  15.999  0.00  0.00    +0.000 A 
ATOM     27  C   UNL     1       5.317   5.336  15.293  0.00  0.00    +0.000 A 
ATOM     28  C   UNL     1       4.888   4.188  15.954  0.00  0.00    +0.000 A 
ATOM     29  C   UNL     1       4.531   4.228  17.317  0.00  0.00    +0.000 A 
ATOM     30 CL   UNL     1       4.085   2.732  18.062  0.00  0.00    +0.000 Cl
ENDBRANCH  23  24
ENDBRANCH  17  23
ENDBRANCH   1  17
TORSDOF 5
ENDMDL
MODEL 2
REMARK VINA RESULT:      -7.7      2.099      2.902
REMARK  Name = 
REMARK  6 active torsions:
REMARK  status: ('A' for Active; 'I' for Inactive)
REMARK    1  A    between atoms: C_1  and  N_2
REMARK    2  A    between atoms: C_3  and  C_5
REMARK    3  A    between atoms: C_5  and  C_6
REMARK    4  A    between atoms: C_5  and  C_14
REMARK    5  A    between atoms: C_6  and  C_7
REMARK    6  A    between atoms: C_14  and  N_15
REMARK                            x       y       z     vdW  Elec       q    Type
REMARK                         _______ _______ _______ _____ _____    ______ ____
ROOT
ATOM      1  C   UNL     1       2.606   6.803  17.769  0.00  0.00    +0.000 C 
ENDROOT
BRANCH   1   2
ATOM      2  N   UNL     1       1.708   7.694  18.540  0.00  0.00    +0.000 NA
ATOM      3  C   UNL     1       1.747   9.104  18.168  0.00  0.00    +0.000 C 
ATOM      4  C   UNL     1       0.650   9.864  18.949  0.00  0.00    +0.000 C 
ATOM      5  C   UNL     1       0.744   9.719  20.512  0.00  0.00    +0.000 C 
ATOM      6  C   UNL     1       2.001   8.869  20.787  0.00  0.00    +0.000 C 
ATOM      7  C   UNL     1       1.822   7.512  20.003  0.00  0.00    +0.000 C 
ATOM      8  O   UNL     1      -0.373   8.892  21.008  0.00  0.00    +0.000 OA
ATOM      9  C   UNL     1      -0.408   8.786  22.461  0.00  0.00    +0.000 C 
ATOM     10  C   UNL     1      -0.889  10.086  23.093  0.00  0.00    +0.000 C 
ATOM     11  C   UNL     1      -0.359  11.245  22.312  0.00  0.00    +0.000 A 
ATOM     12  C   UNL     1      -0.851  12.584  22.443  0.00  0.00    +0.000 A 
ATOM     13  C   UNL     1      -0.333  13.388  21.465  0.00  0.00    +0.000 A 
ATOM     14  F   UNL     1      -0.748  14.612  21.260  0.00  0.00    +0.000 F 
ATOM     15  S   UNL     1       0.883  12.626  20.559  0.00  0.00    +0.000 S 
ATOM     16  C   UNL     1       0.483  11.077  21.210  0.00  0.00    +0.000 A 
ENDBRANCH   1   2
BRANCH   1  17
ATOM     17  C   UNL     1       2.956   5.472  18.518  0.00  0.00    +0.000 C 
BRANCH  17  20
ATOM     18  C   UNL     1       0.526   2.815  19.784  0.00  0.00    +0.000 C 
ATOM     19  N   UNL     1       1.575   3.789  19.656  0.00  0.00    +0.000 N 
ATOM     20  C   UNL     1       1.786   4.475  18.485  0.00  0.00    +0.000 C 
ATOM     21  O   UNL     1       1.125   4.233  17.478  0.00  0.00    +0.000 OA
ATOM     22  H   UNL     1       2.101   4.082  20.480  0.00  0.00    +0.000 HD
ENDBRANCH  17  20
BRANCH  17  23
ATOM     23  C   UNL     1       4.231   4.840  17.886  0.00  0.00    +0.000 C 
BRANCH  23  24
ATOM     24  C   UNL     1       5.564   5.560  18.061  0.00  0.00    +0.000 A 
ATOM     25  C   UNL     1       6.321   5.305  19.223  0.00  0.00    +0.000 A 
ATOM     26  C   UNL     1       7.559   5.916  19.446  0.00  0.00    +0.000 A 
ATOM     27  C   UNL     1       8.079   6.801  18.512  0.00  0.00    +0.000 A 
ATOM     28  C   UNL     1       7.360   7.055  17.347  0.00  0.00    +0.000 A 
ATOM     29  C   UNL     1       6.113   6.440  17.117  0.00  0.00    +0.000 A 
ATOM     30 CL   UNL     1       5.338   6.764  15.606  0.00  0.00    +0.000 Cl
ENDBRANCH  23  24
ENDBRANCH  17  23
ENDBRANCH   1  17
TORSDOF 5
ENDMDL
MODEL 3
REMARK VINA RESULT:      -7.5      1.408      2.112
REMARK  Name = 
REMARK  6 active torsions:
REMARK  status: ('A' for Active; 'I' for Inactive)
REMARK    1  A    between atoms: C_1  and  N_2
REMARK    2  A    between atoms: C_3  and  C_5
REMARK    3  A    between atoms: C_5  and  C_6
REMARK    4  A    between atoms: C_5  and  C_14
REMARK    5  A    between atoms: C_6  and  C_7
REMARK    6  A    between atoms: C_14  and  N_15
REMARK                            x       y       z     vdW  Elec       q    Type
REMARK                         _______ _______ _______ _____ _____    ______ ____
ROOT
ATOM      1  C   UNL     1       2.466   6.680  18.730  0.00  0.00    +0.000 C 
ENDROOT
BRANCH   1   2
ATOM      2  N   UNL     1       1.574   7.737  19.260  0.00  0.00    +0.000 NA
ATOM      3  C   UNL     1       1.724   9.054  18.647  0.00  0.00    +0.000 C 
ATOM      4  C   UNL     1       0.625   9.994  19.194  0.00  0.00    +0.000 C 
ATOM      5  C   UNL     1       0.604  10.130  20.761  0.00  0.00    +0.000 C 
ATOM      6  C   UNL     1       1.786   9.285  21.278  0.00  0.00    +0.000 C 
ATOM      7  C   UNL     1       1.577   7.819  20.735  0.00  0.00    +0.000 C 
ATOM      8  O   UNL     1      -0.592   9.462  21.307  0.00  0.00    +0.000 OA
ATOM      9  C   UNL     1      -0.732   9.622  22.748  0.00  0.00    +0.000 C 
ATOM     10  C   UNL     1      -1.174  11.037  23.101  0.00  0.00    +0.000 C 
ATOM     11  C   UNL     1      -0.523  12.009  22.171  0.00  0.00    +0.000 A 
ATOM     12  C   UNL     1      -0.939  13.371  22.024  0.00  0.00    +0.000 A 
ATOM     13  C   UNL     1      -0.308  13.959  20.963  0.00  0.00    +0.000 A 
ATOM     14  F   UNL     1      -0.633  15.144  20.512  0.00  0.00    +0.000 F 
ATOM     15  S   UNL     1       0.917  12.988  20.302  0.00  0.00    +0.000 S 
ATOM     16  C   UNL     1       0.381  11.604  21.184  0.00  0.00    +0.000 A 
ENDBRANCH   1   2
BRANCH   1  17
ATOM     17  C   UNL     1       3.033   5.732  19.840  0.00  0.00    +0.000 C 
BRANCH  17  20
ATOM     18  C   UNL     1       1.595   2.668  21.605  0.00  0.00    +0.000 C 
ATOM     19  N   UNL     1       2.361   3.828  21.241  0.00  0.00    +0.000 N 
ATOM     20  C   UNL     1       2.115   4.522  20.081  0.00  0.00    +0.000 C 
ATOM     21  O   UNL     1       1.270   4.137  19.276  0.00  0.00    +0.000 OA
ATOM     22  H   UNL     1       3.019   4.234  21.907  0.00  0.00    +0.000 HD
ENDBRANCH  17  20
BRANCH  17  23
ATOM     23  C   UNL     1       4.463   5.261  19.441  0.00  0.00    +0.000 C 
BRANCH  23  24
ATOM     24  C   UNL     1       4.833   5.231  17.962  0.00  0.00    +0.000 A 
ATOM     25  C   UNL     1       5.464   6.362  17.402  0.00  0.00    +0.000 A 
ATOM     26  C   UNL     1       5.846   6.402  16.057  0.00  0.00    +0.000 A 
ATOM     27  C   UNL     1       5.611   5.312  15.231  0.00  0.00    +0.000 A 
ATOM     28  C   UNL     1       5.007   4.176  15.765  0.00  0.00    +0.000 A 
ATOM     29  C   UNL     1       4.623   4.130  17.120  0.00  0.00    +0.000 A 
ATOM     30 CL   UNL     1       3.951   2.646  17.702  0.00  0.00    +0.000 Cl
ENDBRANCH  23  24
ENDBRANCH  17  23
ENDBRANCH   1  17
TORSDOF 5
ENDMDL
MODEL 4
REMARK VINA RESULT:      -7.5      2.014      2.737
REMARK  Name = 
REMARK  6 active torsions:
REMARK  status: ('A' for Active; 'I' for Inactive)
REMARK    1  A    between atoms: C_1  and  N_2
REMARK    2  A    between atoms: C_3  and  C_5
REMARK    3  A    between atoms: C_5  and  C_6
REMARK    4  A    between atoms: C_5  and  C_14
REMARK    5  A    between atoms: C_6  and  C_7
REMARK    6  A    between atoms: C_14  and  N_15
REMARK                            x       y       z     vdW  Elec       q    Type
REMARK                         _______ _______ _______ _____ _____    ______ ____
ROOT
ATOM      1  C   UNL     1       2.840   6.380  18.430  0.00  0.00    +0.000 C 
ENDROOT
BRANCH   1   2
ATOM      2  N   UNL     1       1.910   7.386  18.993  0.00  0.00    +0.000 NA
ATOM      3  C   UNL     1       2.047   8.738  18.461  0.00  0.00    +0.000 C 
ATOM      4  C   UNL     1       0.913   9.622  19.029  0.00  0.00    +0.000 C 
ATOM      5  C   UNL     1       0.847   9.667  20.600  0.00  0.00    +0.000 C 
ATOM      6  C   UNL     1       2.033   8.819  21.102  0.00  0.00    +0.000 C 
ATOM      7  C   UNL     1       1.873   7.382  20.471  0.00  0.00    +0.000 C 
ATOM      8  O   UNL     1      -0.348   8.943  21.074  0.00  0.00    +0.000 OA
ATOM      9  C   UNL     1      -0.530   9.017  22.518  0.00  0.00    +0.000 C 
ATOM     10  C   UNL     1      -1.014  10.399  22.938  0.00  0.00    +0.000 C 
ATOM     11  C   UNL     1      -0.360  11.437  22.084  0.00  0.00    +0.000 A 
ATOM     12  C   UNL     1      -0.803  12.796  22.003  0.00  0.00    +0.000 A 
ATOM     13  C   UNL     1      -0.158  13.457  20.994  0.00  0.00    +0.000 A 
ATOM     14  F   UNL     1      -0.497  14.659  20.603  0.00  0.00    +0.000 F 
ATOM     15  S   UNL     1       1.107  12.552  20.315  0.00  0.00    +0.000 S 
ATOM     16  C   UNL     1       0.579  11.108  21.101  0.00  0.00    +0.000 A 
ENDBRANCH   1   2
BRANCH   1  17
ATOM     17  C   UNL     1       3.513   5.476  19.518  0.00  0.00    +0.000 C 
BRANCH  17  20
ATOM     18  C   UNL     1       0.866   2.774  19.008  0.00  0.00    +0.000 C 
ATOM     19  N   UNL     1       1.613   4.001  19.016  0.00  0.00    +0.000 N 
ATOM     20  C   UNL     1       2.859   4.086  19.589  0.00  0.00    +0.000 C 
ATOM     21  O   UNL     1       3.356   3.128  20.175  0.00  0.00    +0.000 OA
ATOM     22  H   UNL     1       1.282   4.803  18.478  0.00  0.00    +0.000 HD
ENDBRANCH  17  20
BRANCH  17  23
ATOM     23  C   UNL     1       5.035   5.348  19.218  0.00  0.00    +0.000 C 
BRANCH  23  24
ATOM     24  C   UNL     1       5.476   5.071  17.785  0.00  0.00    +0.000 A 
ATOM     25  C   UNL     1       4.820   4.050  17.064  0.00  0.00    +0.000 A 
ATOM     26  C   UNL     1       5.159   3.747  15.741  0.00  0.00    +0.000 A 
ATOM     27  C   UNL     1       6.163   4.458  15.098  0.00  0.00    +0.000 A 
ATOM     28  C   UNL     1       6.812   5.482  15.781  0.00  0.00    +0.000 A 
ATOM     29  C   UNL     1       6.472   5.793  17.114  0.00  0.00    +0.000 A 
ATOM     30 CL   UNL     1       7.285   7.132  17.845  0.00  0.00    +0.000 Cl
ENDBRANCH  23  24
ENDBRANCH  17  23
ENDBRANCH   1  17
TORSDOF 5
ENDMDL
MODEL 5
REMARK VINA RESULT:      -7.4      1.876      2.841
REMARK  Name = 
REMARK  6 active torsions:
REMARK  status: ('A' for Active; 'I' for Inactive)
REMARK    1  A    between atoms: C_1  and  N_2
REMARK    2  A    between atoms: C_3  and  C_5
REMARK    3  A    between atoms: C_5  and  C_6
REMARK    4  A    between atoms: C_5  and  C_14
REMARK    5  A    between atoms: C_6  and  C_7
REMARK    6  A    between atoms: C_14  and  N_15
REMARK                            x       y       z     vdW  Elec       q    Type
REMARK                         _______ _______ _______ _____ _____    ______ ____
ROOT
ATOM      1  C   UNL     1       2.212   6.809  19.895  0.00  0.00    +0.000 C 
ENDROOT
BRANCH   1   2
ATOM      2  N   UNL     1       1.919   8.210  20.276  0.00  0.00    +0.000 NA
ATOM      3  C   UNL     1       1.185   8.382  21.526  0.00  0.00    +0.000 C 
ATOM      4  C   UNL     1       1.099   9.889  21.859  0.00  0.00    +0.000 C 
ATOM      5  C   UNL     1       0.449  10.770  20.729  0.00  0.00    +0.000 C 
ATOM      6  C   UNL     1       0.027   9.790  19.615  0.00  0.00    +0.000 C 
ATOM      7  C   UNL     1       1.321   9.000  19.180  0.00  0.00    +0.000 C 
ATOM      8  O   UNL     1       1.477  11.620  20.100  0.00  0.00    +0.000 OA
ATOM      9  C   UNL     1       0.936  12.534  19.103  0.00  0.00    +0.000 C 
ATOM     10  C   UNL     1       0.176  13.677  19.763  0.00  0.00    +0.000 C 
ATOM     11  C   UNL     1      -0.548  13.165  20.966  0.00  0.00    +0.000 A 
ATOM     12  C   UNL     1      -1.107  14.010  21.978  0.00  0.00    +0.000 A 
ATOM     13  C   UNL     1      -1.519  13.271  23.053  0.00  0.00    +0.000 A 
ATOM     14  F   UNL     1      -1.911  13.814  24.178  0.00  0.00    +0.000 F 
ATOM     15  S   UNL     1      -1.455  11.599  22.769  0.00  0.00    +0.000 S 
ATOM     16  C   UNL     1      -0.520  11.817  21.333  0.00  0.00    +0.000 A 
ENDBRANCH   1   2
BRANCH   1  17
ATOM     17  C   UNL     1       2.512   6.630  18.367  0.00  0.00    +0.000 C 
BRANCH  17  20
ATOM     18  C   UNL     1       6.098   5.498  19.018  0.00  0.00    +0.000 C 
ATOM     19  N   UNL     1       4.691   5.769  19.109  0.00  0.00    +0.000 N 
ATOM     20  C   UNL     1       4.011   6.412  18.103  0.00  0.00    +0.000 C 
ATOM     21  O   UNL     1       4.598   6.840  17.112  0.00  0.00    +0.000 OA
ATOM     22  H   UNL     1       4.143   5.369  19.872  0.00  0.00    +0.000 HD
ENDBRANCH  17  20
BRANCH  17  23
ATOM     23  C   UNL     1       1.681   5.438  17.810  0.00  0.00    +0.000 C 
BRANCH  23  24
ATOM     24  C   UNL     1       2.164   4.019  18.089  0.00  0.00    +0.000 A 
ATOM     25  C   UNL     1       3.096   3.438  17.204  0.00  0.00    +0.000 A 
ATOM     26  C   UNL     1       3.595   2.146  17.402  0.00  0.00    +0.000 A 
ATOM     27  C   UNL     1       3.179   1.397  18.494  0.00  0.00    +0.000 A 
ATOM     28  C   UNL     1       2.273   1.955  19.392  0.00  0.00    +0.000 A 
ATOM     29  C   UNL     1       1.769   3.257  19.198  0.00  0.00    +0.000 A 
ATOM     30 CL   UNL     1       0.710   3.885  20.412  0.00  0.00    +0.000 Cl
ENDBRANCH  23  24
ENDBRANCH  17  23
ENDBRANCH   1  17
TORSDOF 5
ENDMDL
MODEL 6
REMARK VINA RESULT:      -7.4      1.003      1.003
REMARK  Name = 
REMARK  6 active torsions:
REMARK  status: ('A' for Active; 'I' for Inactive)
REMARK    1  A    between atoms: C_1  and  N_2
REMARK    2  A    between atoms: C_3  and  C_5
REMARK    3  A    between atoms: C_5  and  C_6
REMARK    4  A    between atoms: C_5  and  C_14
REMARK    5  A    between atoms: C_6  and  C_7
REMARK    6  A    between atoms: C_14  and  N_15
REMARK                            x       y       z     vdW  Elec       q    Type
REMARK                         _______ _______ _______ _____ _____    ______ ____
ROOT
ATOM      1  C   UNL     1       2.488   6.942  18.061  0.00  0.00    +0.000 C 
ENDROOT
BRANCH   1   2
ATOM      2  N   UNL     1       2.244   8.247  18.717  0.00  0.00    +0.000 NA
ATOM      3  C   UNL     1       1.567   8.186  20.008  0.00  0.00    +0.000 C 
ATOM      4  C   UNL     1       1.531   9.603  20.627  0.00  0.00    +0.000 C 
ATOM      5  C   UNL     1       0.855  10.694  19.717  0.00  0.00    +0.000 C 
ATOM      6  C   UNL     1       0.365   9.955  18.456  0.00  0.00    +0.000 C 
ATOM      7  C   UNL     1       1.621   9.243  17.820  0.00  0.00    +0.000 C 
ATOM      8  O   UNL     1       1.877  11.634  19.218  0.00  0.00    +0.000 OA
ATOM      9  C   UNL     1       1.317  12.731  18.439  0.00  0.00    +0.000 C 
ATOM     10  C   UNL     1       0.612  13.738  19.340  0.00  0.00    +0.000 C 
ATOM     11  C   UNL     1      -0.074  13.014  20.453  0.00  0.00    +0.000 A 
ATOM     12  C   UNL     1      -0.571  13.657  21.633  0.00  0.00    +0.000 A 
ATOM     13  C   UNL     1      -0.956  12.732  22.563  0.00  0.00    +0.000 A 
ATOM     14  F   UNL     1      -1.289  13.053  23.788  0.00  0.00    +0.000 F 
ATOM     15  S   UNL     1      -0.943  11.145  21.961  0.00  0.00    +0.000 S 
ATOM     16  C   UNL     1      -0.063  11.620  20.554  0.00  0.00    +0.000 A 
ENDBRANCH   1   2
BRANCH   1  17
ATOM     17  C   UNL     1       2.498   5.735  19.060  0.00  0.00    +0.000 C 
BRANCH  17  20
ATOM     18  C   UNL     1       0.716   2.361  19.102  0.00  0.00    +0.000 C 
ATOM     19  N   UNL     1       1.471   3.535  19.438  0.00  0.00    +0.000 N 
ATOM     20  C   UNL     1       1.656   4.558  18.540  0.00  0.00    +0.000 C 
ATOM     21  O   UNL     1       1.234   4.478  17.389  0.00  0.00    +0.000 OA
ATOM     22  H   UNL     1       1.777   3.687  20.401  0.00  0.00    +0.000 HD
ENDBRANCH  17  20
BRANCH  17  23
ATOM     23  C   UNL     1       3.966   5.285  19.317  0.00  0.00    +0.000 C 
BRANCH  23  24
ATOM     24  C   UNL     1       4.929   5.233  18.136  0.00  0.00    +0.000 A 
ATOM     25  C   UNL     1       5.786   6.332  17.915  0.00  0.00    +0.000 A 
ATOM     26  C   UNL     1       6.705   6.351  16.861  0.00  0.00    +0.000 A 
ATOM     27  C   UNL     1       6.799   5.269  15.997  0.00  0.00    +0.000 A 
ATOM     28  C   UNL     1       5.977   4.164  16.205  0.00  0.00    +0.000 A 
ATOM     29  C   UNL     1       5.051   4.139  17.267  0.00  0.00    +0.000 A 
ATOM     30 CL   UNL     1       4.134   2.689  17.483  0.00  0.00    +0.000 Cl
ENDBRANCH  23  24
ENDBRANCH  17  23
ENDBRANCH   1  17
TORSDOF 5
ENDMDL
MODEL 7
REMARK VINA RESULT:      -7.4      1.644      1.851
REMARK  Name = 
REMARK  6 active torsions:
REMARK  status: ('A' for Active; 'I' for Inactive)
REMARK    1  A    between atoms: C_1  and  N_2
REMARK    2  A    between atoms: C_3  and  C_5
REMARK    3  A    between atoms: C_5  and  C_6
REMARK    4  A    between atoms: C_5  and  C_14
REMARK    5  A    between atoms: C_6  and  C_7
REMARK    6  A    between atoms: C_14  and  N_15
REMARK                            x       y       z     vdW  Elec       q    Type
REMARK                         _______ _______ _______ _____ _____    ______ ____
ROOT
ATOM      1  C   UNL     1       2.105   7.164  18.322  0.00  0.00    +0.000 C 
ENDROOT
BRANCH   1   2
ATOM      2  N   UNL     1       1.907   8.497  18.936  0.00  0.00    +0.000 NA
ATOM      3  C   UNL     1       1.291   8.497  20.259  0.00  0.00    +0.000 C 
ATOM      4  C   UNL     1       1.301   9.937  20.822  0.00  0.00    +0.000 C 
ATOM      5  C   UNL     1       0.596  11.000  19.902  0.00  0.00    +0.000 C 
ATOM      6  C   UNL     1       0.037  10.218  18.696  0.00  0.00    +0.000 C 
ATOM      7  C   UNL     1       1.254   9.465  18.031  0.00  0.00    +0.000 C 
ATOM      8  O   UNL     1       1.603  11.906  19.318  0.00  0.00    +0.000 OA
ATOM      9  C   UNL     1       1.019  12.978  18.523  0.00  0.00    +0.000 C 
ATOM     10  C   UNL     1       0.370  14.029  19.415  0.00  0.00    +0.000 C 
ATOM     11  C   UNL     1      -0.271  13.360  20.588  0.00  0.00    +0.000 A 
ATOM     12  C   UNL     1      -0.703  14.055  21.763  0.00  0.00    +0.000 A 
ATOM     13  C   UNL     1      -1.053  13.173  22.747  0.00  0.00    +0.000 A 
ATOM     14  F   UNL     1      -1.324  13.546  23.971  0.00  0.00    +0.000 F 
ATOM     15  S   UNL     1      -1.088  11.563  22.209  0.00  0.00    +0.000 S 
ATOM     16  C   UNL     1      -0.271  11.971  20.743  0.00  0.00    +0.000 A 
ENDBRANCH   1   2
BRANCH   1  17
ATOM     17  C   UNL     1       3.492   6.521  18.663  0.00  0.00    +0.000 C 
BRANCH  17  20
ATOM     18  C   UNL     1       2.399   3.066  17.465  0.00  0.00    +0.000 C 
ATOM     19  N   UNL     1       2.567   4.480  17.655  0.00  0.00    +0.000 N 
ATOM     20  C   UNL     1       3.443   4.986  18.584  0.00  0.00    +0.000 C 
ATOM     21  O   UNL     1       4.071   4.244  19.335  0.00  0.00    +0.000 OA
ATOM     22  H   UNL     1       2.129   5.137  17.007  0.00  0.00    +0.000 HD
ENDBRANCH  17  20
BRANCH  17  23
ATOM     23  C   UNL     1       4.577   7.084  17.700  0.00  0.00    +0.000 C 
BRANCH  23  24
ATOM     24  C   UNL     1       5.454   6.098  16.934  0.00  0.00    +0.000 A 
ATOM     25  C   UNL     1       5.139   5.820  15.587  0.00  0.00    +0.000 A 
ATOM     26  C   UNL     1       5.904   4.938  14.817  0.00  0.00    +0.000 A 
ATOM     27  C   UNL     1       7.011   4.309  15.370  0.00  0.00    +0.000 A 
ATOM     28  C   UNL     1       7.354   4.581  16.692  0.00  0.00    +0.000 A 
ATOM     29  C   UNL     1       6.587   5.471  17.471  0.00  0.00    +0.000 A 
ATOM     30 CL   UNL     1       7.143   5.798  19.076  0.00  0.00    +0.000 Cl
ENDBRANCH  23  24
ENDBRANCH  17  23
ENDBRANCH   1  17
TORSDOF 5
ENDMDL
MODEL 8
REMARK VINA RESULT:      -7.3      1.556      1.706
REMARK  Name = 
REMARK  6 active torsions:
REMARK  status: ('A' for Active; 'I' for Inactive)
REMARK    1  A    between atoms: C_1  and  N_2
REMARK    2  A    between atoms: C_3  and  C_5
REMARK    3  A    between atoms: C_5  and  C_6
REMARK    4  A    between atoms: C_5  and  C_14
REMARK    5  A    between atoms: C_6  and  C_7
REMARK    6  A    between atoms: C_14  and  N_15
REMARK                            x       y       z     vdW  Elec       q    Type
REMARK                         _______ _______ _______ _____ _____    ______ ____
ROOT
ATOM      1  C   UNL     1       2.891   6.563  17.939  0.00  0.00    +0.000 C 
ENDROOT
BRANCH   1   2
ATOM      2  N   UNL     1       2.576   7.855  18.591  0.00  0.00    +0.000 NA
ATOM      3  C   UNL     1       1.854   7.763  19.857  0.00  0.00    +0.000 C 
ATOM      4  C   UNL     1       1.744   9.175  20.479  0.00  0.00    +0.000 C 
ATOM      5  C   UNL     1       1.064  10.246  19.550  0.00  0.00    +0.000 C 
ATOM      6  C   UNL     1       0.647   9.495  18.268  0.00  0.00    +0.000 C 
ATOM      7  C   UNL     1       1.950   8.833  17.676  0.00  0.00    +0.000 C 
ATOM      8  O   UNL     1       2.068  11.224  19.092  0.00  0.00    +0.000 OA
ATOM      9  C   UNL     1       1.498  12.304  18.297  0.00  0.00    +0.000 C 
ATOM     10  C   UNL     1       0.725  13.280  19.175  0.00  0.00    +0.000 C 
ATOM     11  C   UNL     1       0.025  12.527  20.260  0.00  0.00    +0.000 A 
ATOM     12  C   UNL     1      -0.538  13.145  21.423  0.00  0.00    +0.000 A 
ATOM     13  C   UNL     1      -0.922  12.202  22.335  0.00  0.00    +0.000 A 
ATOM     14  F   UNL     1      -1.311  12.504  23.548  0.00  0.00    +0.000 F 
ATOM     15  S   UNL     1      -0.830  10.619  21.728  0.00  0.00    +0.000 S 
ATOM     16  C   UNL     1       0.083  11.133  20.355  0.00  0.00    +0.000 A 
ENDBRANCH   1   2
BRANCH   1  17
ATOM     17  C   UNL     1       2.756   5.332  18.900  0.00  0.00    +0.000 C 
BRANCH  17  20
ATOM     18  C   UNL     1       0.590   2.190  18.853  0.00  0.00    +0.000 C 
ATOM     19  N   UNL     1       1.513   3.234  19.201  0.00  0.00    +0.000 N 
ATOM     20  C   UNL     1       1.728   4.314  18.379  0.00  0.00    +0.000 C 
ATOM     21  O   UNL     1       1.184   4.395  17.281  0.00  0.00    +0.000 OA
ATOM     22  H   UNL     1       1.931   3.255  20.132  0.00  0.00    +0.000 HD
ENDBRANCH  17  20
BRANCH  17  23
ATOM     23  C   UNL     1       4.148   4.659  19.081  0.00  0.00    +0.000 C 
BRANCH  23  24
ATOM     24  C   UNL     1       5.113   4.652  17.901  0.00  0.00    +0.000 A 
ATOM     25  C   UNL     1       4.636   4.231  16.642  0.00  0.00    +0.000 A 
ATOM     26  C   UNL     1       5.458   4.211  15.511  0.00  0.00    +0.000 A 
ATOM     27  C   UNL     1       6.783   4.614  15.603  0.00  0.00    +0.000 A 
ATOM     28  C   UNL     1       7.273   5.051  16.831  0.00  0.00    +0.000 A 
ATOM     29  C   UNL     1       6.448   5.076  17.973  0.00  0.00    +0.000 A 
ATOM     30 CL   UNL     1       7.131   5.709  19.430  0.00  0.00    +0.000 Cl
ENDBRANCH  23  24
ENDBRANCH  17  23
ENDBRANCH   1  17
TORSDOF 5
ENDMDL
MODEL 9
REMARK VINA RESULT:      -7.3      1.325      1.626
REMARK  Name = 
REMARK  6 active torsions:
REMARK  status: ('A' for Active; 'I' for Inactive)
REMARK    1  A    between atoms: C_1  and  N_2
REMARK    2  A    between atoms: C_3  and  C_5
REMARK    3  A    between atoms: C_5  and  C_6
REMARK    4  A    between atoms: C_5  and  C_14
REMARK    5  A    between atoms: C_6  and  C_7
REMARK    6  A    between atoms: C_14  and  N_15
REMARK                            x       y       z     vdW  Elec       q    Type
REMARK                         _______ _______ _______ _____ _____    ______ ____
ROOT
ATOM      1  C   UNL     1       1.833   7.497  18.061  0.00  0.00    +0.000 C 
ENDROOT
BRANCH   1   2
ATOM      2  N   UNL     1       1.724   8.798  18.761  0.00  0.00    +0.000 NA
ATOM      3  C   UNL     1       1.098   8.754  20.078  0.00  0.00    +0.000 C 
ATOM      4  C   UNL     1       1.203  10.151  20.735  0.00  0.00    +0.000 C 
ATOM      5  C   UNL     1       0.581  11.319  19.884  0.00  0.00    +0.000 C 
ATOM      6  C   UNL     1      -0.020  10.657  18.626  0.00  0.00    +0.000 C 
ATOM      7  C   UNL     1       1.147   9.867  17.918  0.00  0.00    +0.000 C 
ATOM      8  O   UNL     1       1.654  12.187  19.364  0.00  0.00    +0.000 OA
ATOM      9  C   UNL     1       1.153  13.348  18.639  0.00  0.00    +0.000 C 
ATOM     10  C   UNL     1       0.571  14.381  19.595  0.00  0.00    +0.000 C 
ATOM     11  C   UNL     1      -0.125  13.683  20.719  0.00  0.00    +0.000 A 
ATOM     12  C   UNL     1      -0.519  14.329  21.935  0.00  0.00    +0.000 A 
ATOM     13  C   UNL     1      -0.938  13.410  22.858  0.00  0.00    +0.000 A 
ATOM     14  F   UNL     1      -1.193  13.722  24.103  0.00  0.00    +0.000 F 
ATOM     15  S   UNL     1      -1.080  11.846  22.215  0.00  0.00    +0.000 S 
ATOM     16  C   UNL     1      -0.223  12.290  20.783  0.00  0.00    +0.000 A 
ENDBRANCH   1   2
BRANCH   1  17
ATOM     17  C   UNL     1       2.918   6.549  18.677  0.00  0.00    +0.000 C 
BRANCH  17  20
ATOM     18  C   UNL     1       2.056   4.026  21.408  0.00  0.00    +0.000 C 
ATOM     19  N   UNL     1       2.564   5.142  20.661  0.00  0.00    +0.000 N 
ATOM     20  C   UNL     1       2.286   5.306  19.325  0.00  0.00    +0.000 C 
ATOM     21  O   UNL     1       1.643   4.465  18.702  0.00  0.00    +0.000 OA
ATOM     22  H   UNL     1       3.037   5.907  21.144  0.00  0.00    +0.000 HD
ENDBRANCH  17  20
BRANCH  17  23
ATOM     23  C   UNL     1       3.933   6.133  17.572  0.00  0.00    +0.000 C 
BRANCH  23  24
ATOM     24  C   UNL     1       5.423   6.273  17.861  0.00  0.00    +0.000 A 
ATOM     25  C   UNL     1       6.098   7.417  17.384  0.00  0.00    +0.000 A 
ATOM     26  C   UNL     1       7.461   7.622  17.621  0.00  0.00    +0.000 A 
ATOM     27  C   UNL     1       8.191   6.691  18.346  0.00  0.00    +0.000 A 
ATOM     28  C   UNL     1       7.544   5.563  18.844  0.00  0.00    +0.000 A 
ATOM     29  C   UNL     1       6.170   5.353  18.609  0.00  0.00    +0.000 A 
ATOM     30 CL   UNL     1       5.447   3.960  19.336  0.00  0.00    +0.000 Cl
ENDBRANCH  23  24
ENDBRANCH  17  23
ENDBRANCH   1  17
TORSDOF 5
ENDMDL
