MODEL 1
REMARK VINA RESULT:      -8.4      0.000      0.000
REMARK  Name = 
REMARK  9 active torsions:
REMARK  status: ('A' for Active; 'I' for Inactive)
REMARK    1  A    between atoms: C_1  and  C_2
REMARK    2  A    between atoms: C_2  and  C_3
REMARK    3  A    between atoms: C_3  and  C_4
REMARK    4  A    between atoms: C_3  and  C_6
REMARK    5  A    between atoms: C_3  and  C_13
REMARK    6  A    between atoms: C_4  and  C_5
REMARK    7  A    between atoms: C_17  and  N_18
REMARK    8  A    between atoms: N_18  and  S_19
REMARK    9  A    between atoms: S_19  and  C_20
REMARK                            x       y       z     vdW  Elec       q    Type
REMARK                         _______ _______ _______ _____ _____    ______ ____
ROOT
ATOM      1  C   UNL     1       3.618   4.150  18.211  0.00  0.00    +0.000 A 
ATOM      2  N   UNL     1       3.553   3.447  17.087  0.00  0.00    +0.000 NA
ATOM      3  N   UNL     1       4.768   3.496  16.451  0.00  0.00    +0.000 NA
ATOM      4  C   UNL     1       5.574   4.216  17.196  0.00  0.00    +0.000 A 
ATOM      5  C   UNL     1       6.937   4.582  17.050  0.00  0.00    +0.000 A 
ATOM      6  C   UNL     1       7.550   5.336  17.980  0.00  0.00    +0.000 A 
ATOM      7  C   UNL     1       6.835   5.753  19.178  0.00  0.00    +0.000 A 
ATOM      8  C   UNL     1       5.541   5.410  19.325  0.00  0.00    +0.000 A 
ATOM      9  N   UNL     1       4.911   4.645  18.341  0.00  0.00    +0.000 N 
ENDROOT
BRANCH   5  10
ATOM     10  N   UNL     1       7.654   4.334  15.850  0.00  0.00    +0.000 N 
ATOM     11  H   UNL     1       8.662   4.484  15.942  0.00  0.00    +0.000 HD
BRANCH  10  12
ATOM     12  S   UNL     1       7.113   5.192  14.491  0.00  0.00    +0.000 S 
ATOM     13  C   UNL     1       6.328   3.938  13.492  0.00  0.00    +0.000 C 
ATOM     14  O   UNL     1       6.069   6.076  14.973  0.00  0.00    +0.000 OA
ATOM     15  O   UNL     1       8.256   5.707  13.771  0.00  0.00    +0.000 OA
ENDBRANCH  10  12
ENDBRANCH   5  10
BRANCH   1  16
ATOM     16  C   UNL     1       2.439   4.406  19.167  0.00  0.00    +0.000 C 
BRANCH  16  17
ATOM     17  C   UNL     1       2.180   5.936  19.271  0.00  0.00    +0.000 A 
ATOM     18  C   UNL     1       2.322   6.808  18.175  0.00  0.00    +0.000 A 
ATOM     19  C   UNL     1       2.057   8.176  18.291  0.00  0.00    +0.000 A 
ATOM     20  C   UNL     1       1.653   8.703  19.512  0.00  0.00    +0.000 A 
ATOM     21 CL   UNL     1       1.330  10.386  19.649  0.00  0.00    +0.000 Cl
ATOM     22  C   UNL     1       1.510   7.872  20.617  0.00  0.00    +0.000 A 
ATOM     23  C   UNL     1       1.769   6.502  20.498  0.00  0.00    +0.000 A 
ENDBRANCH  16  17
BRANCH  16  25
ATOM     24  C   UNL     1       3.686   2.541  20.557  0.00  0.00    +0.000 C 
ATOM     25  C   UNL     1       2.760   3.754  20.560  0.00  0.00    +0.000 C 
ENDBRANCH  16  25
BRANCH  16  26
ATOM     26  C   UNL     1       1.153   3.726  18.561  0.00  0.00    +0.000 C 
ATOM     27  C   UNL     1       0.701   2.428  19.230  0.00  0.00    +0.000 C 
ENDBRANCH  16  26
ENDBRANCH   1  16
TORSDOF 6
ENDMDL
MODEL 2
REMARK VINA RESULT:      -7.7      0.786      1.361
REMARK  Name = 
REMARK  9 active torsions:
REMARK  status: ('A' for Active; 'I' for Inactive)
REMARK    1  A    between atoms: C_1  and  C_2
REMARK    2  A    between atoms: C_2  and  C_3
REMARK    3  A    between atoms: C_3  and  C_4
REMARK    4  A    between atoms: C_3  and  C_6
REMARK    5  A    between atoms: C_3  and  C_13
REMARK    6  A    between atoms: C_4  and  C_5
REMARK    7  A    between atoms: C_17  and  N_18
REMARK    8  A    between atoms: N_18  and  S_19
REMARK    9  A    between atoms: S_19  and  C_20
REMARK                            x       y       z     vdW  Elec       q    Type
REMARK                         _______ _______ _______ _____ _____    ______ ____
ROOT
ATOM      1  C   UNL     1       3.636   4.204  18.354  0.00  0.00    +0.000 A 
ATOM      2  N   UNL     1       3.476   3.514  17.231  0.00  0.00    +0.000 NA
ATOM      3  N   UNL     1       4.650   3.526  16.522  0.00  0.00    +0.000 NA
ATOM      4  C   UNL     1       5.526   4.208  17.220  0.00  0.00    +0.000 A 
ATOM      5  C   UNL     1       6.890   4.526  16.994  0.00  0.00    +0.000 A 
ATOM      6  C   UNL     1       7.587   5.248  17.889  0.00  0.00    +0.000 A 
ATOM      7  C   UNL     1       6.964   5.678  19.132  0.00  0.00    +0.000 A 
ATOM      8  C   UNL     1       5.669   5.381  19.357  0.00  0.00    +0.000 A 
ATOM      9  N   UNL     1       4.952   4.650  18.408  0.00  0.00    +0.000 N 
ENDROOT
BRANCH   5  10
ATOM     10  N   UNL     1       7.523   4.264  15.749  0.00  0.00    +0.000 N 
ATOM     11  H   UNL     1       8.501   4.563  15.721  0.00  0.00    +0.000 HD
BRANCH  10  12
ATOM     12  S   UNL     1       6.736   4.898  14.388  0.00  0.00    +0.000 S 
ATOM     13  C   UNL     1       8.080   5.403  13.327  0.00  0.00    +0.000 C 
ATOM     14  O   UNL     1       6.082   3.772  13.750  0.00  0.00    +0.000 OA
ATOM     15  O   UNL     1       5.991   6.074  14.778  0.00  0.00    +0.000 OA
ENDBRANCH  10  12
ENDBRANCH   5  10
BRANCH   1  16
ATOM     16  C   UNL     1       2.528   4.493  19.383  0.00  0.00    +0.000 C 
BRANCH  16  17
ATOM     17  C   UNL     1       2.200   6.013  19.377  0.00  0.00    +0.000 A 
ATOM     18  C   UNL     1       1.766   6.702  20.526  0.00  0.00    +0.000 A 
ATOM     19  C   UNL     1       1.503   8.075  20.498  0.00  0.00    +0.000 A 
ATOM     20  C   UNL     1       1.658   8.787  19.315  0.00  0.00    +0.000 A 
ATOM     21 CL   UNL     1       1.331  10.475  19.286  0.00  0.00    +0.000 Cl
ATOM     22  C   UNL     1       2.078   8.137  18.160  0.00  0.00    +0.000 A 
ATOM     23  C   UNL     1       2.347   6.764  18.190  0.00  0.00    +0.000 A 
ENDBRANCH  16  17
BRANCH  16  25
ATOM     24  C   UNL     1       1.941   3.315  21.670  0.00  0.00    +0.000 C 
ATOM     25  C   UNL     1       2.996   3.983  20.794  0.00  0.00    +0.000 C 
ENDBRANCH  16  25
BRANCH  16  26
ATOM     26  C   UNL     1       1.233   3.706  18.952  0.00  0.00    +0.000 C 
ATOM     27  C   UNL     1       1.394   2.197  18.764  0.00  0.00    +0.000 C 
ENDBRANCH  16  26
ENDBRANCH   1  16
TORSDOF 6
ENDMDL
MODEL 3
REMARK VINA RESULT:      -7.5      0.756      1.300
REMARK  Name = 
REMARK  9 active torsions:
REMARK  status: ('A' for Active; 'I' for Inactive)
REMARK    1  A    between atoms: C_1  and  C_2
REMARK    2  A    between atoms: C_2  and  C_3
REMARK    3  A    between atoms: C_3  and  C_4
REMARK    4  A    between atoms: C_3  and  C_6
REMARK    5  A    between atoms: C_3  and  C_13
REMARK    6  A    between atoms: C_4  and  C_5
REMARK    7  A    between atoms: C_17  and  N_18
REMARK    8  A    between atoms: N_18  and  S_19
REMARK    9  A    between atoms: S_19  and  C_20
REMARK                            x       y       z     vdW  Elec       q    Type
REMARK                         _______ _______ _______ _____ _____    ______ ____
ROOT
ATOM      1  C   UNL     1       3.624   4.124  18.324  0.00  0.00    +0.000 A 
ATOM      2  N   UNL     1       3.549   3.361  17.241  0.00  0.00    +0.000 NA
ATOM      3  N   UNL     1       4.754   3.384  16.586  0.00  0.00    +0.000 NA
ATOM      4  C   UNL     1       5.564   4.149  17.278  0.00  0.00    +0.000 A 
ATOM      5  C   UNL     1       6.922   4.516  17.094  0.00  0.00    +0.000 A 
ATOM      6  C   UNL     1       7.543   5.323  17.973  0.00  0.00    +0.000 A 
ATOM      7  C   UNL     1       6.842   5.799  19.156  0.00  0.00    +0.000 A 
ATOM      8  C   UNL     1       5.553   5.456  19.341  0.00  0.00    +0.000 A 
ATOM      9  N   UNL     1       4.915   4.634  18.408  0.00  0.00    +0.000 N 
ENDROOT
BRANCH   5  10
ATOM     10  N   UNL     1       7.625   4.208  15.898  0.00  0.00    +0.000 N 
ATOM     11  H   UNL     1       8.621   4.439  15.943  0.00  0.00    +0.000 HD
BRANCH  10  12
ATOM     12  S   UNL     1       6.986   4.893  14.485  0.00  0.00    +0.000 S 
ATOM     13  C   UNL     1       5.774   6.053  15.095  0.00  0.00    +0.000 C 
ATOM     14  O   UNL     1       8.064   5.664  13.898  0.00  0.00    +0.000 OA
ATOM     15  O   UNL     1       6.302   3.867  13.730  0.00  0.00    +0.000 OA
ENDBRANCH  10  12
ENDBRANCH   5  10
BRANCH   1  16
ATOM     16  C   UNL     1       2.457   4.424  19.281  0.00  0.00    +0.000 C 
BRANCH  16  17
ATOM     17  C   UNL     1       2.175   5.953  19.293  0.00  0.00    +0.000 A 
ATOM     18  C   UNL     1       1.800   6.649  20.459  0.00  0.00    +0.000 A 
ATOM     19  C   UNL     1       1.578   8.029  20.445  0.00  0.00    +0.000 A 
ATOM     20  C   UNL     1       1.718   8.743  19.261  0.00  0.00    +0.000 A 
ATOM     21 CL   UNL     1       1.442  10.440  19.251  0.00  0.00    +0.000 Cl
ATOM     22  C   UNL     1       2.080   8.087  18.091  0.00  0.00    +0.000 A 
ATOM     23  C   UNL     1       2.307   6.706  18.105  0.00  0.00    +0.000 A 
ENDBRANCH  16  17
BRANCH  16  25
ATOM     24  C   UNL     1       3.639   2.586  20.760  0.00  0.00    +0.000 C 
ATOM     25  C   UNL     1       2.809   3.865  20.707  0.00  0.00    +0.000 C 
ENDBRANCH  16  25
BRANCH  16  26
ATOM     26  C   UNL     1       1.171   3.689  18.741  0.00  0.00    +0.000 C 
ATOM     27  C   UNL     1       0.565   2.630  19.662  0.00  0.00    +0.000 C 
ENDBRANCH  16  26
ENDBRANCH   1  16
TORSDOF 6
ENDMDL
MODEL 4
REMARK VINA RESULT:      -7.5      0.840      1.033
REMARK  Name = 
REMARK  9 active torsions:
REMARK  status: ('A' for Active; 'I' for Inactive)
REMARK    1  A    between atoms: C_1  and  C_2
REMARK    2  A    between atoms: C_2  and  C_3
REMARK    3  A    between atoms: C_3  and  C_4
REMARK    4  A    between atoms: C_3  and  C_6
REMARK    5  A    between atoms: C_3  and  C_13
REMARK    6  A    between atoms: C_4  and  C_5
REMARK    7  A    between atoms: C_17  and  N_18
REMARK    8  A    between atoms: N_18  and  S_19
REMARK    9  A    between atoms: S_19  and  C_20
REMARK                            x       y       z     vdW  Elec       q    Type
REMARK                         _______ _______ _______ _____ _____    ______ ____
ROOT
ATOM      1  C   UNL     1       3.550   4.164  18.478  0.00  0.00    +0.000 A 
ATOM      2  N   UNL     1       3.383   3.429  17.385  0.00  0.00    +0.000 NA
ATOM      3  N   UNL     1       4.559   3.390  16.681  0.00  0.00    +0.000 NA
ATOM      4  C   UNL     1       5.444   4.089  17.352  0.00  0.00    +0.000 A 
ATOM      5  C   UNL     1       6.813   4.375  17.116  0.00  0.00    +0.000 A 
ATOM      6  C   UNL     1       7.519   5.125  17.981  0.00  0.00    +0.000 A 
ATOM      7  C   UNL     1       6.898   5.620  19.201  0.00  0.00    +0.000 A 
ATOM      8  C   UNL     1       5.599   5.354  19.434  0.00  0.00    +0.000 A 
ATOM      9  N   UNL     1       4.873   4.592  18.516  0.00  0.00    +0.000 N 
ENDROOT
BRANCH   5  10
ATOM     10  N   UNL     1       7.446   4.047  15.887  0.00  0.00    +0.000 N 
ATOM     11  H   UNL     1       8.464   4.136  15.920  0.00  0.00    +0.000 HD
BRANCH  10  12
ATOM     12  S   UNL     1       6.883   4.899  14.533  0.00  0.00    +0.000 S 
ATOM     13  C   UNL     1       5.766   6.103  15.232  0.00  0.00    +0.000 C 
ATOM     14  O   UNL     1       8.029   5.622  14.017  0.00  0.00    +0.000 OA
ATOM     15  O   UNL     1       6.124   4.001  13.692  0.00  0.00    +0.000 OA
ENDBRANCH  10  12
ENDBRANCH   5  10
BRANCH   1  16
ATOM     16  C   UNL     1       2.444   4.517  19.488  0.00  0.00    +0.000 C 
BRANCH  16  17
ATOM     17  C   UNL     1       2.162   6.045  19.435  0.00  0.00    +0.000 A 
ATOM     18  C   UNL     1       2.352   6.814  18.271  0.00  0.00    +0.000 A 
ATOM     19  C   UNL     1       2.065   8.182  18.245  0.00  0.00    +0.000 A 
ATOM     20  C   UNL     1       1.591   8.813  19.389  0.00  0.00    +0.000 A 
ATOM     21 CL   UNL     1       1.242  10.497  19.350  0.00  0.00    +0.000 Cl
ATOM     22  C   UNL     1       1.400   8.087  20.558  0.00  0.00    +0.000 A 
ATOM     23  C   UNL     1       1.681   6.716  20.581  0.00  0.00    +0.000 A 
ENDBRANCH  16  17
BRANCH  16  25
ATOM     24  C   UNL     1       1.874   3.216  21.712  0.00  0.00    +0.000 C 
ATOM     25  C   UNL     1       2.886   4.036  20.917  0.00  0.00    +0.000 C 
ENDBRANCH  16  25
BRANCH  16  26
ATOM     26  C   UNL     1       1.129   3.756  19.070  0.00  0.00    +0.000 C 
ATOM     27  C   UNL     1       1.270   2.254  18.825  0.00  0.00    +0.000 C 
ENDBRANCH  16  26
ENDBRANCH   1  16
TORSDOF 6
ENDMDL
MODEL 5
REMARK VINA RESULT:      -7.2      4.636      6.670
REMARK  Name = 
REMARK  9 active torsions:
REMARK  status: ('A' for Active; 'I' for Inactive)
REMARK    1  A    between atoms: C_1  and  C_2
REMARK    2  A    between atoms: C_2  and  C_3
REMARK    3  A    between atoms: C_3  and  C_4
REMARK    4  A    between atoms: C_3  and  C_6
REMARK    5  A    between atoms: C_3  and  C_13
REMARK    6  A    between atoms: C_4  and  C_5
REMARK    7  A    between atoms: C_17  and  N_18
REMARK    8  A    between atoms: N_18  and  S_19
REMARK    9  A    between atoms: S_19  and  C_20
REMARK                            x       y       z     vdW  Elec       q    Type
REMARK                         _______ _______ _______ _____ _____    ______ ____
ROOT
ATOM      1  C   UNL     1       2.539   4.676  19.685  0.00  0.00    +0.000 A 
ATOM      2  N   UNL     1       2.389   4.596  21.002  0.00  0.00    +0.000 NA
ATOM      3  N   UNL     1       2.106   5.841  21.502  0.00  0.00    +0.000 NA
ATOM      4  C   UNL     1       2.068   6.674  20.489  0.00  0.00    +0.000 A 
ATOM      5  C   UNL     1       1.804   8.065  20.405  0.00  0.00    +0.000 A 
ATOM      6  C   UNL     1       1.816   8.698  19.218  0.00  0.00    +0.000 A 
ATOM      7  C   UNL     1       2.057   7.954  17.990  0.00  0.00    +0.000 A 
ATOM      8  C   UNL     1       2.309   6.633  18.060  0.00  0.00    +0.000 A 
ATOM      9  N   UNL     1       2.314   5.994  19.301  0.00  0.00    +0.000 N 
ENDROOT
BRANCH   5  10
ATOM     10  N   UNL     1       1.701   8.879  21.565  0.00  0.00    +0.000 N 
ATOM     11  H   UNL     1       2.218   8.509  22.366  0.00  0.00    +0.000 HD
BRANCH  10  12
ATOM     12  S   UNL     1       0.119   9.225  22.069  0.00  0.00    +0.000 S 
ATOM     13  C   UNL     1      -0.386  10.546  20.981  0.00  0.00    +0.000 C 
ATOM     14  O   UNL     1      -0.669   8.057  21.725  0.00  0.00    +0.000 OA
ATOM     15  O   UNL     1       0.155   9.731  23.423  0.00  0.00    +0.000 OA
ENDBRANCH  10  12
ENDBRANCH   5  10
BRANCH   1  16
ATOM     16  C   UNL     1       2.944   3.510  18.765  0.00  0.00    +0.000 C 
BRANCH  16  17
ATOM     17  C   UNL     1       4.140   3.946  17.872  0.00  0.00    +0.000 A 
ATOM     18  C   UNL     1       4.086   3.922  16.465  0.00  0.00    +0.000 A 
ATOM     19  C   UNL     1       5.168   4.344  15.686  0.00  0.00    +0.000 A 
ATOM     20  C   UNL     1       6.332   4.791  16.300  0.00  0.00    +0.000 A 
ATOM     21 CL   UNL     1       7.660   5.308  15.336  0.00  0.00    +0.000 Cl
ATOM     22  C   UNL     1       6.422   4.821  17.686  0.00  0.00    +0.000 A 
ATOM     23  C   UNL     1       5.337   4.404  18.465  0.00  0.00    +0.000 A 
ENDBRANCH  16  17
BRANCH  16  25
ATOM     24  C   UNL     1       0.530   2.447  18.692  0.00  0.00    +0.000 C 
ATOM     25  C   UNL     1       1.693   3.066  17.924  0.00  0.00    +0.000 C 
ENDBRANCH  16  25
BRANCH  16  26
ATOM     26  C   UNL     1       3.414   2.307  19.668  0.00  0.00    +0.000 C 
ATOM     27  C   UNL     1       3.902   1.062  18.927  0.00  0.00    +0.000 C 
ENDBRANCH  16  26
ENDBRANCH   1  16
TORSDOF 6
ENDMDL
MODEL 6
REMARK VINA RESULT:      -7.1      4.867      7.190
REMARK  Name = 
REMARK  9 active torsions:
REMARK  status: ('A' for Active; 'I' for Inactive)
REMARK    1  A    between atoms: C_1  and  C_2
REMARK    2  A    between atoms: C_2  and  C_3
REMARK    3  A    between atoms: C_3  and  C_4
REMARK    4  A    between atoms: C_3  and  C_6
REMARK    5  A    between atoms: C_3  and  C_13
REMARK    6  A    between atoms: C_4  and  C_5
REMARK    7  A    between atoms: C_17  and  N_18
REMARK    8  A    between atoms: N_18  and  S_19
REMARK    9  A    between atoms: S_19  and  C_20
REMARK                            x       y       z     vdW  Elec       q    Type
REMARK                         _______ _______ _______ _____ _____    ______ ____
ROOT
ATOM      1  C   UNL     1       2.557   7.295  18.277  0.00  0.00    +0.000 A 
ATOM      2  N   UNL     1       2.632   8.114  17.235  0.00  0.00    +0.000 NA
ATOM      3  N   UNL     1       2.039   9.309  17.554  0.00  0.00    +0.000 NA
ATOM      4  C   UNL     1       1.617   9.221  18.793  0.00  0.00    +0.000 A 
ATOM      5  C   UNL     1       0.958  10.144  19.646  0.00  0.00    +0.000 A 
ATOM      6  C   UNL     1       0.635   9.807  20.907  0.00  0.00    +0.000 A 
ATOM      7  C   UNL     1       0.998   8.500  21.435  0.00  0.00    +0.000 A 
ATOM      8  C   UNL     1       1.624   7.617  20.633  0.00  0.00    +0.000 A 
ATOM      9  N   UNL     1       1.934   7.973  19.319  0.00  0.00    +0.000 N 
ENDROOT
BRANCH   5  10
ATOM     10  N   UNL     1       0.449  11.378  19.161  0.00  0.00    +0.000 N 
ATOM     11  H   UNL     1       0.622  12.164  19.793  0.00  0.00    +0.000 HD
BRANCH  10  12
ATOM     12  S   UNL     1      -1.198  11.375  18.759  0.00  0.00    +0.000 S 
ATOM     13  C   UNL     1      -1.981  12.079  20.201  0.00  0.00    +0.000 C 
ATOM     14  O   UNL     1      -1.343  12.333  17.680  0.00  0.00    +0.000 OA
ATOM     15  O   UNL     1      -1.647  10.009  18.613  0.00  0.00    +0.000 OA
ENDBRANCH  10  12
ENDBRANCH   5  10
BRANCH   1  16
ATOM     16  C   UNL     1       3.035   5.832  18.293  0.00  0.00    +0.000 C 
BRANCH  16  17
ATOM     17  C   UNL     1       4.082   5.617  17.163  0.00  0.00    +0.000 A 
ATOM     18  C   UNL     1       4.947   6.638  16.723  0.00  0.00    +0.000 A 
ATOM     19  C   UNL     1       5.897   6.408  15.722  0.00  0.00    +0.000 A 
ATOM     20  C   UNL     1       5.994   5.154  15.132  0.00  0.00    +0.000 A 
ATOM     21 CL   UNL     1       7.162   4.879  13.901  0.00  0.00    +0.000 Cl
ATOM     22  C   UNL     1       5.150   4.126  15.537  0.00  0.00    +0.000 A 
ATOM     23  C   UNL     1       4.204   4.354  16.543  0.00  0.00    +0.000 A 
ENDBRANCH  16  17
BRANCH  16  25
ATOM     24  C   UNL     1       1.410   4.053  19.368  0.00  0.00    +0.000 C 
ATOM     25  C   UNL     1       1.789   4.886  18.147  0.00  0.00    +0.000 C 
ENDBRANCH  16  25
BRANCH  16  26
ATOM     26  C   UNL     1       3.737   5.555  19.677  0.00  0.00    +0.000 C 
ATOM     27  C   UNL     1       5.086   4.838  19.614  0.00  0.00    +0.000 C 
ENDBRANCH  16  26
ENDBRANCH   1  16
TORSDOF 6
ENDMDL
MODEL 7
REMARK VINA RESULT:      -7.1      4.695      6.982
REMARK  Name = 
REMARK  9 active torsions:
REMARK  status: ('A' for Active; 'I' for Inactive)
REMARK    1  A    between atoms: C_1  and  C_2
REMARK    2  A    between atoms: C_2  and  C_3
REMARK    3  A    between atoms: C_3  and  C_4
REMARK    4  A    between atoms: C_3  and  C_6
REMARK    5  A    between atoms: C_3  and  C_13
REMARK    6  A    between atoms: C_4  and  C_5
REMARK    7  A    between atoms: C_17  and  N_18
REMARK    8  A    between atoms: N_18  and  S_19
REMARK    9  A    between atoms: S_19  and  C_20
REMARK                            x       y       z     vdW  Elec       q    Type
REMARK                         _______ _______ _______ _____ _____    ______ ____
ROOT
ATOM      1  C   UNL     1       2.613   7.231  18.292  0.00  0.00    +0.000 A 
ATOM      2  N   UNL     1       2.716   8.075  17.272  0.00  0.00    +0.000 NA
ATOM      3  N   UNL     1       2.113   9.261  17.603  0.00  0.00    +0.000 NA
ATOM      4  C   UNL     1       1.657   9.144  18.828  0.00  0.00    +0.000 A 
ATOM      5  C   UNL     1       0.974  10.046  19.684  0.00  0.00    +0.000 A 
ATOM      6  C   UNL     1       0.617   9.678  20.927  0.00  0.00    +0.000 A 
ATOM      7  C   UNL     1       0.966   8.359  21.433  0.00  0.00    +0.000 A 
ATOM      8  C   UNL     1       1.615   7.495  20.628  0.00  0.00    +0.000 A 
ATOM      9  N   UNL     1       1.960   7.884  19.332  0.00  0.00    +0.000 N 
ENDROOT
BRANCH   5  10
ATOM     10  N   UNL     1       0.478  11.292  19.216  0.00  0.00    +0.000 N 
ATOM     11  H   UNL     1       0.177  11.266  18.238  0.00  0.00    +0.000 HD
BRANCH  10  12
ATOM     12  S   UNL     1       1.526  12.610  19.412  0.00  0.00    +0.000 S 
ATOM     13  C   UNL     1       0.484  14.023  19.091  0.00  0.00    +0.000 C 
ATOM     14  O   UNL     1       1.867  12.636  20.821  0.00  0.00    +0.000 OA
ATOM     15  O   UNL     1       2.552  12.553  18.395  0.00  0.00    +0.000 OA
ENDBRANCH  10  12
ENDBRANCH   5  10
BRANCH   1  16
ATOM     16  C   UNL     1       3.092   5.768  18.285  0.00  0.00    +0.000 C 
BRANCH  16  17
ATOM     17  C   UNL     1       4.113   5.562  17.130  0.00  0.00    +0.000 A 
ATOM     18  C   UNL     1       4.895   6.611  16.611  0.00  0.00    +0.000 A 
ATOM     19  C   UNL     1       5.824   6.392  15.589  0.00  0.00    +0.000 A 
ATOM     20  C   UNL     1       5.983   5.117  15.058  0.00  0.00    +0.000 A 
ATOM     21 CL   UNL     1       7.127   4.855  13.801  0.00  0.00    +0.000 Cl
ATOM     22  C   UNL     1       5.221   4.061  15.542  0.00  0.00    +0.000 A 
ATOM     23  C   UNL     1       4.296   4.279  16.568  0.00  0.00    +0.000 A 
ENDBRANCH  16  17
BRANCH  16  25
ATOM     24  C   UNL     1       1.615   3.828  19.295  0.00  0.00    +0.000 C 
ATOM     25  C   UNL     1       1.843   4.822  18.160  0.00  0.00    +0.000 C 
ENDBRANCH  16  25
BRANCH  16  26
ATOM     26  C   UNL     1       3.824   5.480  19.651  0.00  0.00    +0.000 C 
ATOM     27  C   UNL     1       5.283   5.034  19.550  0.00  0.00    +0.000 C 
ENDBRANCH  16  26
ENDBRANCH   1  16
TORSDOF 6
ENDMDL
MODEL 8
REMARK VINA RESULT:      -7.1      4.507      6.646
REMARK  Name = 
REMARK  9 active torsions:
REMARK  status: ('A' for Active; 'I' for Inactive)
REMARK    1  A    between atoms: C_1  and  C_2
REMARK    2  A    between atoms: C_2  and  C_3
REMARK    3  A    between atoms: C_3  and  C_4
REMARK    4  A    between atoms: C_3  and  C_6
REMARK    5  A    between atoms: C_3  and  C_13
REMARK    6  A    between atoms: C_4  and  C_5
REMARK    7  A    between atoms: C_17  and  N_18
REMARK    8  A    between atoms: N_18  and  S_19
REMARK    9  A    between atoms: S_19  and  C_20
REMARK                            x       y       z     vdW  Elec       q    Type
REMARK                         _______ _______ _______ _____ _____    ______ ____
ROOT
ATOM      1  C   UNL     1       2.631   4.527  19.618  0.00  0.00    +0.000 A 
ATOM      2  N   UNL     1       2.408   4.408  20.922  0.00  0.00    +0.000 NA
ATOM      3  N   UNL     1       2.089   5.637  21.440  0.00  0.00    +0.000 NA
ATOM      4  C   UNL     1       2.103   6.499  20.451  0.00  0.00    +0.000 A 
ATOM      5  C   UNL     1       1.835   7.891  20.392  0.00  0.00    +0.000 A 
ATOM      6  C   UNL     1       1.909   8.558  19.226  0.00  0.00    +0.000 A 
ATOM      7  C   UNL     1       2.224   7.851  17.993  0.00  0.00    +0.000 A 
ATOM      8  C   UNL     1       2.480   6.529  18.039  0.00  0.00    +0.000 A 
ATOM      9  N   UNL     1       2.420   5.854  19.260  0.00  0.00    +0.000 N 
ENDROOT
BRANCH   5  10
ATOM     10  N   UNL     1       1.661   8.670  21.567  0.00  0.00    +0.000 N 
ATOM     11  H   UNL     1       1.524   8.107  22.410  0.00  0.00    +0.000 HD
BRANCH  10  12
ATOM     12  S   UNL     1       0.422   9.825  21.494  0.00  0.00    +0.000 S 
ATOM     13  C   UNL     1      -0.332   9.730  23.109  0.00  0.00    +0.000 C 
ATOM     14  O   UNL     1       1.085  11.111  21.403  0.00  0.00    +0.000 OA
ATOM     15  O   UNL     1      -0.551   9.413  20.507  0.00  0.00    +0.000 OA
ENDBRANCH  10  12
ENDBRANCH   5  10
BRANCH   1  16
ATOM     16  C   UNL     1       3.095   3.391  18.690  0.00  0.00    +0.000 C 
BRANCH  16  17
ATOM     17  C   UNL     1       4.271   3.892  17.805  0.00  0.00    +0.000 A 
ATOM     18  C   UNL     1       5.489   4.348  18.345  0.00  0.00    +0.000 A 
ATOM     19  C   UNL     1       6.540   4.768  17.524  0.00  0.00    +0.000 A 
ATOM     20  C   UNL     1       6.389   4.752  16.142  0.00  0.00    +0.000 A 
ATOM     21 CL   UNL     1       7.685   5.272  15.138  0.00  0.00    +0.000 Cl
ATOM     22  C   UNL     1       5.198   4.316  15.575  0.00  0.00    +0.000 A 
ATOM     23  C   UNL     1       4.149   3.889  16.398  0.00  0.00    +0.000 A 
ENDBRANCH  16  17
BRANCH  16  25
ATOM     24  C   UNL     1       0.644   2.415  18.611  0.00  0.00    +0.000 C 
ATOM     25  C   UNL     1       1.870   2.894  17.840  0.00  0.00    +0.000 C 
ENDBRANCH  16  25
BRANCH  16  26
ATOM     26  C   UNL     1       3.620   2.203  19.584  0.00  0.00    +0.000 C 
ATOM     27  C   UNL     1       4.025   0.931  18.840  0.00  0.00    +0.000 C 
ENDBRANCH  16  26
ENDBRANCH   1  16
TORSDOF 6
ENDMDL
MODEL 9
REMARK VINA RESULT:      -7.0      4.649      6.797
REMARK  Name = 
REMARK  9 active torsions:
REMARK  status: ('A' for Active; 'I' for Inactive)
REMARK    1  A    between atoms: C_1  and  C_2
REMARK    2  A    between atoms: C_2  and  C_3
REMARK    3  A    between atoms: C_3  and  C_4
REMARK    4  A    between atoms: C_3  and  C_6
REMARK    5  A    between atoms: C_3  and  C_13
REMARK    6  A    between atoms: C_4  and  C_5
REMARK    7  A    between atoms: C_17  and  N_18
REMARK    8  A    between atoms: N_18  and  S_19
REMARK    9  A    between atoms: S_19  and  C_20
REMARK                            x       y       z     vdW  Elec       q    Type
REMARK                         _______ _______ _______ _____ _____    ______ ____
ROOT
ATOM      1  C   UNL     1       2.222   5.422  19.715  0.00  0.00    +0.000 A 
ATOM      2  N   UNL     1       1.842   5.545  20.981  0.00  0.00    +0.000 NA
ATOM      3  N   UNL     1       1.553   6.860  21.241  0.00  0.00    +0.000 NA
ATOM      4  C   UNL     1       1.743   7.533  20.131  0.00  0.00    +0.000 A 
ATOM      5  C   UNL     1       1.582   8.905  19.805  0.00  0.00    +0.000 A 
ATOM      6  C   UNL     1       1.838   9.352  18.563  0.00  0.00    +0.000 A 
ATOM      7  C   UNL     1       2.242   8.425  17.516  0.00  0.00    +0.000 A 
ATOM      8  C   UNL     1       2.397   7.121  17.815  0.00  0.00    +0.000 A 
ATOM      9  N   UNL     1       2.149   6.675  19.115  0.00  0.00    +0.000 N 
ENDROOT
BRANCH   5  10
ATOM     10  N   UNL     1       1.329   9.886  20.801  0.00  0.00    +0.000 N 
ATOM     11  H   UNL     1       1.855   9.730  21.665  0.00  0.00    +0.000 HD
BRANCH  10  12
ATOM     12  S   UNL     1      -0.303  10.105  21.205  0.00  0.00    +0.000 S 
ATOM     13  C   UNL     1      -0.352  11.767  21.853  0.00  0.00    +0.000 C 
ATOM     14  O   UNL     1      -1.023  10.111  19.947  0.00  0.00    +0.000 OA
ATOM     15  O   UNL     1      -0.655   9.187  22.265  0.00  0.00    +0.000 OA
ENDBRANCH  10  12
ENDBRANCH   5  10
BRANCH   1  16
ATOM     16  C   UNL     1       2.708   4.119  19.057  0.00  0.00    +0.000 C 
BRANCH  16  17
ATOM     17  C   UNL     1       3.961   4.415  18.183  0.00  0.00    +0.000 A 
ATOM     18  C   UNL     1       5.099   5.075  18.684  0.00  0.00    +0.000 A 
ATOM     19  C   UNL     1       6.221   5.304  17.883  0.00  0.00    +0.000 A 
ATOM     20  C   UNL     1       6.224   4.888  16.557  0.00  0.00    +0.000 A 
ATOM     21 CL   UNL     1       7.607   5.175  15.576  0.00  0.00    +0.000 Cl
ATOM     22  C   UNL     1       5.114   4.241  16.027  0.00  0.00    +0.000 A 
ATOM     23  C   UNL     1       3.994   4.005  16.832  0.00  0.00    +0.000 A 
ENDBRANCH  16  17
BRANCH  16  25
ATOM     24  C   UNL     1       0.672   2.445  18.927  0.00  0.00    +0.000 C 
ATOM     25  C   UNL     1       1.529   3.495  18.226  0.00  0.00    +0.000 C 
ENDBRANCH  16  25
BRANCH  16  26
ATOM     26  C   UNL     1       3.127   3.113  20.197  0.00  0.00    +0.000 C 
ATOM     27  C   UNL     1       4.205   2.093  19.830  0.00  0.00    +0.000 C 
ENDBRANCH  16  26
ENDBRANCH   1  16
TORSDOF 6
ENDMDL
