MODEL 1
REMARK VINA RESULT:      -7.9      0.000      0.000
REMARK  Name = 
REMARK  4 active torsions:
REMARK  status: ('A' for Active; 'I' for Inactive)
REMARK    1  A    between atoms: C_1  and  N_2
REMARK    2  A    between atoms: C_6  and  N_7
REMARK    3  A    between atoms: C_8  and  C_10
REMARK    4  A    between atoms: C_10  and  N_11
REMARK                            x       y       z     vdW  Elec       q    Type
REMARK                         _______ _______ _______ _____ _____    ______ ____
ROOT
ATOM      1  N   UNL     1       2.406   6.424  20.449  0.00  0.00    +0.000 N 
ATOM      2  C   UNL     1       1.911   5.130  20.365  0.00  0.00    +0.000 C 
ATOM      3  O   UNL     1       0.728   4.823  20.517  0.00  0.00    +0.000 OA
ATOM      4  H   UNL     1       3.327   6.589  20.064  0.00  0.00    +0.000 HD
ENDROOT
BRANCH   1  10
ATOM      5  C   UNL     1       0.051  11.637  18.403  0.00  0.00    +0.000 C 
ATOM      6  N   UNL     1       0.810  10.432  18.657  0.00  0.00    +0.000 N 
ATOM      7  C   UNL     1       1.703   9.873  17.781  0.00  0.00    +0.000 A 
ATOM      8  C   UNL     1       2.179   8.713  18.350  0.00  0.00    +0.000 A 
ATOM      9  C   UNL     1       1.554   8.558  19.623  0.00  0.00    +0.000 A 
ATOM     10  C   UNL     1       1.579   7.551  20.618  0.00  0.00    +0.000 A 
ATOM     11  C   UNL     1       0.776   7.701  21.758  0.00  0.00    +0.000 A 
ATOM     12  C   UNL     1      -0.033   8.822  21.921  0.00  0.00    +0.000 A 
ATOM     13  C   UNL     1      -0.092   9.813  20.939  0.00  0.00    +0.000 A 
ATOM     14  C   UNL     1       0.701   9.655  19.792  0.00  0.00    +0.000 A 
ENDBRANCH   1  10
BRANCH   2  15
ATOM     15  C   UNL     1       2.976   4.050  20.172  0.00  0.00    +0.000 C 
BRANCH  15  16
ATOM     16  N   UNL     1       4.011   4.425  19.209  0.00  0.00    +0.000 N 
ATOM     17  N   UNL     1       5.066   5.158  19.709  0.00  0.00    +0.000 NA
ATOM     18  C   UNL     1       6.007   5.481  18.884  0.00  0.00    +0.000 A 
ATOM     19  C   UNL     1       6.043   5.143  17.453  0.00  0.00    +0.000 A 
ATOM     20  C   UNL     1       4.990   4.470  16.970  0.00  0.00    +0.000 A 
ATOM     21  C   UNL     1       3.899   4.029  17.884  0.00  0.00    +0.000 A 
ATOM     22  O   UNL     1       3.004   3.304  17.469  0.00  0.00    +0.000 OA
ATOM     23  C   UNL     1       4.859   4.111  15.516  0.00  0.00    +0.000 C 
ATOM     24  C   UNL     1       5.859   4.865  14.634  0.00  0.00    +0.000 C 
ATOM     25  C   UNL     1       7.250   4.866  15.265  0.00  0.00    +0.000 C 
ATOM     26  C   UNL     1       7.230   5.546  16.637  0.00  0.00    +0.000 C 
ENDBRANCH  15  16
ENDBRANCH   2  15
TORSDOF 3
ENDMDL
MODEL 2
REMARK VINA RESULT:      -7.7      1.018      1.667
REMARK  Name = 
REMARK  4 active torsions:
REMARK  status: ('A' for Active; 'I' for Inactive)
REMARK    1  A    between atoms: C_1  and  N_2
REMARK    2  A    between atoms: C_6  and  N_7
REMARK    3  A    between atoms: C_8  and  C_10
REMARK    4  A    between atoms: C_10  and  N_11
REMARK                            x       y       z     vdW  Elec       q    Type
REMARK                         _______ _______ _______ _____ _____    ______ ____
ROOT
ATOM      1  N   UNL     1       2.337   6.595  20.626  0.00  0.00    +0.000 N 
ATOM      2  C   UNL     1       1.868   5.298  20.469  0.00  0.00    +0.000 C 
ATOM      3  O   UNL     1       0.680   4.975  20.507  0.00  0.00    +0.000 OA
ATOM      4  H   UNL     1       3.287   6.779  20.329  0.00  0.00    +0.000 HD
ENDROOT
BRANCH   1  10
ATOM      5  C   UNL     1      -0.131  11.655  18.343  0.00  0.00    +0.000 C 
ATOM      6  N   UNL     1       0.655  10.481  18.652  0.00  0.00    +0.000 N 
ATOM      7  C   UNL     1       1.562   9.903  17.804  0.00  0.00    +0.000 A 
ATOM      8  C   UNL     1       2.063   8.781  18.425  0.00  0.00    +0.000 A 
ATOM      9  C   UNL     1       1.439   8.669  19.702  0.00  0.00    +0.000 A 
ATOM     10  C   UNL     1       1.484   7.709  20.741  0.00  0.00    +0.000 A 
ATOM     11  C   UNL     1       0.674   7.891  21.873  0.00  0.00    +0.000 A 
ATOM     12  C   UNL     1      -0.160   9.000  21.983  0.00  0.00    +0.000 A 
ATOM     13  C   UNL     1      -0.240   9.945  20.958  0.00  0.00    +0.000 A 
ATOM     14  C   UNL     1       0.560   9.753  19.821  0.00  0.00    +0.000 A 
ENDBRANCH   1  10
BRANCH   2  15
ATOM     15  C   UNL     1       2.960   4.234  20.351  0.00  0.00    +0.000 C 
BRANCH  15  16
ATOM     16  N   UNL     1       3.603   4.209  19.038  0.00  0.00    +0.000 N 
ATOM     17  N   UNL     1       2.903   3.576  18.033  0.00  0.00    +0.000 NA
ATOM     18  C   UNL     1       3.438   3.560  16.857  0.00  0.00    +0.000 A 
ATOM     19  C   UNL     1       4.737   4.150  16.500  0.00  0.00    +0.000 A 
ATOM     20  C   UNL     1       5.428   4.722  17.495  0.00  0.00    +0.000 A 
ATOM     21  C   UNL     1       4.840   4.813  18.861  0.00  0.00    +0.000 A 
ATOM     22  O   UNL     1       5.413   5.447  19.737  0.00  0.00    +0.000 OA
ATOM     23  C   UNL     1       6.797   5.309  17.294  0.00  0.00    +0.000 C 
ATOM     24  C   UNL     1       7.422   4.895  15.958  0.00  0.00    +0.000 C 
ATOM     25  C   UNL     1       6.405   5.003  14.823  0.00  0.00    +0.000 C 
ATOM     26  C   UNL     1       5.199   4.094  15.079  0.00  0.00    +0.000 C 
ENDBRANCH  15  16
ENDBRANCH   2  15
TORSDOF 3
ENDMDL
MODEL 3
REMARK VINA RESULT:      -7.5      1.088      2.094
REMARK  Name = 
REMARK  4 active torsions:
REMARK  status: ('A' for Active; 'I' for Inactive)
REMARK    1  A    between atoms: C_1  and  N_2
REMARK    2  A    between atoms: C_6  and  N_7
REMARK    3  A    between atoms: C_8  and  C_10
REMARK    4  A    between atoms: C_10  and  N_11
REMARK                            x       y       z     vdW  Elec       q    Type
REMARK                         _______ _______ _______ _____ _____    ______ ____
ROOT
ATOM      1  N   UNL     1       2.505   7.129  19.871  0.00  0.00    +0.000 N 
ATOM      2  C   UNL     1       2.023   5.866  20.186  0.00  0.00    +0.000 C 
ATOM      3  O   UNL     1       0.846   5.611  20.442  0.00  0.00    +0.000 OA
ATOM      4  H   UNL     1       3.420   7.177  19.439  0.00  0.00    +0.000 HD
ENDROOT
BRANCH   1  10
ATOM      5  C   UNL     1      -0.939  11.572  22.173  0.00  0.00    +0.000 C 
ATOM      6  N   UNL     1      -0.139  10.397  21.910  0.00  0.00    +0.000 N 
ATOM      7  C   UNL     1       0.376   9.571  22.873  0.00  0.00    +0.000 A 
ATOM      8  C   UNL     1       1.122   8.601  22.241  0.00  0.00    +0.000 A 
ATOM      9  C   UNL     1       1.060   8.843  20.837  0.00  0.00    +0.000 A 
ATOM     10  C   UNL     1       1.668   8.249  19.705  0.00  0.00    +0.000 A 
ATOM     11  C   UNL     1       1.419   8.790  18.435  0.00  0.00    +0.000 A 
ATOM     12  C   UNL     1       0.584   9.893  18.279  0.00  0.00    +0.000 A 
ATOM     13  C   UNL     1      -0.004  10.511  19.385  0.00  0.00    +0.000 A 
ATOM     14  C   UNL     1       0.257   9.977  20.656  0.00  0.00    +0.000 A 
ENDBRANCH   1  10
BRANCH   2  15
ATOM     15  C   UNL     1       3.098   4.785  20.310  0.00  0.00    +0.000 C 
BRANCH  15  16
ATOM     16  N   UNL     1       4.127   4.872  19.275  0.00  0.00    +0.000 N 
ATOM     17  N   UNL     1       5.345   5.379  19.673  0.00  0.00    +0.000 NA
ATOM     18  C   UNL     1       6.280   5.444  18.783  0.00  0.00    +0.000 A 
ATOM     19  C   UNL     1       6.152   5.033  17.377  0.00  0.00    +0.000 A 
ATOM     20  C   UNL     1       4.951   4.586  16.991  0.00  0.00    +0.000 A 
ATOM     21  C   UNL     1       3.849   4.443  17.985  0.00  0.00    +0.000 A 
ATOM     22  O   UNL     1       2.793   3.914  17.662  0.00  0.00    +0.000 OA
ATOM     23  C   UNL     1       4.654   4.191  15.572  0.00  0.00    +0.000 C 
ATOM     24  C   UNL     1       5.737   4.659  14.594  0.00  0.00    +0.000 C 
ATOM     25  C   UNL     1       7.131   4.385  15.154  0.00  0.00    +0.000 C 
ATOM     26  C   UNL     1       7.345   5.122  16.479  0.00  0.00    +0.000 C 
ENDBRANCH  15  16
ENDBRANCH   2  15
TORSDOF 3
ENDMDL
MODEL 4
REMARK VINA RESULT:      -7.4      2.819      4.803
REMARK  Name = 
REMARK  4 active torsions:
REMARK  status: ('A' for Active; 'I' for Inactive)
REMARK    1  A    between atoms: C_1  and  N_2
REMARK    2  A    between atoms: C_6  and  N_7
REMARK    3  A    between atoms: C_8  and  C_10
REMARK    4  A    between atoms: C_10  and  N_11
REMARK                            x       y       z     vdW  Elec       q    Type
REMARK                         _______ _______ _______ _____ _____    ______ ____
ROOT
ATOM      1  N   UNL     1       0.407   9.262  18.334  0.00  0.00    +0.000 N 
ATOM      2  C   UNL     1       1.700   9.685  18.062  0.00  0.00    +0.000 C 
ATOM      3  O   UNL     1       2.042  10.864  17.956  0.00  0.00    +0.000 OA
ATOM      4  H   UNL     1       0.292   8.306  18.644  0.00  0.00    +0.000 HD
ENDROOT
BRANCH   1  10
ATOM      5  C   UNL     1      -4.890  11.872  16.906  0.00  0.00    +0.000 C 
ATOM      6  N   UNL     1      -3.629  11.165  16.949  0.00  0.00    +0.000 N 
ATOM      7  C   UNL     1      -3.180  10.310  15.978  0.00  0.00    +0.000 A 
ATOM      8  C   UNL     1      -1.976   9.791  16.399  0.00  0.00    +0.000 A 
ATOM      9  C   UNL     1      -1.678  10.351  17.676  0.00  0.00    +0.000 A 
ATOM     10  C   UNL     1      -0.646  10.152  18.624  0.00  0.00    +0.000 A 
ATOM     11  C   UNL     1      -0.692  10.852  19.839  0.00  0.00    +0.000 A 
ATOM     12  C   UNL     1      -1.731  11.736  20.116  0.00  0.00    +0.000 A 
ATOM     13  C   UNL     1      -2.773  11.926  19.206  0.00  0.00    +0.000 A 
ATOM     14  C   UNL     1      -2.733  11.214  17.997  0.00  0.00    +0.000 A 
ENDBRANCH   1  10
BRANCH   2  15
ATOM     15  C   UNL     1       2.695   8.559  17.783  0.00  0.00    +0.000 C 
BRANCH  15  16
ATOM     16  N   UNL     1       2.543   7.417  18.683  0.00  0.00    +0.000 N 
ATOM     17  N   UNL     1       1.898   7.667  19.875  0.00  0.00    +0.000 NA
ATOM     18  C   UNL     1       1.729   6.668  20.678  0.00  0.00    +0.000 A 
ATOM     19  C   UNL     1       2.177   5.289  20.434  0.00  0.00    +0.000 A 
ATOM     20  C   UNL     1       2.842   5.069  19.293  0.00  0.00    +0.000 A 
ATOM     21  C   UNL     1       3.024   6.171  18.307  0.00  0.00    +0.000 A 
ATOM     22  O   UNL     1       3.517   5.940  17.210  0.00  0.00    +0.000 OA
ATOM     23  C   UNL     1       3.415   3.725  18.939  0.00  0.00    +0.000 C 
ATOM     24  C   UNL     1       3.441   2.765  20.133  0.00  0.00    +0.000 C 
ATOM     25  C   UNL     1       2.124   2.819  20.905  0.00  0.00    +0.000 C 
ATOM     26  C   UNL     1       1.860   4.230  21.442  0.00  0.00    +0.000 C 
ENDBRANCH  15  16
ENDBRANCH   2  15
TORSDOF 3
ENDMDL
MODEL 5
REMARK VINA RESULT:      -7.3      2.681      4.676
REMARK  Name = 
REMARK  4 active torsions:
REMARK  status: ('A' for Active; 'I' for Inactive)
REMARK    1  A    between atoms: C_1  and  N_2
REMARK    2  A    between atoms: C_6  and  N_7
REMARK    3  A    between atoms: C_8  and  C_10
REMARK    4  A    between atoms: C_10  and  N_11
REMARK                            x       y       z     vdW  Elec       q    Type
REMARK                         _______ _______ _______ _____ _____    ______ ____
ROOT
ATOM      1  N   UNL     1       0.510   9.239  18.097  0.00  0.00    +0.000 N 
ATOM      2  C   UNL     1       1.850   9.592  18.024  0.00  0.00    +0.000 C 
ATOM      3  O   UNL     1       2.277  10.742  18.133  0.00  0.00    +0.000 OA
ATOM      4  H   UNL     1       0.301   8.260  18.245  0.00  0.00    +0.000 HD
ENDROOT
BRANCH   1  10
ATOM      5  C   UNL     1      -2.311  12.891  22.048  0.00  0.00    +0.000 C 
ATOM      6  N   UNL     1      -1.506  11.905  21.360  0.00  0.00    +0.000 N 
ATOM      7  C   UNL     1      -0.467  11.214  21.925  0.00  0.00    +0.000 A 
ATOM      8  C   UNL     1       0.085  10.415  20.949  0.00  0.00    +0.000 A 
ATOM      9  C   UNL     1      -0.645  10.624  19.742  0.00  0.00    +0.000 A 
ATOM     10  C   UNL     1      -0.508  10.159  18.413  0.00  0.00    +0.000 A 
ATOM     11  C   UNL     1      -1.398  10.624  17.433  0.00  0.00    +0.000 A 
ATOM     12  C   UNL     1      -2.407  11.527  17.755  0.00  0.00    +0.000 A 
ATOM     13  C   UNL     1      -2.543  12.020  19.054  0.00  0.00    +0.000 A 
ATOM     14  C   UNL     1      -1.643  11.564  20.030  0.00  0.00    +0.000 A 
ENDBRANCH   1  10
BRANCH   2  15
ATOM     15  C   UNL     1       2.796   8.442  17.677  0.00  0.00    +0.000 C 
BRANCH  15  16
ATOM     16  N   UNL     1       2.679   7.303  18.588  0.00  0.00    +0.000 N 
ATOM     17  N   UNL     1       2.007   7.538  19.768  0.00  0.00    +0.000 NA
ATOM     18  C   UNL     1       1.869   6.542  20.580  0.00  0.00    +0.000 A 
ATOM     19  C   UNL     1       2.378   5.180  20.357  0.00  0.00    +0.000 A 
ATOM     20  C   UNL     1       3.070   4.976  19.229  0.00  0.00    +0.000 A 
ATOM     21  C   UNL     1       3.219   6.075  18.233  0.00  0.00    +0.000 A 
ATOM     22  O   UNL     1       3.737   5.854  17.145  0.00  0.00    +0.000 OA
ATOM     23  C   UNL     1       3.703   3.655  18.897  0.00  0.00    +0.000 C 
ATOM     24  C   UNL     1       3.753   2.710  20.102  0.00  0.00    +0.000 C 
ATOM     25  C   UNL     1       2.424   2.716  20.854  0.00  0.00    +0.000 C 
ATOM     26  C   UNL     1       2.092   4.119  21.372  0.00  0.00    +0.000 C 
ENDBRANCH  15  16
ENDBRANCH   2  15
TORSDOF 3
ENDMDL
MODEL 6
REMARK VINA RESULT:      -7.3      2.656      4.732
REMARK  Name = 
REMARK  4 active torsions:
REMARK  status: ('A' for Active; 'I' for Inactive)
REMARK    1  A    between atoms: C_1  and  N_2
REMARK    2  A    between atoms: C_6  and  N_7
REMARK    3  A    between atoms: C_8  and  C_10
REMARK    4  A    between atoms: C_10  and  N_11
REMARK                            x       y       z     vdW  Elec       q    Type
REMARK                         _______ _______ _______ _____ _____    ______ ____
ROOT
ATOM      1  N   UNL     1       1.454  10.156  19.368  0.00  0.00    +0.000 N 
ATOM      2  C   UNL     1       1.362   9.350  18.242  0.00  0.00    +0.000 C 
ATOM      3  O   UNL     1       0.379   9.292  17.502  0.00  0.00    +0.000 OA
ATOM      4  H   UNL     1       2.379  10.311  19.747  0.00  0.00    +0.000 HD
ENDROOT
BRANCH   1  10
ATOM      5  C   UNL     1      -2.572  12.342  23.358  0.00  0.00    +0.000 C 
ATOM      6  N   UNL     1      -1.611  11.576  22.595  0.00  0.00    +0.000 N 
ATOM      7  C   UNL     1      -0.964  10.458  23.052  0.00  0.00    +0.000 A 
ATOM      8  C   UNL     1      -0.093  10.046  22.068  0.00  0.00    +0.000 A 
ATOM      9  C   UNL     1      -0.214  10.945  20.968  0.00  0.00    +0.000 A 
ATOM     10  C   UNL     1       0.457  11.083  19.729  0.00  0.00    +0.000 A 
ATOM     11  C   UNL     1       0.111  12.146  18.882  0.00  0.00    +0.000 A 
ATOM     12  C   UNL     1      -0.880  13.054  19.243  0.00  0.00    +0.000 A 
ATOM     13  C   UNL     1      -1.536  12.951  20.472  0.00  0.00    +0.000 A 
ATOM     14  C   UNL     1      -1.178  11.896  21.324  0.00  0.00    +0.000 A 
ENDBRANCH   1  10
BRANCH   2  15
ATOM     15  C   UNL     1       2.556   8.420  18.023  0.00  0.00    +0.000 C 
BRANCH  15  16
ATOM     16  N   UNL     1       2.514   7.220  18.859  0.00  0.00    +0.000 N 
ATOM     17  N   UNL     1       1.814   7.329  20.041  0.00  0.00    +0.000 NA
ATOM     18  C   UNL     1       1.741   6.276  20.786  0.00  0.00    +0.000 A 
ATOM     19  C   UNL     1       2.352   4.973  20.487  0.00  0.00    +0.000 A 
ATOM     20  C   UNL     1       3.069   4.892  19.358  0.00  0.00    +0.000 A 
ATOM     21  C   UNL     1       3.147   6.060  18.436  0.00  0.00    +0.000 A 
ATOM     22  O   UNL     1       3.691   5.947  17.345  0.00  0.00    +0.000 OA
ATOM     23  C   UNL     1       3.802   3.644  18.954  0.00  0.00    +0.000 C 
ATOM     24  C   UNL     1       3.909   2.631  20.099  0.00  0.00    +0.000 C 
ATOM     25  C   UNL     1       2.574   2.491  20.829  0.00  0.00    +0.000 C 
ATOM     26  C   UNL     1       2.135   3.831  21.429  0.00  0.00    +0.000 C 
ENDBRANCH  15  16
ENDBRANCH   2  15
TORSDOF 3
ENDMDL
MODEL 7
REMARK VINA RESULT:      -7.3      2.787      4.320
REMARK  Name = 
REMARK  4 active torsions:
REMARK  status: ('A' for Active; 'I' for Inactive)
REMARK    1  A    between atoms: C_1  and  N_2
REMARK    2  A    between atoms: C_6  and  N_7
REMARK    3  A    between atoms: C_8  and  C_10
REMARK    4  A    between atoms: C_10  and  N_11
REMARK                            x       y       z     vdW  Elec       q    Type
REMARK                         _______ _______ _______ _____ _____    ______ ____
ROOT
ATOM      1  N   UNL     1       0.553   9.934  20.023  0.00  0.00    +0.000 N 
ATOM      2  C   UNL     1       0.576   8.789  20.807  0.00  0.00    +0.000 C 
ATOM      3  O   UNL     1      -0.370   8.389  21.486  0.00  0.00    +0.000 OA
ATOM      4  H   UNL     1       1.280  10.028  19.325  0.00  0.00    +0.000 HD
ENDROOT
BRANCH   1  10
ATOM      5  C   UNL     1      -4.340  11.485  16.774  0.00  0.00    +0.000 C 
ATOM      6  N   UNL     1      -3.088  10.975  17.287  0.00  0.00    +0.000 N 
ATOM      7  C   UNL     1      -2.324  10.019  16.673  0.00  0.00    +0.000 A 
ATOM      8  C   UNL     1      -1.244   9.758  17.486  0.00  0.00    +0.000 A 
ATOM      9  C   UNL     1      -1.352  10.586  18.641  0.00  0.00    +0.000 A 
ATOM     10  C   UNL     1      -0.606  10.713  19.838  0.00  0.00    +0.000 A 
ATOM     11  C   UNL     1      -1.037  11.620  20.817  0.00  0.00    +0.000 A 
ATOM     12  C   UNL     1      -2.179  12.392  20.622  0.00  0.00    +0.000 A 
ATOM     13  C   UNL     1      -2.944  12.263  19.461  0.00  0.00    +0.000 A 
ATOM     14  C   UNL     1      -2.519  11.345  18.489  0.00  0.00    +0.000 A 
ENDBRANCH   1  10
BRANCH   2  15
ATOM     15  C   UNL     1       1.930   8.084  20.868  0.00  0.00    +0.000 C 
BRANCH  15  16
ATOM     16  N   UNL     1       2.041   6.961  19.937  0.00  0.00    +0.000 N 
ATOM     17  N   UNL     1       2.382   7.281  18.641  0.00  0.00    +0.000 NA
ATOM     18  C   UNL     1       2.509   6.306  17.803  0.00  0.00    +0.000 A 
ATOM     19  C   UNL     1       2.311   4.882  18.112  0.00  0.00    +0.000 A 
ATOM     20  C   UNL     1       1.934   4.588  19.364  0.00  0.00    +0.000 A 
ATOM     21  C   UNL     1       1.819   5.667  20.385  0.00  0.00    +0.000 A 
ATOM     22  O   UNL     1       1.602   5.385  21.557  0.00  0.00    +0.000 OA
ATOM     23  C   UNL     1       1.633   3.184  19.808  0.00  0.00    +0.000 C 
ATOM     24  C   UNL     1       1.485   2.215  18.629  0.00  0.00    +0.000 C 
ATOM     25  C   UNL     1       2.591   2.436  17.600  0.00  0.00    +0.000 C 
ATOM     26  C   UNL     1       2.546   3.862  17.043  0.00  0.00    +0.000 C 
ENDBRANCH  15  16
ENDBRANCH   2  15
TORSDOF 3
ENDMDL
MODEL 8
REMARK VINA RESULT:      -7.2      3.774      6.422
REMARK  Name = 
REMARK  4 active torsions:
REMARK  status: ('A' for Active; 'I' for Inactive)
REMARK    1  A    between atoms: C_1  and  N_2
REMARK    2  A    between atoms: C_6  and  N_7
REMARK    3  A    between atoms: C_8  and  C_10
REMARK    4  A    between atoms: C_10  and  N_11
REMARK                            x       y       z     vdW  Elec       q    Type
REMARK                         _______ _______ _______ _____ _____    ______ ____
ROOT
ATOM      1  N   UNL     1      -1.315  10.670  18.672  0.00  0.00    +0.000 N 
ATOM      2  C   UNL     1      -0.333  11.633  18.857  0.00  0.00    +0.000 C 
ATOM      3  O   UNL     1      -0.329  12.739  18.316  0.00  0.00    +0.000 OA
ATOM      4  H   UNL     1      -1.351   9.915  19.346  0.00  0.00    +0.000 HD
ENDROOT
BRANCH   1  10
ATOM      5  C   UNL     1      -6.855  13.087  18.059  0.00  0.00    +0.000 C 
ATOM      6  N   UNL     1      -5.579  12.573  18.504  0.00  0.00    +0.000 N 
ATOM      7  C   UNL     1      -5.036  12.797  19.742  0.00  0.00    +0.000 A 
ATOM      8  C   UNL     1      -3.796  12.198  19.771  0.00  0.00    +0.000 A 
ATOM      9  C   UNL     1      -3.574  11.583  18.504  0.00  0.00    +0.000 A 
ATOM     10  C   UNL     1      -2.482  10.900  17.917  0.00  0.00    +0.000 A 
ATOM     11  C   UNL     1      -2.587  10.461  16.590  0.00  0.00    +0.000 A 
ATOM     12  C   UNL     1      -3.747  10.685  15.852  0.00  0.00    +0.000 A 
ATOM     13  C   UNL     1      -4.825  11.380  16.403  0.00  0.00    +0.000 A 
ATOM     14  C   UNL     1      -4.712  11.832  17.727  0.00  0.00    +0.000 A 
ENDBRANCH   1  10
BRANCH   2  15
ATOM     15  C   UNL     1       0.847  11.184  19.719  0.00  0.00    +0.000 C 
BRANCH  15  16
ATOM     16  N   UNL     1       1.370   9.871  19.345  0.00  0.00    +0.000 N 
ATOM     17  N   UNL     1       1.876   9.762  18.067  0.00  0.00    +0.000 NA
ATOM     18  C   UNL     1       2.366   8.618  17.719  0.00  0.00    +0.000 A 
ATOM     19  C   UNL     1       2.421   7.418  18.566  0.00  0.00    +0.000 A 
ATOM     20  C   UNL     1       1.885   7.523  19.789  0.00  0.00    +0.000 A 
ATOM     21  C   UNL     1       1.349   8.830  20.262  0.00  0.00    +0.000 A 
ATOM     22  O   UNL     1       0.978   8.960  21.422  0.00  0.00    +0.000 OA
ATOM     23  C   UNL     1       1.811   6.362  20.741  0.00  0.00    +0.000 C 
ATOM     24  C   UNL     1       2.100   5.023  20.056  0.00  0.00    +0.000 C 
ATOM     25  C   UNL     1       3.310   5.134  19.130  0.00  0.00    +0.000 C 
ATOM     26  C   UNL     1       3.069   6.178  18.035  0.00  0.00    +0.000 C 
ENDBRANCH  15  16
ENDBRANCH   2  15
TORSDOF 3
ENDMDL
MODEL 9
REMARK VINA RESULT:      -7.2      2.741      4.177
REMARK  Name = 
REMARK  4 active torsions:
REMARK  status: ('A' for Active; 'I' for Inactive)
REMARK    1  A    between atoms: C_1  and  N_2
REMARK    2  A    between atoms: C_6  and  N_7
REMARK    3  A    between atoms: C_8  and  C_10
REMARK    4  A    between atoms: C_10  and  N_11
REMARK                            x       y       z     vdW  Elec       q    Type
REMARK                         _______ _______ _______ _____ _____    ______ ____
ROOT
ATOM      1  N   UNL     1       1.285   9.733  17.982  0.00  0.00    +0.000 N 
ATOM      2  C   UNL     1       1.845   8.646  18.638  0.00  0.00    +0.000 C 
ATOM      3  O   UNL     1       1.630   8.353  19.815  0.00  0.00    +0.000 OA
ATOM      4  H   UNL     1       1.330   9.732  16.971  0.00  0.00    +0.000 HD
ENDROOT
BRANCH   1  10
ATOM      5  C   UNL     1      -4.451  11.666  18.500  0.00  0.00    +0.000 C 
ATOM      6  N   UNL     1      -3.187  11.077  18.115  0.00  0.00    +0.000 N 
ATOM      7  C   UNL     1      -3.033  10.129  17.138  0.00  0.00    +0.000 A 
ATOM      8  C   UNL     1      -1.702   9.778  17.101  0.00  0.00    +0.000 A 
ATOM      9  C   UNL     1      -1.017  10.540  18.092  0.00  0.00    +0.000 A 
ATOM     10  C   UNL     1       0.315  10.567  18.571  0.00  0.00    +0.000 A 
ATOM     11  C   UNL     1       0.642  11.430  19.627  0.00  0.00    +0.000 A 
ATOM     12  C   UNL     1      -0.320  12.257  20.199  0.00  0.00    +0.000 A 
ATOM     13  C   UNL     1      -1.645  12.228  19.760  0.00  0.00    +0.000 A 
ATOM     14  C   UNL     1      -1.974  11.352  18.713  0.00  0.00    +0.000 A 
ENDBRANCH   1  10
BRANCH   2  15
ATOM     15  C   UNL     1       2.871   7.864  17.817  0.00  0.00    +0.000 C 
BRANCH  15  16
ATOM     16  N   UNL     1       2.778   6.417  18.002  0.00  0.00    +0.000 N 
ATOM     17  N   UNL     1       1.582   5.836  17.637  0.00  0.00    +0.000 NA
ATOM     18  C   UNL     1       1.482   4.554  17.767  0.00  0.00    +0.000 A 
ATOM     19  C   UNL     1       2.531   3.662  18.283  0.00  0.00    +0.000 A 
ATOM     20  C   UNL     1       3.671   4.244  18.677  0.00  0.00    +0.000 A 
ATOM     21  C   UNL     1       3.862   5.712  18.505  0.00  0.00    +0.000 A 
ATOM     22  O   UNL     1       4.948   6.223  18.744  0.00  0.00    +0.000 OA
ATOM     23  C   UNL     1       4.807   3.468  19.284  0.00  0.00    +0.000 C 
ATOM     24  C   UNL     1       4.395   2.049  19.692  0.00  0.00    +0.000 C 
ATOM     25  C   UNL     1       3.559   1.388  18.598  0.00  0.00    +0.000 C 
ATOM     26  C   UNL     1       2.281   2.188  18.326  0.00  0.00    +0.000 C 
ENDBRANCH  15  16
ENDBRANCH   2  15
TORSDOF 3
ENDMDL
