MODEL 1
REMARK VINA RESULT:      -9.8      0.000      0.000
REMARK  Name = 
REMARK  6 active torsions:
REMARK  status: ('A' for Active; 'I' for Inactive)
REMARK    1  A    between atoms: C_1  and  C_2
REMARK    2  A    between atoms: C_7  and  C_8
REMARK    3  A    between atoms: N_10  and  C_11
REMARK    4  A    between atoms: C_14  and  C_15
REMARK    5  A    between atoms: N_22  and  C_23
REMARK    6  A    between atoms: C_28  and  C_29
REMARK                            x       y       z     vdW  Elec       q    Type
REMARK                         _______ _______ _______ _____ _____    ______ ____
ROOT
ATOM      1  C   UNL     1      -0.647  11.049  21.044  0.00  0.00    +0.000 A 
ATOM      2  C   UNL     1      -0.744  10.924  19.648  0.00  0.00    +0.000 A 
ATOM      3  C   UNL     1       0.124   9.993  18.815  0.00  0.00    +0.000 A 
ATOM      4  C   UNL     1       1.158   9.129  19.312  0.00  0.00    +0.000 A 
ATOM      5  C   UNL     1       1.125   9.216  20.729  0.00  0.00    +0.000 A 
ATOM      6  C   UNL     1       0.260  10.109  21.550  0.00  0.00    +0.000 A 
ENDROOT
BRANCH   4   7
ATOM      7  C   UNL     1       2.231   8.233  18.232  0.00  0.00    +0.000 C 
ATOM      8  O   UNL     1       2.222   8.597  17.050  0.00  0.00    +0.000 OA
ATOM      9  N   UNL     1       3.103   7.043  18.632  0.00  0.00    +0.000 N 
ATOM     10  C   UNL     1       2.633   6.320  19.796  0.00  0.00    +0.000 C 
ATOM     11  C   UNL     1       1.748   5.154  19.416  0.00  0.00    +0.000 C 
ATOM     12  C   UNL     1       2.602   3.928  19.547  0.00  0.00    +0.000 C 
ATOM     13  O   UNL     1       2.624   3.247  20.569  0.00  0.00    +0.000 OA
ATOM     14  N   UNL     1       3.522   3.790  18.525  0.00  0.00    +0.000 N 
ATOM     15  C   UNL     1       3.041   3.234  17.266  0.00  0.00    +0.000 C 
ATOM     16  C   UNL     1       4.450   4.860  18.423  0.00  0.00    +0.000 A 
ATOM     17  C   UNL     1       5.699   4.579  19.026  0.00  0.00    +0.000 A 
ATOM     18  C   UNL     1       6.773   5.427  18.822  0.00  0.00    +0.000 A 
ATOM     19  C   UNL     1       6.620   6.429  17.868  0.00  0.00    +0.000 A 
ATOM     20  C   UNL     1       5.371   6.521  17.144  0.00  0.00    +0.000 A 
ATOM     21  C   UNL     1       5.733   5.696  15.773  0.00  0.00    +0.000 C 
ATOM     22  C   UNL     1       4.165   6.114  17.799  0.00  0.00    +0.000 A 
ENDBRANCH   4   7
BRANCH   1  25
ATOM     23  C   UNL     1      -0.796  13.232  22.523  0.00  0.00    +0.000 C 
ATOM     24  O   UNL     1       0.296  13.636  22.126  0.00  0.00    +0.000 OA
ATOM     25  N   UNL     1      -1.321  12.012  21.990  0.00  0.00    +0.000 N 
ATOM     26  H   UNL     1      -2.231  11.730  22.317  0.00  0.00    +0.000 HD
BRANCH  23  33
ATOM     27  C   UNL     1      -3.774  12.972  24.151  0.00  0.00    +0.000 C 
ATOM     28  C   UNL     1      -2.732  14.041  24.350  0.00  0.00    +0.000 A 
ATOM     29  C   UNL     1      -3.124  15.005  25.361  0.00  0.00    +0.000 A 
ATOM     30  C   UNL     1      -2.312  16.101  25.692  0.00  0.00    +0.000 A 
ATOM     31  C   UNL     1      -1.118  16.239  25.014  0.00  0.00    +0.000 A 
ATOM     32  C   UNL     1      -0.741  15.295  24.027  0.00  0.00    +0.000 A 
ATOM     33  C   UNL     1      -1.488  14.158  23.648  0.00  0.00    +0.000 A 
ENDBRANCH  23  33
ENDBRANCH   1  25
TORSDOF 3
ENDMDL
MODEL 2
REMARK VINA RESULT:      -9.3      2.704     11.454
REMARK  Name = 
REMARK  6 active torsions:
REMARK  status: ('A' for Active; 'I' for Inactive)
REMARK    1  A    between atoms: C_1  and  C_2
REMARK    2  A    between atoms: C_7  and  C_8
REMARK    3  A    between atoms: N_10  and  C_11
REMARK    4  A    between atoms: C_14  and  C_15
REMARK    5  A    between atoms: N_22  and  C_23
REMARK    6  A    between atoms: C_28  and  C_29
REMARK                            x       y       z     vdW  Elec       q    Type
REMARK                         _______ _______ _______ _____ _____    ______ ____
ROOT
ATOM      1  C   UNL     1       0.922   9.748  18.650  0.00  0.00    +0.000 A 
ATOM      2  C   UNL     1       1.271  10.607  19.707  0.00  0.00    +0.000 A 
ATOM      3  C   UNL     1       0.400  11.757  20.190  0.00  0.00    +0.000 A 
ATOM      4  C   UNL     1      -0.873  12.142  19.647  0.00  0.00    +0.000 A 
ATOM      5  C   UNL     1      -1.217  11.170  18.670  0.00  0.00    +0.000 A 
ATOM      6  C   UNL     1      -0.378  10.028  18.211  0.00  0.00    +0.000 A 
ENDROOT
BRANCH   4   7
ATOM      7  C   UNL     1      -1.706  13.612  20.162  0.00  0.00    +0.000 C 
ATOM      8  O   UNL     1      -1.144  14.674  19.868  0.00  0.00    +0.000 OA
ATOM      9  N   UNL     1      -3.005  13.661  20.967  0.00  0.00    +0.000 N 
ATOM     10  C   UNL     1      -3.263  12.479  21.762  0.00  0.00    +0.000 C 
ATOM     11  C   UNL     1      -2.741  12.624  23.174  0.00  0.00    +0.000 C 
ATOM     12  C   UNL     1      -3.937  12.920  24.028  0.00  0.00    +0.000 C 
ATOM     13  O   UNL     1      -4.557  12.042  24.621  0.00  0.00    +0.000 OA
ATOM     14  N   UNL     1      -4.407  14.212  23.882  0.00  0.00    +0.000 N 
ATOM     15  C   UNL     1      -3.712  15.262  24.615  0.00  0.00    +0.000 C 
ATOM     16  C   UNL     1      -4.823  14.539  22.563  0.00  0.00    +0.000 A 
ATOM     17  C   UNL     1      -6.223  14.450  22.377  0.00  0.00    +0.000 A 
ATOM     18  C   UNL     1      -6.801  14.945  21.222  0.00  0.00    +0.000 A 
ATOM     19  C   UNL     1      -5.986  15.684  20.369  0.00  0.00    +0.000 A 
ATOM     20  C   UNL     1      -4.604  15.902  20.737  0.00  0.00    +0.000 A 
ATOM     21  C   UNL     1      -4.689  17.383  21.439  0.00  0.00    +0.000 C 
ATOM     22  C   UNL     1      -3.931  14.901  21.507  0.00  0.00    +0.000 A 
ENDBRANCH   4   7
BRANCH   1  25
ATOM     23  C   UNL     1       2.332   7.517  18.558  0.00  0.00    +0.000 C 
ATOM     24  O   UNL     1       2.142   7.289  19.752  0.00  0.00    +0.000 OA
ATOM     25  N   UNL     1       1.720   8.666  17.965  0.00  0.00    +0.000 N 
ATOM     26  H   UNL     1       1.875   8.802  16.979  0.00  0.00    +0.000 HD
BRANCH  23  33
ATOM     27  C   UNL     1       2.157   4.136  18.210  0.00  0.00    +0.000 C 
ATOM     28  C   UNL     1       3.223   5.043  17.653  0.00  0.00    +0.000 A 
ATOM     29  C   UNL     1       4.226   4.309  16.902  0.00  0.00    +0.000 A 
ATOM     30  C   UNL     1       5.325   4.954  16.313  0.00  0.00    +0.000 A 
ATOM     31  C   UNL     1       5.429   6.320  16.477  0.00  0.00    +0.000 A 
ATOM     32  C   UNL     1       4.447   7.029  17.212  0.00  0.00    +0.000 A 
ATOM     33  C   UNL     1       3.304   6.464  17.818  0.00  0.00    +0.000 A 
ENDBRANCH  23  33
ENDBRANCH   1  25
TORSDOF 3
ENDMDL
MODEL 3
REMARK VINA RESULT:      -9.2      1.976     11.364
REMARK  Name = 
REMARK  6 active torsions:
REMARK  status: ('A' for Active; 'I' for Inactive)
REMARK    1  A    between atoms: C_1  and  C_2
REMARK    2  A    between atoms: C_7  and  C_8
REMARK    3  A    between atoms: N_10  and  C_11
REMARK    4  A    between atoms: C_14  and  C_15
REMARK    5  A    between atoms: N_22  and  C_23
REMARK    6  A    between atoms: C_28  and  C_29
REMARK                            x       y       z     vdW  Elec       q    Type
REMARK                         _______ _______ _______ _____ _____    ______ ____
ROOT
ATOM      1  C   UNL     1       1.297   8.621  20.567  0.00  0.00    +0.000 A 
ATOM      2  C   UNL     1       0.764   9.764  19.944  0.00  0.00    +0.000 A 
ATOM      3  C   UNL     1       0.009  10.860  20.681  0.00  0.00    +0.000 A 
ATOM      4  C   UNL     1      -0.280  10.891  22.087  0.00  0.00    +0.000 A 
ATOM      5  C   UNL     1       0.381   9.777  22.671  0.00  0.00    +0.000 A 
ATOM      6  C   UNL     1       1.142   8.714  21.957  0.00  0.00    +0.000 A 
ENDROOT
BRANCH   4   7
ATOM      7  C   UNL     1      -1.330  12.119  22.802  0.00  0.00    +0.000 C 
ATOM      8  O   UNL     1      -2.470  11.741  23.094  0.00  0.00    +0.000 OA
ATOM      9  N   UNL     1      -0.956  13.584  23.028  0.00  0.00    +0.000 N 
ATOM     10  C   UNL     1       0.089  14.078  22.156  0.00  0.00    +0.000 C 
ATOM     11  C   UNL     1      -0.474  14.731  20.913  0.00  0.00    +0.000 C 
ATOM     12  C   UNL     1      -0.373  16.209  21.142  0.00  0.00    +0.000 C 
ATOM     13  O   UNL     1       0.582  16.873  20.746  0.00  0.00    +0.000 OA
ATOM     14  N   UNL     1      -1.312  16.691  22.034  0.00  0.00    +0.000 N 
ATOM     15  C   UNL     1      -2.655  16.934  21.522  0.00  0.00    +0.000 C 
ATOM     16  C   UNL     1      -1.231  16.125  23.334  0.00  0.00    +0.000 A 
ATOM     17  C   UNL     1      -0.540  16.942  24.260  0.00  0.00    +0.000 A 
ATOM     18  C   UNL     1      -0.566  16.635  25.609  0.00  0.00    +0.000 A 
ATOM     19  C   UNL     1      -1.438  15.629  26.015  0.00  0.00    +0.000 A 
ATOM     20  C   UNL     1      -2.264  14.977  25.023  0.00  0.00    +0.000 A 
ATOM     21  C   UNL     1      -3.664  15.822  25.166  0.00  0.00    +0.000 C 
ATOM     22  C   UNL     1      -1.765  14.847  23.688  0.00  0.00    +0.000 A 
ENDBRANCH   4   7
BRANCH   1  25
ATOM     23  C   UNL     1       2.614   7.274  18.718  0.00  0.00    +0.000 C 
ATOM     24  O   UNL     1       2.803   8.286  18.044  0.00  0.00    +0.000 OA
ATOM     25  N   UNL     1       1.937   7.392  19.973  0.00  0.00    +0.000 N 
ATOM     26  H   UNL     1       1.829   6.546  20.509  0.00  0.00    +0.000 HD
BRANCH  23  33
ATOM     27  C   UNL     1       1.424   4.086  18.803  0.00  0.00    +0.000 C 
ATOM     28  C   UNL     1       2.646   4.570  18.066  0.00  0.00    +0.000 A 
ATOM     29  C   UNL     1       3.309   3.499  17.345  0.00  0.00    +0.000 A 
ATOM     30  C   UNL     1       4.483   3.720  16.608  0.00  0.00    +0.000 A 
ATOM     31  C   UNL     1       4.997   5.001  16.595  0.00  0.00    +0.000 A 
ATOM     32  C   UNL     1       4.346   6.042  17.301  0.00  0.00    +0.000 A 
ATOM     33  C   UNL     1       3.155   5.910  18.049  0.00  0.00    +0.000 A 
ENDBRANCH  23  33
ENDBRANCH   1  25
TORSDOF 3
ENDMDL
MODEL 4
REMARK VINA RESULT:      -9.2      1.270      1.958
REMARK  Name = 
REMARK  6 active torsions:
REMARK  status: ('A' for Active; 'I' for Inactive)
REMARK    1  A    between atoms: C_1  and  C_2
REMARK    2  A    between atoms: C_7  and  C_8
REMARK    3  A    between atoms: N_10  and  C_11
REMARK    4  A    between atoms: C_14  and  C_15
REMARK    5  A    between atoms: N_22  and  C_23
REMARK    6  A    between atoms: C_28  and  C_29
REMARK                            x       y       z     vdW  Elec       q    Type
REMARK                         _______ _______ _______ _____ _____    ______ ____
ROOT
ATOM      1  C   UNL     1      -0.475  10.845  21.470  0.00  0.00    +0.000 A 
ATOM      2  C   UNL     1      -0.201   9.467  21.521  0.00  0.00    +0.000 A 
ATOM      3  C   UNL     1       0.716   8.746  20.545  0.00  0.00    +0.000 A 
ATOM      4  C   UNL     1       1.417   9.343  19.442  0.00  0.00    +0.000 A 
ATOM      5  C   UNL     1       1.193  10.743  19.519  0.00  0.00    +0.000 A 
ATOM      6  C   UNL     1       0.314  11.457  20.487  0.00  0.00    +0.000 A 
ENDROOT
BRANCH   4   7
ATOM      7  C   UNL     1       2.303   8.375  18.260  0.00  0.00    +0.000 C 
ATOM      8  O   UNL     1       2.166   8.718  17.080  0.00  0.00    +0.000 OA
ATOM      9  N   UNL     1       3.159   7.149  18.578  0.00  0.00    +0.000 N 
ATOM     10  C   UNL     1       2.802   6.471  19.807  0.00  0.00    +0.000 C 
ATOM     11  C   UNL     1       1.821   5.345  19.566  0.00  0.00    +0.000 C 
ATOM     12  C   UNL     1       2.624   4.080  19.620  0.00  0.00    +0.000 C 
ATOM     13  O   UNL     1       2.740   3.417  20.648  0.00  0.00    +0.000 OA
ATOM     14  N   UNL     1       3.403   3.877  18.496  0.00  0.00    +0.000 N 
ATOM     15  C   UNL     1       2.744   3.325  17.320  0.00  0.00    +0.000 C 
ATOM     16  C   UNL     1       4.362   4.897  18.256  0.00  0.00    +0.000 A 
ATOM     17  C   UNL     1       5.661   4.563  18.707  0.00  0.00    +0.000 A 
ATOM     18  C   UNL     1       6.742   5.350  18.353  0.00  0.00    +0.000 A 
ATOM     19  C   UNL     1       6.521   6.342  17.402  0.00  0.00    +0.000 A 
ATOM     20  C   UNL     1       5.197   6.486  16.836  0.00  0.00    +0.000 A 
ATOM     21  C   UNL     1       5.346   5.620  15.450  0.00  0.00    +0.000 C 
ATOM     22  C   UNL     1       4.063   6.152  17.643  0.00  0.00    +0.000 A 
ENDBRANCH   4   7
BRANCH   1  25
ATOM     23  C   UNL     1      -2.557  12.442  21.762  0.00  0.00    +0.000 C 
ATOM     24  O   UNL     1      -2.838  12.376  20.567  0.00  0.00    +0.000 OA
ATOM     25  N   UNL     1      -1.454  11.678  22.260  0.00  0.00    +0.000 N 
ATOM     26  H   UNL     1      -1.274  11.735  23.249  0.00  0.00    +0.000 HD
BRANCH  23  33
ATOM     27  C   UNL     1      -1.833  14.611  24.284  0.00  0.00    +0.000 C 
ATOM     28  C   UNL     1      -3.187  14.369  23.668  0.00  0.00    +0.000 A 
ATOM     29  C   UNL     1      -4.217  15.194  24.271  0.00  0.00    +0.000 A 
ATOM     30  C   UNL     1      -5.559  15.114  23.865  0.00  0.00    +0.000 A 
ATOM     31  C   UNL     1      -5.873  14.212  22.868  0.00  0.00    +0.000 A 
ATOM     32  C   UNL     1      -4.862  13.410  22.285  0.00  0.00    +0.000 A 
ATOM     33  C   UNL     1      -3.490  13.440  22.619  0.00  0.00    +0.000 A 
ENDBRANCH  23  33
ENDBRANCH   1  25
TORSDOF 3
ENDMDL
MODEL 5
REMARK VINA RESULT:      -9.2      0.414      1.285
REMARK  Name = 
REMARK  6 active torsions:
REMARK  status: ('A' for Active; 'I' for Inactive)
REMARK    1  A    between atoms: C_1  and  C_2
REMARK    2  A    between atoms: C_7  and  C_8
REMARK    3  A    between atoms: N_10  and  C_11
REMARK    4  A    between atoms: C_14  and  C_15
REMARK    5  A    between atoms: N_22  and  C_23
REMARK    6  A    between atoms: C_28  and  C_29
REMARK                            x       y       z     vdW  Elec       q    Type
REMARK                         _______ _______ _______ _____ _____    ______ ____
ROOT
ATOM      1  C   UNL     1      -0.616  11.265  20.854  0.00  0.00    +0.000 A 
ATOM      2  C   UNL     1      -0.773  11.012  19.481  0.00  0.00    +0.000 A 
ATOM      3  C   UNL     1       0.083  10.032  18.693  0.00  0.00    +0.000 A 
ATOM      4  C   UNL     1       1.164   9.243  19.215  0.00  0.00    +0.000 A 
ATOM      5  C   UNL     1       1.192   9.456  20.619  0.00  0.00    +0.000 A 
ATOM      6  C   UNL     1       0.340  10.397  21.398  0.00  0.00    +0.000 A 
ENDROOT
BRANCH   4   7
ATOM      7  C   UNL     1       2.213   8.281  18.169  0.00  0.00    +0.000 C 
ATOM      8  O   UNL     1       2.201   8.591  16.972  0.00  0.00    +0.000 OA
ATOM      9  N   UNL     1       3.067   7.095  18.616  0.00  0.00    +0.000 N 
ATOM     10  C   UNL     1       2.594   6.433  19.814  0.00  0.00    +0.000 C 
ATOM     11  C   UNL     1       1.686   5.267  19.493  0.00  0.00    +0.000 C 
ATOM     12  C   UNL     1       2.519   4.034  19.673  0.00  0.00    +0.000 C 
ATOM     13  O   UNL     1       2.538   3.399  20.725  0.00  0.00    +0.000 OA
ATOM     14  N   UNL     1       3.429   3.833  18.652  0.00  0.00    +0.000 N 
ATOM     15  C   UNL     1       2.929   3.230  17.423  0.00  0.00    +0.000 C 
ATOM     16  C   UNL     1       4.375   4.881  18.496  0.00  0.00    +0.000 A 
ATOM     17  C   UNL     1       5.624   4.606  19.102  0.00  0.00    +0.000 A 
ATOM     18  C   UNL     1       6.711   5.424  18.852  0.00  0.00    +0.000 A 
ATOM     19  C   UNL     1       6.567   6.385  17.855  0.00  0.00    +0.000 A 
ATOM     20  C   UNL     1       5.314   6.466  17.137  0.00  0.00    +0.000 A 
ATOM     21  C   UNL     1       5.651   5.575  15.801  0.00  0.00    +0.000 C 
ATOM     22  C   UNL     1       4.107   6.111  17.818  0.00  0.00    +0.000 A 
ENDBRANCH   4   7
BRANCH   1  25
ATOM     23  C   UNL     1      -0.659  13.389  22.422  0.00  0.00    +0.000 C 
ATOM     24  O   UNL     1       0.532  13.623  22.222  0.00  0.00    +0.000 OA
ATOM     25  N   UNL     1      -1.275  12.292  21.742  0.00  0.00    +0.000 N 
ATOM     26  H   UNL     1      -2.259  12.152  21.908  0.00  0.00    +0.000 HD
BRANCH  23  33
ATOM     27  C   UNL     1       0.210  16.470  23.581  0.00  0.00    +0.000 C 
ATOM     28  C   UNL     1      -1.017  15.681  23.958  0.00  0.00    +0.000 A 
ATOM     29  C   UNL     1      -1.853  16.392  24.908  0.00  0.00    +0.000 A 
ATOM     30  C   UNL     1      -3.037  15.833  25.414  0.00  0.00    +0.000 A 
ATOM     31  C   UNL     1      -3.383  14.568  24.980  0.00  0.00    +0.000 A 
ATOM     32  C   UNL     1      -2.562  13.880  24.054  0.00  0.00    +0.000 A 
ATOM     33  C   UNL     1      -1.369  14.376  23.482  0.00  0.00    +0.000 A 
ENDBRANCH  23  33
ENDBRANCH   1  25
TORSDOF 3
ENDMDL
MODEL 6
REMARK VINA RESULT:      -9.2      1.950     11.458
REMARK  Name = 
REMARK  6 active torsions:
REMARK  status: ('A' for Active; 'I' for Inactive)
REMARK    1  A    between atoms: C_1  and  C_2
REMARK    2  A    between atoms: C_7  and  C_8
REMARK    3  A    between atoms: N_10  and  C_11
REMARK    4  A    between atoms: C_14  and  C_15
REMARK    5  A    between atoms: N_22  and  C_23
REMARK    6  A    between atoms: C_28  and  C_29
REMARK                            x       y       z     vdW  Elec       q    Type
REMARK                         _______ _______ _______ _____ _____    ______ ____
ROOT
ATOM      1  C   UNL     1       1.288   8.732  20.580  0.00  0.00    +0.000 A 
ATOM      2  C   UNL     1       0.828   9.913  19.972  0.00  0.00    +0.000 A 
ATOM      3  C   UNL     1       0.062  11.005  20.705  0.00  0.00    +0.000 A 
ATOM      4  C   UNL     1      -0.310  10.992  22.092  0.00  0.00    +0.000 A 
ATOM      5  C   UNL     1       0.281   9.837  22.670  0.00  0.00    +0.000 A 
ATOM      6  C   UNL     1       1.052   8.778  21.960  0.00  0.00    +0.000 A 
ENDROOT
BRANCH   4   7
ATOM      7  C   UNL     1      -1.364  12.225  22.792  0.00  0.00    +0.000 C 
ATOM      8  O   UNL     1      -2.517  11.859  23.048  0.00  0.00    +0.000 OA
ATOM      9  N   UNL     1      -0.979  13.683  23.044  0.00  0.00    +0.000 N 
ATOM     10  C   UNL     1       0.096  14.173  22.207  0.00  0.00    +0.000 C 
ATOM     11  C   UNL     1      -0.425  14.847  20.957  0.00  0.00    +0.000 C 
ATOM     12  C   UNL     1      -0.312  16.321  21.204  0.00  0.00    +0.000 C 
ATOM     13  O   UNL     1       0.662  16.977  20.843  0.00  0.00    +0.000 OA
ATOM     14  N   UNL     1      -1.270  16.805  22.076  0.00  0.00    +0.000 N 
ATOM     15  C   UNL     1      -2.594  17.070  21.530  0.00  0.00    +0.000 C 
ATOM     16  C   UNL     1      -1.231  16.223  23.371  0.00  0.00    +0.000 A 
ATOM     17  C   UNL     1      -0.556  17.022  24.325  0.00  0.00    +0.000 A 
ATOM     18  C   UNL     1      -0.623  16.701  25.669  0.00  0.00    +0.000 A 
ATOM     19  C   UNL     1      -1.518  15.701  26.040  0.00  0.00    +0.000 A 
ATOM     20  C   UNL     1      -2.325  15.070  25.018  0.00  0.00    +0.000 A 
ATOM     21  C   UNL     1      -3.717  15.931  25.132  0.00  0.00    +0.000 C 
ATOM     22  C   UNL     1      -1.790  14.949  23.696  0.00  0.00    +0.000 A 
ENDBRANCH   4   7
BRANCH   1  25
ATOM     23  C   UNL     1       2.450   7.349  18.654  0.00  0.00    +0.000 C 
ATOM     24  O   UNL     1       2.489   8.327  17.908  0.00  0.00    +0.000 OA
ATOM     25  N   UNL     1       1.927   7.506  19.977  0.00  0.00    +0.000 N 
ATOM     26  H   UNL     1       1.939   6.690  20.567  0.00  0.00    +0.000 HD
BRANCH  23  33
ATOM     27  C   UNL     1       5.414   6.558  17.179  0.00  0.00    +0.000 C 
ATOM     28  C   UNL     1       4.241   5.636  17.392  0.00  0.00    +0.000 A 
ATOM     29  C   UNL     1       4.501   4.298  16.893  0.00  0.00    +0.000 A 
ATOM     30  C   UNL     1       3.536   3.281  16.968  0.00  0.00    +0.000 A 
ATOM     31  C   UNL     1       2.316   3.598  17.530  0.00  0.00    +0.000 A 
ATOM     32  C   UNL     1       2.069   4.906  18.015  0.00  0.00    +0.000 A 
ATOM     33  C   UNL     1       2.988   5.979  17.997  0.00  0.00    +0.000 A 
ENDBRANCH  23  33
ENDBRANCH   1  25
TORSDOF 3
ENDMDL
MODEL 7
REMARK VINA RESULT:      -9.2      1.062      1.062
REMARK  Name = 
REMARK  6 active torsions:
REMARK  status: ('A' for Active; 'I' for Inactive)
REMARK    1  A    between atoms: C_1  and  C_2
REMARK    2  A    between atoms: C_7  and  C_8
REMARK    3  A    between atoms: N_10  and  C_11
REMARK    4  A    between atoms: C_14  and  C_15
REMARK    5  A    between atoms: N_22  and  C_23
REMARK    6  A    between atoms: C_28  and  C_29
REMARK                            x       y       z     vdW  Elec       q    Type
REMARK                         _______ _______ _______ _____ _____    ______ ____
ROOT
ATOM      1  C   UNL     1      -0.642  11.023  21.128  0.00  0.00    +0.000 A 
ATOM      2  C   UNL     1      -0.746  10.923  19.730  0.00  0.00    +0.000 A 
ATOM      3  C   UNL     1       0.114  10.003  18.877  0.00  0.00    +0.000 A 
ATOM      4  C   UNL     1       1.145   9.125  19.354  0.00  0.00    +0.000 A 
ATOM      5  C   UNL     1       1.119   9.186  20.772  0.00  0.00    +0.000 A 
ATOM      6  C   UNL     1       0.262  10.069  21.613  0.00  0.00    +0.000 A 
ENDROOT
BRANCH   4   7
ATOM      7  C   UNL     1       2.209   8.243  18.253  0.00  0.00    +0.000 C 
ATOM      8  O   UNL     1       2.185   8.617  17.074  0.00  0.00    +0.000 OA
ATOM      9  N   UNL     1       3.089   7.052  18.632  0.00  0.00    +0.000 N 
ATOM     10  C   UNL     1       2.636   6.317  19.794  0.00  0.00    +0.000 C 
ATOM     11  C   UNL     1       1.750   5.151  19.414  0.00  0.00    +0.000 C 
ATOM     12  C   UNL     1       2.610   3.927  19.524  0.00  0.00    +0.000 C 
ATOM     13  O   UNL     1       2.647   3.237  20.539  0.00  0.00    +0.000 OA
ATOM     14  N   UNL     1       3.518   3.802  18.490  0.00  0.00    +0.000 N 
ATOM     15  C   UNL     1       3.025   3.256  17.232  0.00  0.00    +0.000 C 
ATOM     16  C   UNL     1       4.442   4.876  18.387  0.00  0.00    +0.000 A 
ATOM     17  C   UNL     1       5.699   4.594  18.973  0.00  0.00    +0.000 A 
ATOM     18  C   UNL     1       6.768   5.447  18.764  0.00  0.00    +0.000 A 
ATOM     19  C   UNL     1       6.600   6.458  17.821  0.00  0.00    +0.000 A 
ATOM     20  C   UNL     1       5.342   6.552  17.114  0.00  0.00    +0.000 A 
ATOM     21  C   UNL     1       5.691   5.741  15.730  0.00  0.00    +0.000 C 
ATOM     22  C   UNL     1       4.145   6.135  17.778  0.00  0.00    +0.000 A 
ENDBRANCH   4   7
BRANCH   1  25
ATOM     23  C   UNL     1      -2.315  12.948  21.812  0.00  0.00    +0.000 C 
ATOM     24  O   UNL     1      -2.796  12.999  20.681  0.00  0.00    +0.000 OA
ATOM     25  N   UNL     1      -1.307  11.972  22.094  0.00  0.00    +0.000 N 
ATOM     26  H   UNL     1      -0.960  11.941  23.039  0.00  0.00    +0.000 HD
BRANCH  23  33
ATOM     27  C   UNL     1      -4.174  12.637  24.647  0.00  0.00    +0.000 C 
ATOM     28  C   UNL     1      -3.660  13.919  24.045  0.00  0.00    +0.000 A 
ATOM     29  C   UNL     1      -4.040  15.081  24.827  0.00  0.00    +0.000 A 
ATOM     30  C   UNL     1      -3.687  16.382  24.438  0.00  0.00    +0.000 A 
ATOM     31  C   UNL     1      -2.965  16.526  23.270  0.00  0.00    +0.000 A 
ATOM     32  C   UNL     1      -2.598  15.388  22.511  0.00  0.00    +0.000 A 
ATOM     33  C   UNL     1      -2.894  14.047  22.840  0.00  0.00    +0.000 A 
ENDBRANCH  23  33
ENDBRANCH   1  25
TORSDOF 3
ENDMDL
MODEL 8
REMARK VINA RESULT:      -9.1      1.368      1.731
REMARK  Name = 
REMARK  6 active torsions:
REMARK  status: ('A' for Active; 'I' for Inactive)
REMARK    1  A    between atoms: C_1  and  C_2
REMARK    2  A    between atoms: C_7  and  C_8
REMARK    3  A    between atoms: N_10  and  C_11
REMARK    4  A    between atoms: C_14  and  C_15
REMARK    5  A    between atoms: N_22  and  C_23
REMARK    6  A    between atoms: C_28  and  C_29
REMARK                            x       y       z     vdW  Elec       q    Type
REMARK                         _______ _______ _______ _____ _____    ______ ____
ROOT
ATOM      1  C   UNL     1      -0.609  11.026  21.481  0.00  0.00    +0.000 A 
ATOM      2  C   UNL     1      -0.394   9.637  21.507  0.00  0.00    +0.000 A 
ATOM      3  C   UNL     1       0.534   8.902  20.551  0.00  0.00    +0.000 A 
ATOM      4  C   UNL     1       1.304   9.496  19.495  0.00  0.00    +0.000 A 
ATOM      5  C   UNL     1       1.134  10.903  19.598  0.00  0.00    +0.000 A 
ATOM      6  C   UNL     1       0.245  11.628  20.548  0.00  0.00    +0.000 A 
ENDROOT
BRANCH   4   7
ATOM      7  C   UNL     1       2.200   8.521  18.325  0.00  0.00    +0.000 C 
ATOM      8  O   UNL     1       2.067   8.853  17.141  0.00  0.00    +0.000 OA
ATOM      9  N   UNL     1       3.059   7.301  18.658  0.00  0.00    +0.000 N 
ATOM     10  C   UNL     1       2.699   6.634  19.892  0.00  0.00    +0.000 C 
ATOM     11  C   UNL     1       1.724   5.502  19.657  0.00  0.00    +0.000 C 
ATOM     12  C   UNL     1       2.531   4.240  19.726  0.00  0.00    +0.000 C 
ATOM     13  O   UNL     1       2.645   3.586  20.759  0.00  0.00    +0.000 OA
ATOM     14  N   UNL     1       3.316   4.030  18.607  0.00  0.00    +0.000 N 
ATOM     15  C   UNL     1       2.664   3.465  17.432  0.00  0.00    +0.000 C 
ATOM     16  C   UNL     1       4.272   5.051  18.362  0.00  0.00    +0.000 A 
ATOM     17  C   UNL     1       5.571   4.726  18.822  0.00  0.00    +0.000 A 
ATOM     18  C   UNL     1       6.650   5.515  18.466  0.00  0.00    +0.000 A 
ATOM     19  C   UNL     1       6.429   6.498  17.505  0.00  0.00    +0.000 A 
ATOM     20  C   UNL     1       5.108   6.631  16.932  0.00  0.00    +0.000 A 
ATOM     21  C   UNL     1       5.267   5.753  15.554  0.00  0.00    +0.000 C 
ATOM     22  C   UNL     1       3.972   6.300  17.736  0.00  0.00    +0.000 A 
ENDBRANCH   4   7
BRANCH   1  25
ATOM     23  C   UNL     1      -2.724  12.585  21.744  0.00  0.00    +0.000 C 
ATOM     24  O   UNL     1      -3.040  12.440  20.565  0.00  0.00    +0.000 OA
ATOM     25  N   UNL     1      -1.586  11.880  22.251  0.00  0.00    +0.000 N 
ATOM     26  H   UNL     1      -1.378  12.001  23.229  0.00  0.00    +0.000 HD
BRANCH  23  33
ATOM     27  C   UNL     1      -6.106  12.818  22.052  0.00  0.00    +0.000 C 
ATOM     28  C   UNL     1      -5.080  13.698  22.718  0.00  0.00    +0.000 A 
ATOM     29  C   UNL     1      -5.692  14.710  23.559  0.00  0.00    +0.000 A 
ATOM     30  C   UNL     1      -4.923  15.654  24.258  0.00  0.00    +0.000 A 
ATOM     31  C   UNL     1      -3.552  15.594  24.114  0.00  0.00    +0.000 A 
ATOM     32  C   UNL     1      -2.961  14.604  23.290  0.00  0.00    +0.000 A 
ATOM     33  C   UNL     1      -3.658  13.608  22.570  0.00  0.00    +0.000 A 
ENDBRANCH  23  33
ENDBRANCH   1  25
TORSDOF 3
ENDMDL
MODEL 9
REMARK VINA RESULT:      -9.1      1.164      1.645
REMARK  Name = 
REMARK  6 active torsions:
REMARK  status: ('A' for Active; 'I' for Inactive)
REMARK    1  A    between atoms: C_1  and  C_2
REMARK    2  A    between atoms: C_7  and  C_8
REMARK    3  A    between atoms: N_10  and  C_11
REMARK    4  A    between atoms: C_14  and  C_15
REMARK    5  A    between atoms: N_22  and  C_23
REMARK    6  A    between atoms: C_28  and  C_29
REMARK                            x       y       z     vdW  Elec       q    Type
REMARK                         _______ _______ _______ _____ _____    ______ ____
ROOT
ATOM      1  C   UNL     1      -0.739  11.726  20.898  0.00  0.00    +0.000 A 
ATOM      2  C   UNL     1      -1.102  11.175  19.657  0.00  0.00    +0.000 A 
ATOM      3  C   UNL     1      -0.279  10.133  18.914  0.00  0.00    +0.000 A 
ATOM      4  C   UNL     1       0.971   9.575  19.349  0.00  0.00    +0.000 A 
ATOM      5  C   UNL     1       1.220  10.082  20.652  0.00  0.00    +0.000 A 
ATOM      6  C   UNL     1       0.404  11.083  21.393  0.00  0.00    +0.000 A 
ENDROOT
BRANCH   4   7
ATOM      7  C   UNL     1       1.934   8.514  18.316  0.00  0.00    +0.000 C 
ATOM      8  O   UNL     1       1.850   8.733  17.101  0.00  0.00    +0.000 OA
ATOM      9  N   UNL     1       2.796   7.347  18.798  0.00  0.00    +0.000 N 
ATOM     10  C   UNL     1       2.391   6.789  20.071  0.00  0.00    +0.000 C 
ATOM     11  C   UNL     1       1.446   5.621  19.900  0.00  0.00    +0.000 C 
ATOM     12  C   UNL     1       2.269   4.388  20.121  0.00  0.00    +0.000 C 
ATOM     13  O   UNL     1       2.346   3.834  21.215  0.00  0.00    +0.000 OA
ATOM     14  N   UNL     1       3.107   4.092  19.062  0.00  0.00    +0.000 N 
ATOM     15  C   UNL     1       2.518   3.407  17.918  0.00  0.00    +0.000 C 
ATOM     16  C   UNL     1       4.057   5.104  18.766  0.00  0.00    +0.000 A 
ATOM     17  C   UNL     1       5.338   4.849  19.311  0.00  0.00    +0.000 A 
ATOM     18  C   UNL     1       6.420   5.623  18.930  0.00  0.00    +0.000 A 
ATOM     19  C   UNL     1       6.228   6.508  17.873  0.00  0.00    +0.000 A 
ATOM     20  C   UNL     1       4.932   6.561  17.233  0.00  0.00    +0.000 A 
ATOM     21  C   UNL     1       5.167   5.564  15.951  0.00  0.00    +0.000 C 
ATOM     22  C   UNL     1       3.766   6.284  18.014  0.00  0.00    +0.000 A 
ENDBRANCH   4   7
BRANCH   1  25
ATOM     23  C   UNL     1      -2.276  12.754  22.782  0.00  0.00    +0.000 C 
ATOM     24  O   UNL     1      -2.558  11.644  23.229  0.00  0.00    +0.000 OA
ATOM     25  N   UNL     1      -1.358  12.851  21.688  0.00  0.00    +0.000 N 
ATOM     26  H   UNL     1      -1.130  13.779  21.371  0.00  0.00    +0.000 HD
BRANCH  23  33
ATOM     27  C   UNL     1      -1.140  15.222  24.833  0.00  0.00    +0.000 C 
ATOM     28  C   UNL     1      -2.555  15.034  24.352  0.00  0.00    +0.000 A 
ATOM     29  C   UNL     1      -3.446  16.060  24.861  0.00  0.00    +0.000 A 
ATOM     30  C   UNL     1      -4.817  16.066  24.557  0.00  0.00    +0.000 A 
ATOM     31  C   UNL     1      -5.298  15.050  23.756  0.00  0.00    +0.000 A 
ATOM     32  C   UNL     1      -4.423  14.051  23.264  0.00  0.00    +0.000 A 
ATOM     33  C   UNL     1      -3.033  13.982  23.504  0.00  0.00    +0.000 A 
ENDBRANCH  23  33
ENDBRANCH   1  25
TORSDOF 3
ENDMDL
