MODEL 1
REMARK VINA RESULT:      -8.2      0.000      0.000
REMARK  Name = 
REMARK  6 active torsions:
REMARK  status: ('A' for Active; 'I' for Inactive)
REMARK    1  A    between atoms: C_1  and  O_2
REMARK    2  A    between atoms: O_2  and  C_3
REMARK    3  A    between atoms: C_8  and  C_9
REMARK    4  A    between atoms: C_9  and  N_10
REMARK    5  A    between atoms: N_21  and  C_22
REMARK    6  A    between atoms: N_25  and  C_26
REMARK                            x       y       z     vdW  Elec       q    Type
REMARK                         _______ _______ _______ _____ _____    ______ ____
ROOT
ATOM      1  N   UNL     1       2.415   6.819  19.708  0.00  0.00    +0.000 N 
ATOM      2  C   UNL     1       2.578   6.628  18.268  0.00  0.00    +0.000 C 
ATOM      3  C   UNL     1       2.915   7.951  17.587  0.00  0.00    +0.000 C 
ATOM      4  C   UNL     1       1.845   8.984  17.902  0.00  0.00    +0.000 C 
ATOM      5  N   UNL     1       1.496   8.974  19.306  0.00  0.00    +0.000 N 
ATOM      6  C   UNL     1       1.729   7.910  20.158  0.00  0.00    +0.000 A 
ATOM      7  N   UNL     1       1.236   8.177  21.355  0.00  0.00    +0.000 NA
ATOM      8  C   UNL     1       0.698   9.432  21.254  0.00  0.00    +0.000 A 
ATOM      9  C   UNL     1       0.846   9.946  20.003  0.00  0.00    +0.000 A 
ATOM     10  C   UNL     1       0.373  11.231  19.617  0.00  0.00    +0.000 A 
ATOM     11  O   UNL     1       0.474  11.670  18.475  0.00  0.00    +0.000 OA
ATOM     12  N   UNL     1      -0.225  11.926  20.672  0.00  0.00    +0.000 N 
ATOM     13  C   UNL     1      -0.725  13.264  20.414  0.00  0.00    +0.000 C 
ATOM     14  C   UNL     1      -0.427  11.424  21.974  0.00  0.00    +0.000 A 
ATOM     15  O   UNL     1      -1.015  12.096  22.827  0.00  0.00    +0.000 OA
ATOM     16  N   UNL     1       0.057  10.141  22.246  0.00  0.00    +0.000 N 
ATOM     17  C   UNL     1      -0.154   9.547  23.553  0.00  0.00    +0.000 C 
ENDROOT
BRANCH   1  18
ATOM     18  C   UNL     1       2.470   5.596  20.530  0.00  0.00    +0.000 C 
BRANCH  18  24
ATOM     19  C   UNL     1       3.630   3.763  19.122  0.00  0.00    +0.000 A 
ATOM     20  C   UNL     1       3.508   2.710  18.199  0.00  0.00    +0.000 A 
ATOM     21  C   UNL     1       2.267   2.146  17.912  0.00  0.00    +0.000 A 
ATOM     22  C   UNL     1       1.128   2.642  18.530  0.00  0.00    +0.000 A 
ATOM     23  C   UNL     1       1.226   3.733  19.393  0.00  0.00    +0.000 A 
ATOM     24  C   UNL     1       2.468   4.325  19.694  0.00  0.00    +0.000 A 
BRANCH  19  26
ATOM     25  C   UNL     1       5.740   4.559  18.399  0.00  0.00    +0.000 C 
ATOM     26  O   UNL     1       4.850   4.282  19.486  0.00  0.00    +0.000 OA
ENDBRANCH  19  26
ENDBRANCH  18  24
ENDBRANCH   1  18
TORSDOF 3
ENDMDL
MODEL 2
REMARK VINA RESULT:      -7.4      2.108      7.682
REMARK  Name = 
REMARK  6 active torsions:
REMARK  status: ('A' for Active; 'I' for Inactive)
REMARK    1  A    between atoms: C_1  and  O_2
REMARK    2  A    between atoms: O_2  and  C_3
REMARK    3  A    between atoms: C_8  and  C_9
REMARK    4  A    between atoms: C_9  and  N_10
REMARK    5  A    between atoms: N_21  and  C_22
REMARK    6  A    between atoms: N_25  and  C_26
REMARK                            x       y       z     vdW  Elec       q    Type
REMARK                         _______ _______ _______ _____ _____    ______ ____
ROOT
ATOM      1  N   UNL     1       1.160   9.497  19.568  0.00  0.00    +0.000 N 
ATOM      2  C   UNL     1       0.131   9.384  20.601  0.00  0.00    +0.000 C 
ATOM      3  C   UNL     1       0.635   8.542  21.769  0.00  0.00    +0.000 C 
ATOM      4  C   UNL     1       1.086   7.178  21.269  0.00  0.00    +0.000 C 
ATOM      5  N   UNL     1       1.892   7.293  20.074  0.00  0.00    +0.000 N 
ATOM      6  C   UNL     1       1.886   8.391  19.234  0.00  0.00    +0.000 A 
ATOM      7  N   UNL     1       2.672   8.166  18.195  0.00  0.00    +0.000 NA
ATOM      8  C   UNL     1       3.187   6.913  18.395  0.00  0.00    +0.000 A 
ATOM      9  C   UNL     1       2.725   6.354  19.546  0.00  0.00    +0.000 A 
ATOM     10  C   UNL     1       3.091   5.054  19.995  0.00  0.00    +0.000 A 
ATOM     11  O   UNL     1       2.636   4.542  21.013  0.00  0.00    +0.000 OA
ATOM     12  N   UNL     1       4.011   4.429  19.147  0.00  0.00    +0.000 N 
ATOM     13  C   UNL     1       4.487   3.107  19.511  0.00  0.00    +0.000 C 
ATOM     14  C   UNL     1       4.495   4.956  17.933  0.00  0.00    +0.000 A 
ATOM     15  O   UNL     1       5.267   4.304  17.223  0.00  0.00    +0.000 OA
ATOM     16  N   UNL     1       4.057   6.233  17.570  0.00  0.00    +0.000 N 
ATOM     17  C   UNL     1       4.482   6.818  16.312  0.00  0.00    +0.000 C 
ENDROOT
BRANCH   1  18
ATOM     18  C   UNL     1       0.965  10.575  18.581  0.00  0.00    +0.000 C 
BRANCH  18  24
ATOM     19  C   UNL     1      -1.249  11.893  18.792  0.00  0.00    +0.000 A 
ATOM     20  C   UNL     1      -2.642  11.926  18.607  0.00  0.00    +0.000 A 
ATOM     21  C   UNL     1      -3.285  10.970  17.825  0.00  0.00    +0.000 A 
ATOM     22  C   UNL     1      -2.545   9.955  17.233  0.00  0.00    +0.000 A 
ATOM     23  C   UNL     1      -1.173   9.870  17.467  0.00  0.00    +0.000 A 
ATOM     24  C   UNL     1      -0.501  10.821  18.260  0.00  0.00    +0.000 A 
BRANCH  19  26
ATOM     25  C   UNL     1      -0.251  14.041  18.734  0.00  0.00    +0.000 C 
ATOM     26  O   UNL     1      -0.579  12.870  19.490  0.00  0.00    +0.000 OA
ENDBRANCH  19  26
ENDBRANCH  18  24
ENDBRANCH   1  18
TORSDOF 3
ENDMDL
MODEL 3
REMARK VINA RESULT:      -7.4      1.052      1.721
REMARK  Name = 
REMARK  6 active torsions:
REMARK  status: ('A' for Active; 'I' for Inactive)
REMARK    1  A    between atoms: C_1  and  O_2
REMARK    2  A    between atoms: O_2  and  C_3
REMARK    3  A    between atoms: C_8  and  C_9
REMARK    4  A    between atoms: C_9  and  N_10
REMARK    5  A    between atoms: N_21  and  C_22
REMARK    6  A    between atoms: N_25  and  C_26
REMARK                            x       y       z     vdW  Elec       q    Type
REMARK                         _______ _______ _______ _____ _____    ______ ____
ROOT
ATOM      1  N   UNL     1       2.448   6.947  19.530  0.00  0.00    +0.000 N 
ATOM      2  C   UNL     1       2.519   6.822  18.075  0.00  0.00    +0.000 C 
ATOM      3  C   UNL     1       2.749   8.186  17.431  0.00  0.00    +0.000 C 
ATOM      4  C   UNL     1       1.658   9.153  17.862  0.00  0.00    +0.000 C 
ATOM      5  N   UNL     1       1.408   9.071  19.284  0.00  0.00    +0.000 N 
ATOM      6  C   UNL     1       1.747   7.986  20.072  0.00  0.00    +0.000 A 
ATOM      7  N   UNL     1       1.327   8.180  21.310  0.00  0.00    +0.000 NA
ATOM      8  C   UNL     1       0.728   9.411  21.300  0.00  0.00    +0.000 A 
ATOM      9  C   UNL     1       0.765   9.982  20.065  0.00  0.00    +0.000 A 
ATOM     10  C   UNL     1       0.209  11.257  19.768  0.00  0.00    +0.000 A 
ATOM     11  O   UNL     1       0.211  11.745  18.642  0.00  0.00    +0.000 OA
ATOM     12  N   UNL     1      -0.345  11.880  20.890  0.00  0.00    +0.000 N 
ATOM     13  C   UNL     1      -0.921  13.202  20.725  0.00  0.00    +0.000 C 
ATOM     14  C   UNL     1      -0.433  11.317  22.180  0.00  0.00    +0.000 A 
ATOM     15  O   UNL     1      -0.989  11.925  23.099  0.00  0.00    +0.000 OA
ATOM     16  N   UNL     1       0.125  10.049  22.363  0.00  0.00    +0.000 N 
ATOM     17  C   UNL     1       0.033   9.393  23.654  0.00  0.00    +0.000 C 
ENDROOT
BRANCH   1  18
ATOM     18  C   UNL     1       2.615   5.696  20.292  0.00  0.00    +0.000 C 
BRANCH  18  24
ATOM     19  C   UNL     1       2.058   3.284  19.548  0.00  0.00    +0.000 A 
ATOM     20  C   UNL     1       2.428   2.145  18.813  0.00  0.00    +0.000 A 
ATOM     21  C   UNL     1       3.445   2.203  17.863  0.00  0.00    +0.000 A 
ATOM     22  C   UNL     1       4.120   3.398  17.651  0.00  0.00    +0.000 A 
ATOM     23  C   UNL     1       3.811   4.516  18.425  0.00  0.00    +0.000 A 
ATOM     24  C   UNL     1       2.791   4.480  19.396  0.00  0.00    +0.000 A 
BRANCH  19  26
ATOM     25  C   UNL     1       1.276   2.663  21.697  0.00  0.00    +0.000 C 
ATOM     26  O   UNL     1       1.003   3.275  20.431  0.00  0.00    +0.000 OA
ENDBRANCH  19  26
ENDBRANCH  18  24
ENDBRANCH   1  18
TORSDOF 3
ENDMDL
MODEL 4
REMARK VINA RESULT:      -7.2      2.117      8.136
REMARK  Name = 
REMARK  6 active torsions:
REMARK  status: ('A' for Active; 'I' for Inactive)
REMARK    1  A    between atoms: C_1  and  O_2
REMARK    2  A    between atoms: O_2  and  C_3
REMARK    3  A    between atoms: C_8  and  C_9
REMARK    4  A    between atoms: C_9  and  N_10
REMARK    5  A    between atoms: N_21  and  C_22
REMARK    6  A    between atoms: N_25  and  C_26
REMARK                            x       y       z     vdW  Elec       q    Type
REMARK                         _______ _______ _______ _____ _____    ______ ____
ROOT
ATOM      1  N   UNL     1       1.408   9.581  19.179  0.00  0.00    +0.000 N 
ATOM      2  C   UNL     1       0.328   9.560  20.164  0.00  0.00    +0.000 C 
ATOM      3  C   UNL     1       0.740   8.758  21.394  0.00  0.00    +0.000 C 
ATOM      4  C   UNL     1       1.156   7.354  20.982  0.00  0.00    +0.000 C 
ATOM      5  N   UNL     1       2.022   7.377  19.824  0.00  0.00    +0.000 N 
ATOM      6  C   UNL     1       2.102   8.432  18.934  0.00  0.00    +0.000 A 
ATOM      7  N   UNL     1       2.926   8.124  17.946  0.00  0.00    +0.000 NA
ATOM      8  C   UNL     1       3.377   6.863  18.231  0.00  0.00    +0.000 A 
ATOM      9  C   UNL     1       2.837   6.381  19.382  0.00  0.00    +0.000 A 
ATOM     10  C   UNL     1       3.126   5.091  19.910  0.00  0.00    +0.000 A 
ATOM     11  O   UNL     1       2.603   4.649  20.928  0.00  0.00    +0.000 OA
ATOM     12  N   UNL     1       4.058   4.389  19.139  0.00  0.00    +0.000 N 
ATOM     13  C   UNL     1       4.460   3.068  19.588  0.00  0.00    +0.000 C 
ATOM     14  C   UNL     1       4.621   4.835  17.926  0.00  0.00    +0.000 A 
ATOM     15  O   UNL     1       5.397   4.118  17.287  0.00  0.00    +0.000 OA
ATOM     16  N   UNL     1       4.255   6.109  17.482  0.00  0.00    +0.000 N 
ATOM     17  C   UNL     1       4.764   6.613  16.221  0.00  0.00    +0.000 C 
ENDROOT
BRANCH   1  18
ATOM     18  C   UNL     1       1.306  10.616  18.134  0.00  0.00    +0.000 C 
BRANCH  18  24
ATOM     19  C   UNL     1      -0.207  12.670  18.550  0.00  0.00    +0.000 A 
ATOM     20  C   UNL     1      -0.311  14.022  18.923  0.00  0.00    +0.000 A 
ATOM     21  C   UNL     1       0.755  14.682  19.530  0.00  0.00    +0.000 A 
ATOM     22  C   UNL     1       1.946  14.006  19.752  0.00  0.00    +0.000 A 
ATOM     23  C   UNL     1       2.086  12.687  19.321  0.00  0.00    +0.000 A 
ATOM     24  C   UNL     1       1.025  11.999  18.700  0.00  0.00    +0.000 A 
BRANCH  19  26
ATOM     25  C   UNL     1      -2.414  11.875  18.880  0.00  0.00    +0.000 C 
ATOM     26  O   UNL     1      -1.269  11.971  18.026  0.00  0.00    +0.000 OA
ENDBRANCH  19  26
ENDBRANCH  18  24
ENDBRANCH   1  18
TORSDOF 3
ENDMDL
MODEL 5
REMARK VINA RESULT:      -7.2      1.034      1.902
REMARK  Name = 
REMARK  6 active torsions:
REMARK  status: ('A' for Active; 'I' for Inactive)
REMARK    1  A    between atoms: C_1  and  O_2
REMARK    2  A    between atoms: O_2  and  C_3
REMARK    3  A    between atoms: C_8  and  C_9
REMARK    4  A    between atoms: C_9  and  N_10
REMARK    5  A    between atoms: N_21  and  C_22
REMARK    6  A    between atoms: N_25  and  C_26
REMARK                            x       y       z     vdW  Elec       q    Type
REMARK                         _______ _______ _______ _____ _____    ______ ____
ROOT
ATOM      1  N   UNL     1       2.225   7.385  19.495  0.00  0.00    +0.000 N 
ATOM      2  C   UNL     1       2.373   7.340  18.041  0.00  0.00    +0.000 C 
ATOM      3  C   UNL     1       2.679   8.730  17.490  0.00  0.00    +0.000 C 
ATOM      4  C   UNL     1       1.595   9.707  17.918  0.00  0.00    +0.000 C 
ATOM      5  N   UNL     1       1.265   9.552  19.318  0.00  0.00    +0.000 N 
ATOM      6  C   UNL     1       1.527   8.414  20.057  0.00  0.00    +0.000 A 
ATOM      7  N   UNL     1       1.045   8.552  21.281  0.00  0.00    +0.000 NA
ATOM      8  C   UNL     1       0.484   9.801  21.310  0.00  0.00    +0.000 A 
ATOM      9  C   UNL     1       0.607  10.439  20.114  0.00  0.00    +0.000 A 
ATOM     10  C   UNL     1       0.107  11.747  19.862  0.00  0.00    +0.000 A 
ATOM     11  O   UNL     1       0.186  12.297  18.768  0.00  0.00    +0.000 OA
ATOM     12  N   UNL     1      -0.489  12.323  20.988  0.00  0.00    +0.000 N 
ATOM     13  C   UNL     1      -1.015  13.671  20.869  0.00  0.00    +0.000 C 
ATOM     14  C   UNL     1      -0.666  11.692  22.236  0.00  0.00    +0.000 A 
ATOM     15  O   UNL     1      -1.254  12.265  23.158  0.00  0.00    +0.000 OA
ATOM     16  N   UNL     1      -0.157  10.398  22.375  0.00  0.00    +0.000 N 
ATOM     17  C   UNL     1      -0.340   9.673  23.618  0.00  0.00    +0.000 C 
ENDROOT
BRANCH   1  18
ATOM     18  C   UNL     1       2.312   6.088  20.191  0.00  0.00    +0.000 C 
BRANCH  18  24
ATOM     19  C   UNL     1       2.618   3.909  18.834  0.00  0.00    +0.000 A 
ATOM     20  C   UNL     1       3.489   2.923  18.338  0.00  0.00    +0.000 A 
ATOM     21  C   UNL     1       4.868   3.116  18.341  0.00  0.00    +0.000 A 
ATOM     22  C   UNL     1       5.397   4.290  18.860  0.00  0.00    +0.000 A 
ATOM     23  C   UNL     1       4.549   5.244  19.420  0.00  0.00    +0.000 A 
ATOM     24  C   UNL     1       3.151   5.069  19.435  0.00  0.00    +0.000 A 
BRANCH  19  26
ATOM     25  C   UNL     1       0.763   2.437  18.836  0.00  0.00    +0.000 C 
ATOM     26  O   UNL     1       1.251   3.781  18.767  0.00  0.00    +0.000 OA
ENDBRANCH  19  26
ENDBRANCH  18  24
ENDBRANCH   1  18
TORSDOF 3
ENDMDL
MODEL 6
REMARK VINA RESULT:      -7.1      5.970      8.564
REMARK  Name = 
REMARK  6 active torsions:
REMARK  status: ('A' for Active; 'I' for Inactive)
REMARK    1  A    between atoms: C_1  and  O_2
REMARK    2  A    between atoms: O_2  and  C_3
REMARK    3  A    between atoms: C_8  and  C_9
REMARK    4  A    between atoms: C_9  and  N_10
REMARK    5  A    between atoms: N_21  and  C_22
REMARK    6  A    between atoms: N_25  and  C_26
REMARK                            x       y       z     vdW  Elec       q    Type
REMARK                         _______ _______ _______ _____ _____    ______ ____
ROOT
ATOM      1  N   UNL     1      -4.736  11.225  17.654  0.00  0.00    +0.000 N 
ATOM      2  C   UNL     1      -4.382  10.783  16.306  0.00  0.00    +0.000 C 
ATOM      3  C   UNL     1      -3.093   9.967  16.330  0.00  0.00    +0.000 C 
ATOM      4  C   UNL     1      -1.978  10.780  16.970  0.00  0.00    +0.000 C 
ATOM      5  N   UNL     1      -2.427  11.438  18.177  0.00  0.00    +0.000 N 
ATOM      6  C   UNL     1      -3.752  11.693  18.477  0.00  0.00    +0.000 A 
ATOM      7  N   UNL     1      -3.835  12.367  19.611  0.00  0.00    +0.000 NA
ATOM      8  C   UNL     1      -2.542  12.525  20.033  0.00  0.00    +0.000 A 
ATOM      9  C   UNL     1      -1.655  11.961  19.169  0.00  0.00    +0.000 A 
ATOM     10  C   UNL     1      -0.245  11.985  19.357  0.00  0.00    +0.000 A 
ATOM     11  O   UNL     1       0.549  11.509  18.551  0.00  0.00    +0.000 OA
ATOM     12  N   UNL     1       0.130  12.614  20.548  0.00  0.00    +0.000 N 
ATOM     13  C   UNL     1       1.544  12.678  20.872  0.00  0.00    +0.000 C 
ATOM     14  C   UNL     1      -0.748  13.237  21.458  0.00  0.00    +0.000 A 
ATOM     15  O   UNL     1      -0.316  13.816  22.460  0.00  0.00    +0.000 OA
ATOM     16  N   UNL     1      -2.114  13.177  21.170  0.00  0.00    +0.000 N 
ATOM     17  C   UNL     1      -3.071  13.833  22.041  0.00  0.00    +0.000 C 
ENDROOT
BRANCH   1  18
ATOM     18  C   UNL     1      -6.126  11.679  17.839  0.00  0.00    +0.000 C 
BRANCH  18  24
ATOM     19  C   UNL     1      -7.461  11.594  20.051  0.00  0.00    +0.000 A 
ATOM     20  C   UNL     1      -7.917  10.835  21.143  0.00  0.00    +0.000 A 
ATOM     21  C   UNL     1      -7.856   9.444  21.125  0.00  0.00    +0.000 A 
ATOM     22  C   UNL     1      -7.319   8.793  20.023  0.00  0.00    +0.000 A 
ATOM     23  C   UNL     1      -6.798   9.537  18.964  0.00  0.00    +0.000 A 
ATOM     24  C   UNL     1      -6.842  10.945  18.962  0.00  0.00    +0.000 A 
BRANCH  19  26
ATOM     25  C   UNL     1      -6.862  13.671  21.019  0.00  0.00    +0.000 C 
ATOM     26  O   UNL     1      -7.586  12.963  20.007  0.00  0.00    +0.000 OA
ENDBRANCH  19  26
ENDBRANCH  18  24
ENDBRANCH   1  18
TORSDOF 3
ENDMDL
MODEL 7
REMARK VINA RESULT:      -7.0      2.128      3.926
REMARK  Name = 
REMARK  6 active torsions:
REMARK  status: ('A' for Active; 'I' for Inactive)
REMARK    1  A    between atoms: C_1  and  O_2
REMARK    2  A    between atoms: O_2  and  C_3
REMARK    3  A    between atoms: C_8  and  C_9
REMARK    4  A    between atoms: C_9  and  N_10
REMARK    5  A    between atoms: N_21  and  C_22
REMARK    6  A    between atoms: N_25  and  C_26
REMARK                            x       y       z     vdW  Elec       q    Type
REMARK                         _______ _______ _______ _____ _____    ______ ____
ROOT
ATOM      1  N   UNL     1       3.288   6.670  17.857  0.00  0.00    +0.000 N 
ATOM      2  C   UNL     1       3.463   5.443  18.633  0.00  0.00    +0.000 C 
ATOM      3  C   UNL     1       2.194   5.118  19.416  0.00  0.00    +0.000 C 
ATOM      4  C   UNL     1       1.815   6.296  20.299  0.00  0.00    +0.000 C 
ATOM      5  N   UNL     1       1.908   7.548  19.582  0.00  0.00    +0.000 N 
ATOM      6  C   UNL     1       2.658   7.733  18.435  0.00  0.00    +0.000 A 
ATOM      7  N   UNL     1       2.598   8.999  18.057  0.00  0.00    +0.000 NA
ATOM      8  C   UNL     1       1.787   9.612  18.975  0.00  0.00    +0.000 A 
ATOM      9  C   UNL     1       1.348   8.741  19.924  0.00  0.00    +0.000 A 
ATOM     10  C   UNL     1       0.498   9.111  21.003  0.00  0.00    +0.000 A 
ATOM     11  O   UNL     1       0.140   8.327  21.876  0.00  0.00    +0.000 OA
ATOM     12  N   UNL     1       0.128  10.459  20.961  0.00  0.00    +0.000 N 
ATOM     13  C   UNL     1      -0.764  10.956  21.993  0.00  0.00    +0.000 C 
ATOM     14  C   UNL     1       0.580  11.404  20.017  0.00  0.00    +0.000 A 
ATOM     15  O   UNL     1       0.238  12.588  20.093  0.00  0.00    +0.000 OA
ATOM     16  N   UNL     1       1.431  10.943  19.008  0.00  0.00    +0.000 N 
ATOM     17  C   UNL     1       1.967  11.870  18.029  0.00  0.00    +0.000 C 
ENDROOT
BRANCH   1  18
ATOM     18  C   UNL     1       4.266   6.892  16.776  0.00  0.00    +0.000 C 
BRANCH  18  24
ATOM     19  C   UNL     1       5.959   5.020  16.217  0.00  0.00    +0.000 A 
ATOM     20  C   UNL     1       7.069   4.254  16.616  0.00  0.00    +0.000 A 
ATOM     21  C   UNL     1       7.846   4.632  17.708  0.00  0.00    +0.000 A 
ATOM     22  C   UNL     1       7.511   5.770  18.429  0.00  0.00    +0.000 A 
ATOM     23  C   UNL     1       6.371   6.497  18.088  0.00  0.00    +0.000 A 
ATOM     24  C   UNL     1       5.566   6.132  16.992  0.00  0.00    +0.000 A 
BRANCH  19  26
ATOM     25  C   UNL     1       5.947   4.039  14.061  0.00  0.00    +0.000 C 
ATOM     26  O   UNL     1       5.225   4.717  15.095  0.00  0.00    +0.000 OA
ENDBRANCH  19  26
ENDBRANCH  18  24
ENDBRANCH   1  18
TORSDOF 3
ENDMDL
MODEL 8
REMARK VINA RESULT:      -6.9      1.994      3.373
REMARK  Name = 
REMARK  6 active torsions:
REMARK  status: ('A' for Active; 'I' for Inactive)
REMARK    1  A    between atoms: C_1  and  O_2
REMARK    2  A    between atoms: O_2  and  C_3
REMARK    3  A    between atoms: C_8  and  C_9
REMARK    4  A    between atoms: C_9  and  N_10
REMARK    5  A    between atoms: N_21  and  C_22
REMARK    6  A    between atoms: N_25  and  C_26
REMARK                            x       y       z     vdW  Elec       q    Type
REMARK                         _______ _______ _______ _____ _____    ______ ____
ROOT
ATOM      1  N   UNL     1       2.701   7.260  18.622  0.00  0.00    +0.000 N 
ATOM      2  C   UNL     1       3.065   6.121  19.464  0.00  0.00    +0.000 C 
ATOM      3  C   UNL     1       1.901   5.733  20.372  0.00  0.00    +0.000 C 
ATOM      4  C   UNL     1       1.468   6.933  21.200  0.00  0.00    +0.000 C 
ATOM      5  N   UNL     1       1.372   8.128  20.391  0.00  0.00    +0.000 N 
ATOM      6  C   UNL     1       2.008   8.297  19.175  0.00  0.00    +0.000 A 
ATOM      7  N   UNL     1       1.785   9.517  18.716  0.00  0.00    +0.000 NA
ATOM      8  C   UNL     1       0.987  10.116  19.654  0.00  0.00    +0.000 A 
ATOM      9  C   UNL     1       0.716   9.282  20.695  0.00  0.00    +0.000 A 
ATOM     10  C   UNL     1      -0.083   9.649  21.813  0.00  0.00    +0.000 A 
ATOM     11  O   UNL     1      -0.288   8.904  22.767  0.00  0.00    +0.000 OA
ATOM     12  N   UNL     1      -0.596  10.945  21.708  0.00  0.00    +0.000 N 
ATOM     13  C   UNL     1      -1.453  11.430  22.775  0.00  0.00    +0.000 C 
ATOM     14  C   UNL     1      -0.321  11.854  20.667  0.00  0.00    +0.000 A 
ATOM     15  O   UNL     1      -0.779  13.000  20.688  0.00  0.00    +0.000 OA
ATOM     16  N   UNL     1       0.495  11.403  19.624  0.00  0.00    +0.000 N 
ATOM     17  C   UNL     1       0.853  12.299  18.541  0.00  0.00    +0.000 C 
ENDROOT
BRANCH   1  18
ATOM     18  C   UNL     1       3.564   7.494  17.449  0.00  0.00    +0.000 C 
BRANCH  18  24
ATOM     19  C   UNL     1       5.856   6.449  16.863  0.00  0.00    +0.000 A 
ATOM     20  C   UNL     1       6.577   5.337  16.395  0.00  0.00    +0.000 A 
ATOM     21  C   UNL     1       5.980   4.083  16.300  0.00  0.00    +0.000 A 
ATOM     22  C   UNL     1       4.647   3.928  16.653  0.00  0.00    +0.000 A 
ATOM     23  C   UNL     1       3.901   5.037  17.050  0.00  0.00    +0.000 A 
ATOM     24  C   UNL     1       4.480   6.317  17.148  0.00  0.00    +0.000 A 
BRANCH  19  26
ATOM     25  C   UNL     1       7.724   7.653  17.682  0.00  0.00    +0.000 C 
ATOM     26  O   UNL     1       6.442   7.680  17.045  0.00  0.00    +0.000 OA
ENDBRANCH  19  26
ENDBRANCH  18  24
ENDBRANCH   1  18
TORSDOF 3
ENDMDL
MODEL 9
REMARK VINA RESULT:      -6.9      3.860      6.436
REMARK  Name = 
REMARK  6 active torsions:
REMARK  status: ('A' for Active; 'I' for Inactive)
REMARK    1  A    between atoms: C_1  and  O_2
REMARK    2  A    between atoms: O_2  and  C_3
REMARK    3  A    between atoms: C_8  and  C_9
REMARK    4  A    between atoms: C_9  and  N_10
REMARK    5  A    between atoms: N_21  and  C_22
REMARK    6  A    between atoms: N_25  and  C_26
REMARK                            x       y       z     vdW  Elec       q    Type
REMARK                         _______ _______ _______ _____ _____    ______ ____
ROOT
ATOM      1  N   UNL     1      -1.449  11.324  18.368  0.00  0.00    +0.000 N 
ATOM      2  C   UNL     1      -1.745  10.144  17.558  0.00  0.00    +0.000 C 
ATOM      3  C   UNL     1      -3.055  10.330  16.798  0.00  0.00    +0.000 C 
ATOM      4  C   UNL     1      -4.180  10.643  17.772  0.00  0.00    +0.000 C 
ATOM      5  N   UNL     1      -3.776  11.631  18.748  0.00  0.00    +0.000 N 
ATOM      6  C   UNL     1      -2.461  11.919  19.065  0.00  0.00    +0.000 A 
ATOM      7  N   UNL     1      -2.419  12.812  20.039  0.00  0.00    +0.000 NA
ATOM      8  C   UNL     1      -3.727  13.097  20.326  0.00  0.00    +0.000 A 
ATOM      9  C   UNL     1      -4.583  12.384  19.544  0.00  0.00    +0.000 A 
ATOM     10  C   UNL     1      -6.000  12.478  19.636  0.00  0.00    +0.000 A 
ATOM     11  O   UNL     1      -6.764  11.801  18.955  0.00  0.00    +0.000 OA
ATOM     12  N   UNL     1      -6.419  13.413  20.587  0.00  0.00    +0.000 N 
ATOM     13  C   UNL     1      -7.845  13.624  20.758  0.00  0.00    +0.000 C 
ATOM     14  C   UNL     1      -5.572  14.151  21.439  0.00  0.00    +0.000 A 
ATOM     15  O   UNL     1      -6.039  14.917  22.288  0.00  0.00    +0.000 OA
ATOM     16  N   UNL     1      -4.195  13.970  21.284  0.00  0.00    +0.000 N 
ATOM     17  C   UNL     1      -3.267  14.667  22.155  0.00  0.00    +0.000 C 
ENDROOT
BRANCH   1  18
ATOM     18  C   UNL     1      -0.059  11.447  18.843  0.00  0.00    +0.000 C 
BRANCH  18  24
ATOM     19  C   UNL     1       0.429   9.598  20.583  0.00  0.00    +0.000 A 
ATOM     20  C   UNL     1       1.181   8.467  20.945  0.00  0.00    +0.000 A 
ATOM     21  C   UNL     1       1.955   7.789  20.006  0.00  0.00    +0.000 A 
ATOM     22  C   UNL     1       2.004   8.246  18.697  0.00  0.00    +0.000 A 
ATOM     23  C   UNL     1       1.320   9.408  18.342  0.00  0.00    +0.000 A 
ATOM     24  C   UNL     1       0.536  10.115  19.274  0.00  0.00    +0.000 A 
BRANCH  19  26
ATOM     25  C   UNL     1      -0.338   9.765  22.818  0.00  0.00    +0.000 C 
ATOM     26  O   UNL     1      -0.407  10.237  21.468  0.00  0.00    +0.000 OA
ENDBRANCH  19  26
ENDBRANCH  18  24
ENDBRANCH   1  18
TORSDOF 3
ENDMDL
