MODEL 1
REMARK VINA RESULT:      -6.6      0.000      0.000
REMARK  Name = 
REMARK  5 active torsions:
REMARK  status: ('A' for Active; 'I' for Inactive)
REMARK    1  A    between atoms: N_1  and  C_2
REMARK    2  A    between atoms: C_5  and  N_6
REMARK    3  A    between atoms: C_19  and  C_20
REMARK    4  A    between atoms: C_20  and  O_22
REMARK    5  A    between atoms: N_24  and  C_25
REMARK                            x       y       z     vdW  Elec       q    Type
REMARK                         _______ _______ _______ _____ _____    ______ ____
ROOT
ATOM      1  C   UNL     1       2.625   8.079  18.208  0.00  0.00    +0.000 A 
ATOM      2  C   UNL     1       2.801   6.771  18.683  0.00  0.00    +0.000 A 
ATOM      3  F   UNL     1       3.497   5.937  17.890  0.00  0.00    +0.000 F 
ATOM      4  C   UNL     1       2.260   6.316  19.894  0.00  0.00    +0.000 A 
ATOM      5  C   UNL     1       1.496   7.253  20.629  0.00  0.00    +0.000 A 
ATOM      6  F   UNL     1       1.040   6.854  21.829  0.00  0.00    +0.000 F 
ATOM      7  C   UNL     1       1.209   8.558  20.165  0.00  0.00    +0.000 A 
ATOM      8  C   UNL     1       1.803   8.952  18.944  0.00  0.00    +0.000 A 
ATOM      9  C   UNL     1       1.590  10.340  18.450  0.00  0.00    +0.000 A 
ATOM     10  O   UNL     1       2.145  10.766  17.435  0.00  0.00    +0.000 OA
ATOM     11  C   UNL     1       0.727  11.252  19.220  0.00  0.00    +0.000 A 
ATOM     12  C   UNL     1       0.184  10.764  20.343  0.00  0.00    +0.000 A 
ATOM     13  N   UNL     1       0.340   9.478  20.838  0.00  0.00    +0.000 N 
ENDROOT
BRANCH   4  14
ATOM     14  N   UNL     1       2.373   4.994  20.375  0.00  0.00    +0.000 N 
ATOM     15  C   UNL     1       3.446   4.100  19.846  0.00  0.00    +0.000 C 
ATOM     16  C   UNL     1       2.649   2.870  19.308  0.00  0.00    +0.000 C 
ATOM     17  C   UNL     1       1.357   3.508  18.817  0.00  0.00    +0.000 C 
ATOM     18  C   UNL     1       1.116   4.198  20.158  0.00  0.00    +0.000 C 
ATOM     19  C   UNL     1       1.162   2.960  21.096  0.00  0.00    +0.000 C 
ATOM     20  N   UNL     1       2.159   2.046  20.453  0.00  0.00    +0.000 NA
ATOM     21  H   UNL     1       1.667   1.233  20.084  0.00  0.00    +0.000 HD
ENDBRANCH   4  14
BRANCH   1  22
ATOM     22  N   UNL     1       3.068   8.372  16.898  0.00  0.00    +0.000 N 
ATOM     23  H   UNL     1       3.483   7.576  16.420  0.00  0.00    +0.000 HD
ATOM     24  H   UNL     1       3.633   9.224  16.838  0.00  0.00    +0.000 HD
ENDBRANCH   1  22
BRANCH  13  25
ATOM     25  C   UNL     1      -0.342   9.170  22.116  0.00  0.00    +0.000 C 
ATOM     26  C   UNL     1       0.314   9.473  23.451  0.00  0.00    +0.000 C 
ATOM     27  C   UNL     1      -0.902  10.230  23.033  0.00  0.00    +0.000 C 
ENDBRANCH  13  25
BRANCH  11  28
ATOM     28  C   UNL     1       0.461  12.650  18.812  0.00  0.00    +0.000 C 
ATOM     29  O   UNL     1       0.908  13.616  19.409  0.00  0.00    +0.000 OA
BRANCH  28  30
ATOM     30  O   UNL     1      -0.325  12.779  17.719  0.00  0.00    +0.000 OA
ATOM     31  H   UNL     1      -1.131  13.333  17.865  0.00  0.00    +0.000 HD
ENDBRANCH  28  30
ENDBRANCH  11  28
TORSDOF 5
ENDMDL
MODEL 2
REMARK VINA RESULT:      -6.5      5.103      8.802
REMARK  Name = 
REMARK  5 active torsions:
REMARK  status: ('A' for Active; 'I' for Inactive)
REMARK    1  A    between atoms: N_1  and  C_2
REMARK    2  A    between atoms: C_5  and  N_6
REMARK    3  A    between atoms: C_19  and  C_20
REMARK    4  A    between atoms: C_20  and  O_22
REMARK    5  A    between atoms: N_24  and  C_25
REMARK                            x       y       z     vdW  Elec       q    Type
REMARK                         _______ _______ _______ _____ _____    ______ ____
ROOT
ATOM      1  C   UNL     1      -1.663  12.549  21.074  0.00  0.00    +0.000 A 
ATOM      2  C   UNL     1      -2.930  13.120  21.264  0.00  0.00    +0.000 A 
ATOM      3  F   UNL     1      -3.109  13.809  22.405  0.00  0.00    +0.000 F 
ATOM      4  C   UNL     1      -3.985  12.965  20.353  0.00  0.00    +0.000 A 
ATOM      5  C   UNL     1      -3.714  12.175  19.210  0.00  0.00    +0.000 A 
ATOM      6  F   UNL     1      -4.690  12.087  18.291  0.00  0.00    +0.000 F 
ATOM      7  C   UNL     1      -2.487  11.502  19.003  0.00  0.00    +0.000 A 
ATOM      8  C   UNL     1      -1.465  11.719  19.955  0.00  0.00    +0.000 A 
ATOM      9  C   UNL     1      -0.133  11.091  19.743  0.00  0.00    +0.000 A 
ATOM     10  O   UNL     1       0.820  11.306  20.494  0.00  0.00    +0.000 OA
ATOM     11  C   UNL     1       0.073  10.219  18.573  0.00  0.00    +0.000 A 
ATOM     12  C   UNL     1      -0.975  10.052  17.754  0.00  0.00    +0.000 A 
ATOM     13  N   UNL     1      -2.237  10.603  17.915  0.00  0.00    +0.000 N 
ENDROOT
BRANCH   4  14
ATOM     14  N   UNL     1      -5.285  13.481  20.538  0.00  0.00    +0.000 N 
ATOM     15  C   UNL     1      -5.481  14.746  21.309  0.00  0.00    +0.000 C 
ATOM     16  C   UNL     1      -6.469  14.322  22.441  0.00  0.00    +0.000 C 
ATOM     17  C   UNL     1      -6.061  12.880  22.707  0.00  0.00    +0.000 C 
ATOM     18  C   UNL     1      -6.193  12.505  21.232  0.00  0.00    +0.000 C 
ATOM     19  C   UNL     1      -7.661  12.952  20.985  0.00  0.00    +0.000 C 
ATOM     20  N   UNL     1      -7.839  14.144  21.872  0.00  0.00    +0.000 NA
ATOM     21  H   UNL     1      -8.477  13.897  22.629  0.00  0.00    +0.000 HD
ENDBRANCH   4  14
BRANCH   1  22
ATOM     22  N   UNL     1      -0.736  12.628  22.138  0.00  0.00    +0.000 N 
ATOM     23  H   UNL     1      -0.437  13.577  22.350  0.00  0.00    +0.000 HD
ATOM     24  H   UNL     1       0.040  11.964  22.055  0.00  0.00    +0.000 HD
ENDBRANCH   1  22
BRANCH  13  25
ATOM     25  C   UNL     1      -3.236  10.295  16.865  0.00  0.00    +0.000 C 
ATOM     26  C   UNL     1      -3.283  11.081  15.568  0.00  0.00    +0.000 C 
ATOM     27  C   UNL     1      -2.882   9.644  15.551  0.00  0.00    +0.000 C 
ENDBRANCH  13  25
BRANCH  11  28
ATOM     28  C   UNL     1       1.362   9.556  18.275  0.00  0.00    +0.000 C 
ATOM     29  O   UNL     1       1.739   8.543  18.844  0.00  0.00    +0.000 OA
BRANCH  28  30
ATOM     30  O   UNL     1       2.101  10.163  17.320  0.00  0.00    +0.000 OA
ATOM     31  H   UNL     1       1.640  10.911  16.867  0.00  0.00    +0.000 HD
ENDBRANCH  28  30
ENDBRANCH  11  28
TORSDOF 5
ENDMDL
MODEL 3
REMARK VINA RESULT:      -6.3      2.804      6.506
REMARK  Name = 
REMARK  5 active torsions:
REMARK  status: ('A' for Active; 'I' for Inactive)
REMARK    1  A    between atoms: N_1  and  C_2
REMARK    2  A    between atoms: C_5  and  N_6
REMARK    3  A    between atoms: C_19  and  C_20
REMARK    4  A    between atoms: C_20  and  O_22
REMARK    5  A    between atoms: N_24  and  C_25
REMARK                            x       y       z     vdW  Elec       q    Type
REMARK                         _______ _______ _______ _____ _____    ______ ____
ROOT
ATOM      1  C   UNL     1       2.575   8.289  18.204  0.00  0.00    +0.000 A 
ATOM      2  C   UNL     1       1.613   8.954  18.978  0.00  0.00    +0.000 A 
ATOM      3  F   UNL     1       1.348  10.228  18.637  0.00  0.00    +0.000 F 
ATOM      4  C   UNL     1       0.973   8.365  20.078  0.00  0.00    +0.000 A 
ATOM      5  C   UNL     1       1.361   7.040  20.392  0.00  0.00    +0.000 A 
ATOM      6  F   UNL     1       0.698   6.437  21.392  0.00  0.00    +0.000 F 
ATOM      7  C   UNL     1       2.385   6.346  19.705  0.00  0.00    +0.000 A 
ATOM      8  C   UNL     1       2.972   6.997  18.596  0.00  0.00    +0.000 A 
ATOM      9  C   UNL     1       4.003   6.280  17.798  0.00  0.00    +0.000 A 
ATOM     10  O   UNL     1       4.493   6.764  16.776  0.00  0.00    +0.000 OA
ATOM     11  C   UNL     1       4.421   4.929  18.212  0.00  0.00    +0.000 A 
ATOM     12  C   UNL     1       3.826   4.421  19.300  0.00  0.00    +0.000 A 
ATOM     13  N   UNL     1       2.873   5.053  20.084  0.00  0.00    +0.000 N 
ENDROOT
BRANCH   4  14
ATOM     14  N   UNL     1       0.041   9.022  20.909  0.00  0.00    +0.000 N 
ATOM     15  C   UNL     1      -0.813  10.113  20.351  0.00  0.00    +0.000 C 
ATOM     16  C   UNL     1      -0.497  11.324  21.284  0.00  0.00    +0.000 C 
ATOM     17  C   UNL     1       0.966  11.092  21.634  0.00  0.00    +0.000 C 
ATOM     18  C   UNL     1       0.692   9.664  22.102  0.00  0.00    +0.000 C 
ATOM     19  C   UNL     1      -0.411   9.948  23.159  0.00  0.00    +0.000 C 
ATOM     20  N   UNL     1      -1.156  11.124  22.609  0.00  0.00    +0.000 NA
ATOM     21  H   UNL     1      -0.964  11.936  23.196  0.00  0.00    +0.000 HD
ENDBRANCH   4  14
BRANCH   1  22
ATOM     22  N   UNL     1       3.275   9.039  17.231  0.00  0.00    +0.000 N 
ATOM     23  H   UNL     1       3.312   8.589  16.319  0.00  0.00    +0.000 HD
ATOM     24  H   UNL     1       4.183   9.383  17.554  0.00  0.00    +0.000 HD
ENDBRANCH   1  22
BRANCH  13  25
ATOM     25  C   UNL     1       2.339   4.283  21.231  0.00  0.00    +0.000 C 
ATOM     26  C   UNL     1       1.245   3.248  21.044  0.00  0.00    +0.000 C 
ATOM     27  C   UNL     1       2.615   2.815  21.444  0.00  0.00    +0.000 C 
ENDBRANCH  13  25
BRANCH  11  28
ATOM     28  C   UNL     1       5.433   4.136  17.479  0.00  0.00    +0.000 C 
ATOM     29  O   UNL     1       5.217   3.615  16.396  0.00  0.00    +0.000 OA
BRANCH  28  30
ATOM     30  O   UNL     1       6.626   4.026  18.106  0.00  0.00    +0.000 OA
ATOM     31  H   UNL     1       6.564   3.709  19.040  0.00  0.00    +0.000 HD
ENDBRANCH  28  30
ENDBRANCH  11  28
TORSDOF 5
ENDMDL
MODEL 4
REMARK VINA RESULT:      -6.2      5.075      8.851
REMARK  Name = 
REMARK  5 active torsions:
REMARK  status: ('A' for Active; 'I' for Inactive)
REMARK    1  A    between atoms: N_1  and  C_2
REMARK    2  A    between atoms: C_5  and  N_6
REMARK    3  A    between atoms: C_19  and  C_20
REMARK    4  A    between atoms: C_20  and  O_22
REMARK    5  A    between atoms: N_24  and  C_25
REMARK                            x       y       z     vdW  Elec       q    Type
REMARK                         _______ _______ _______ _____ _____    ______ ____
ROOT
ATOM      1  C   UNL     1      -4.576  12.735  20.221  0.00  0.00    +0.000 A 
ATOM      2  C   UNL     1      -4.270  13.183  21.514  0.00  0.00    +0.000 A 
ATOM      3  F   UNL     1      -5.252  13.825  22.172  0.00  0.00    +0.000 F 
ATOM      4  C   UNL     1      -3.007  13.022  22.103  0.00  0.00    +0.000 A 
ATOM      5  C   UNL     1      -2.024  12.384  21.310  0.00  0.00    +0.000 A 
ATOM      6  F   UNL     1      -0.835  12.152  21.892  0.00  0.00    +0.000 F 
ATOM      7  C   UNL     1      -2.242  11.987  19.970  0.00  0.00    +0.000 A 
ATOM      8  C   UNL     1      -3.545  12.165  19.450  0.00  0.00    +0.000 A 
ATOM      9  C   UNL     1      -3.844  11.697  18.070  0.00  0.00    +0.000 A 
ATOM     10  O   UNL     1      -4.978  11.753  17.591  0.00  0.00    +0.000 OA
ATOM     11  C   UNL     1      -2.763  11.105  17.262  0.00  0.00    +0.000 A 
ATOM     12  C   UNL     1      -1.557  11.018  17.839  0.00  0.00    +0.000 A 
ATOM     13  N   UNL     1      -1.225  11.450  19.114  0.00  0.00    +0.000 N 
ENDROOT
BRANCH   4  14
ATOM     14  N   UNL     1      -2.651  13.507  23.380  0.00  0.00    +0.000 N 
ATOM     15  C   UNL     1      -3.701  13.686  24.426  0.00  0.00    +0.000 C 
ATOM     16  C   UNL     1      -3.561  15.192  24.815  0.00  0.00    +0.000 C 
ATOM     17  C   UNL     1      -3.148  15.832  23.497  0.00  0.00    +0.000 C 
ATOM     18  C   UNL     1      -1.989  14.855  23.314  0.00  0.00    +0.000 C 
ATOM     19  C   UNL     1      -1.241  15.091  24.656  0.00  0.00    +0.000 C 
ATOM     20  N   UNL     1      -2.330  15.386  25.639  0.00  0.00    +0.000 NA
ATOM     21  H   UNL     1      -2.269  16.369  25.909  0.00  0.00    +0.000 HD
ENDBRANCH   4  14
BRANCH   1  22
ATOM     22  N   UNL     1      -5.824  13.105  19.671  0.00  0.00    +0.000 N 
ATOM     23  H   UNL     1      -5.754  13.808  18.939  0.00  0.00    +0.000 HD
ATOM     24  H   UNL     1      -6.536  13.318  20.375  0.00  0.00    +0.000 HD
ENDBRANCH   1  22
BRANCH  13  25
ATOM     25  C   UNL     1       0.173  11.228  19.549  0.00  0.00    +0.000 C 
ATOM     26  C   UNL     1       0.632   9.877  20.065  0.00  0.00    +0.000 C 
ATOM     27  C   UNL     1       1.160  10.395  18.769  0.00  0.00    +0.000 C 
ENDBRANCH  13  25
BRANCH  11  28
ATOM     28  C   UNL     1      -2.965  10.606  15.883  0.00  0.00    +0.000 C 
ATOM     29  O   UNL     1      -2.689   9.468  15.538  0.00  0.00    +0.000 OA
BRANCH  28  30
ATOM     30  O   UNL     1      -3.480  11.514  15.024  0.00  0.00    +0.000 OA
ATOM     31  H   UNL     1      -4.367  11.862  15.287  0.00  0.00    +0.000 HD
ENDBRANCH  28  30
ENDBRANCH  11  28
TORSDOF 5
ENDMDL
MODEL 5
REMARK VINA RESULT:      -6.0      9.118     10.385
REMARK  Name = 
REMARK  5 active torsions:
REMARK  status: ('A' for Active; 'I' for Inactive)
REMARK    1  A    between atoms: N_1  and  C_2
REMARK    2  A    between atoms: C_5  and  N_6
REMARK    3  A    between atoms: C_19  and  C_20
REMARK    4  A    between atoms: C_20  and  O_22
REMARK    5  A    between atoms: N_24  and  C_25
REMARK                            x       y       z     vdW  Elec       q    Type
REMARK                         _______ _______ _______ _____ _____    ______ ____
ROOT
ATOM      1  C   UNL     1       8.341  12.345  22.226  0.00  0.00    +0.000 A 
ATOM      2  C   UNL     1       9.078  12.119  21.055  0.00  0.00    +0.000 A 
ATOM      3  F   UNL     1       9.810  10.991  21.019  0.00  0.00    +0.000 F 
ATOM      4  C   UNL     1       9.106  13.019  19.981  0.00  0.00    +0.000 A 
ATOM      5  C   UNL     1       8.348  14.204  20.138  0.00  0.00    +0.000 A 
ATOM      6  F   UNL     1       8.300  15.036  19.084  0.00  0.00    +0.000 F 
ATOM      7  C   UNL     1       7.653  14.531  21.326  0.00  0.00    +0.000 A 
ATOM      8  C   UNL     1       7.657  13.567  22.360  0.00  0.00    +0.000 A 
ATOM      9  C   UNL     1       6.880  13.834  23.601  0.00  0.00    +0.000 A 
ATOM     10  O   UNL     1       6.781  13.000  24.503  0.00  0.00    +0.000 OA
ATOM     11  C   UNL     1       6.168  15.116  23.742  0.00  0.00    +0.000 A 
ATOM     12  C   UNL     1       6.262  15.973  22.716  0.00  0.00    +0.000 A 
ATOM     13  N   UNL     1       6.981  15.778  21.547  0.00  0.00    +0.000 N 
ENDROOT
BRANCH   4  14
ATOM     14  N   UNL     1       9.877  12.849  18.811  0.00  0.00    +0.000 N 
ATOM     15  C   UNL     1      10.250  11.474  18.361  0.00  0.00    +0.000 C 
ATOM     16  C   UNL     1      11.809  11.535  18.290  0.00  0.00    +0.000 C 
ATOM     17  C   UNL     1      12.150  12.491  19.423  0.00  0.00    +0.000 C 
ATOM     18  C   UNL     1      11.199  13.561  18.891  0.00  0.00    +0.000 C 
ATOM     19  C   UNL     1      11.757  13.704  17.447  0.00  0.00    +0.000 C 
ATOM     20  N   UNL     1      12.227  12.327  17.095  0.00  0.00    +0.000 NA
ATOM     21  H   UNL     1      13.246  12.332  17.047  0.00  0.00    +0.000 HD
ENDBRANCH   4  14
BRANCH   1  22
ATOM     22  N   UNL     1       8.527  11.453  23.308  0.00  0.00    +0.000 N 
ATOM     23  H   UNL     1       8.855  10.533  23.026  0.00  0.00    +0.000 HD
ATOM     24  H   UNL     1       7.734  11.424  23.955  0.00  0.00    +0.000 HD
ENDBRANCH   1  22
BRANCH  13  25
ATOM     25  C   UNL     1       6.920  16.862  20.540  0.00  0.00    +0.000 C 
ATOM     26  C   UNL     1       5.734  17.000  19.603  0.00  0.00    +0.000 C 
ATOM     27  C   UNL     1       5.981  18.039  20.645  0.00  0.00    +0.000 C 
ENDBRANCH  13  25
BRANCH  11  28
ATOM     28  C   UNL     1       5.366  15.468  24.935  0.00  0.00    +0.000 C 
ATOM     29  O   UNL     1       4.193  15.803  24.876  0.00  0.00    +0.000 OA
BRANCH  28  30
ATOM     30  O   UNL     1       6.036  15.395  26.107  0.00  0.00    +0.000 OA
ATOM     31  H   UNL     1       5.759  14.641  26.684  0.00  0.00    +0.000 HD
ENDBRANCH  28  30
ENDBRANCH  11  28
TORSDOF 5
ENDMDL
MODEL 6
REMARK VINA RESULT:      -5.9      5.303      7.967
REMARK  Name = 
REMARK  5 active torsions:
REMARK  status: ('A' for Active; 'I' for Inactive)
REMARK    1  A    between atoms: N_1  and  C_2
REMARK    2  A    between atoms: C_5  and  N_6
REMARK    3  A    between atoms: C_19  and  C_20
REMARK    4  A    between atoms: C_20  and  O_22
REMARK    5  A    between atoms: N_24  and  C_25
REMARK                            x       y       z     vdW  Elec       q    Type
REMARK                         _______ _______ _______ _____ _____    ______ ____
ROOT
ATOM      1  C   UNL     1      -2.088  12.774  22.517  0.00  0.00    +0.000 A 
ATOM      2  C   UNL     1      -1.136  12.488  21.529  0.00  0.00    +0.000 A 
ATOM      3  F   UNL     1       0.154  12.626  21.885  0.00  0.00    +0.000 F 
ATOM      4  C   UNL     1      -1.476  12.114  20.221  0.00  0.00    +0.000 A 
ATOM      5  C   UNL     1      -2.860  12.050  19.929  0.00  0.00    +0.000 A 
ATOM      6  F   UNL     1      -3.199  11.615  18.703  0.00  0.00    +0.000 F 
ATOM      7  C   UNL     1      -3.867  12.410  20.853  0.00  0.00    +0.000 A 
ATOM      8  C   UNL     1      -3.449  12.760  22.158  0.00  0.00    +0.000 A 
ATOM      9  C   UNL     1      -4.476  13.076  23.187  0.00  0.00    +0.000 A 
ATOM     10  O   UNL     1      -4.178  13.310  24.360  0.00  0.00    +0.000 OA
ATOM     11  C   UNL     1      -5.900  13.065  22.809  0.00  0.00    +0.000 A 
ATOM     12  C   UNL     1      -6.183  12.756  21.536  0.00  0.00    +0.000 A 
ATOM     13  N   UNL     1      -5.264  12.467  20.538  0.00  0.00    +0.000 N 
ENDROOT
BRANCH   4  14
ATOM     14  N   UNL     1      -0.544  11.870  19.189  0.00  0.00    +0.000 N 
ATOM     15  C   UNL     1      -0.774  10.746  18.232  0.00  0.00    +0.000 C 
ATOM     16  C   UNL     1       0.526   9.892  18.371  0.00  0.00    +0.000 C 
ATOM     17  C   UNL     1       0.886  10.080  19.837  0.00  0.00    +0.000 C 
ATOM     18  C   UNL     1       0.837  11.602  19.718  0.00  0.00    +0.000 C 
ATOM     19  C   UNL     1       1.846  11.800  18.553  0.00  0.00    +0.000 C 
ATOM     20  N   UNL     1       1.660  10.589  17.694  0.00  0.00    +0.000 NA
ATOM     21  H   UNL     1       2.494  10.005  17.768  0.00  0.00    +0.000 HD
ENDBRANCH   4  14
BRANCH   1  22
ATOM     22  N   UNL     1      -1.630  13.306  23.744  0.00  0.00    +0.000 N 
ATOM     23  H   UNL     1      -2.081  12.897  24.560  0.00  0.00    +0.000 HD
ATOM     24  H   UNL     1      -1.603  14.330  23.763  0.00  0.00    +0.000 HD
ENDBRANCH   1  22
BRANCH  13  25
ATOM     25  C   UNL     1      -5.814  12.131  19.205  0.00  0.00    +0.000 C 
ATOM     26  C   UNL     1      -6.394  10.759  18.915  0.00  0.00    +0.000 C 
ATOM     27  C   UNL     1      -7.289  11.953  18.937  0.00  0.00    +0.000 C 
ENDBRANCH  13  25
BRANCH  11  28
ATOM     28  C   UNL     1      -6.992  13.360  23.763  0.00  0.00    +0.000 C 
ATOM     29  O   UNL     1      -7.916  12.591  23.978  0.00  0.00    +0.000 OA
BRANCH  28  30
ATOM     30  O   UNL     1      -6.893  14.557  24.382  0.00  0.00    +0.000 OA
ATOM     31  H   UNL     1      -7.621  14.741  25.025  0.00  0.00    +0.000 HD
ENDBRANCH  28  30
ENDBRANCH  11  28
TORSDOF 5
ENDMDL
MODEL 7
REMARK VINA RESULT:      -5.9      9.287     11.044
REMARK  Name = 
REMARK  5 active torsions:
REMARK  status: ('A' for Active; 'I' for Inactive)
REMARK    1  A    between atoms: N_1  and  C_2
REMARK    2  A    between atoms: C_5  and  N_6
REMARK    3  A    between atoms: C_19  and  C_20
REMARK    4  A    between atoms: C_20  and  O_22
REMARK    5  A    between atoms: N_24  and  C_25
REMARK                            x       y       z     vdW  Elec       q    Type
REMARK                         _______ _______ _______ _____ _____    ______ ____
ROOT
ATOM      1  C   UNL     1       8.860  11.888  21.376  0.00  0.00    +0.000 A 
ATOM      2  C   UNL     1       9.254  12.357  20.115  0.00  0.00    +0.000 A 
ATOM      3  F   UNL     1       9.764  11.442  19.271  0.00  0.00    +0.000 F 
ATOM      4  C   UNL     1       9.174  13.705  19.738  0.00  0.00    +0.000 A 
ATOM      5  C   UNL     1       8.676  14.599  20.717  0.00  0.00    +0.000 A 
ATOM      6  F   UNL     1       8.518  15.880  20.340  0.00  0.00    +0.000 F 
ATOM      7  C   UNL     1       8.343  14.205  22.033  0.00  0.00    +0.000 A 
ATOM      8  C   UNL     1       8.434  12.827  22.335  0.00  0.00    +0.000 A 
ATOM      9  C   UNL     1       8.024  12.353  23.685  0.00  0.00    +0.000 A 
ATOM     10  O   UNL     1       8.006  11.156  23.981  0.00  0.00    +0.000 OA
ATOM     11  C   UNL     1       7.582  13.336  24.689  0.00  0.00    +0.000 A 
ATOM     12  C   UNL     1       7.570  14.621  24.309  0.00  0.00    +0.000 A 
ATOM     13  N   UNL     1       7.953  15.114  23.070  0.00  0.00    +0.000 N 
ENDROOT
BRANCH   4  14
ATOM     14  N   UNL     1       9.611  14.219  18.498  0.00  0.00    +0.000 N 
ATOM     15  C   UNL     1       9.728  13.310  17.318  0.00  0.00    +0.000 C 
ATOM     16  C   UNL     1      11.218  13.482  16.885  0.00  0.00    +0.000 C 
ATOM     17  C   UNL     1      11.920  13.712  18.216  0.00  0.00    +0.000 C 
ATOM     18  C   UNL     1      10.972  14.850  18.590  0.00  0.00    +0.000 C 
ATOM     19  C   UNL     1      11.164  15.762  17.347  0.00  0.00    +0.000 C 
ATOM     20  N   UNL     1      11.399  14.806  16.219  0.00  0.00    +0.000 NA
ATOM     21  H   UNL     1      12.370  14.890  15.917  0.00  0.00    +0.000 HD
ENDBRANCH   4  14
BRANCH   1  22
ATOM     22  N   UNL     1       9.148  10.543  21.703  0.00  0.00    +0.000 N 
ATOM     23  H   UNL     1      10.139  10.360  21.839  0.00  0.00    +0.000 HD
ATOM     24  H   UNL     1       8.687   9.865  21.088  0.00  0.00    +0.000 HD
ENDBRANCH   1  22
BRANCH  13  25
ATOM     25  C   UNL     1       7.833  16.577  22.871  0.00  0.00    +0.000 C 
ATOM     26  C   UNL     1       6.498  17.220  22.543  0.00  0.00    +0.000 C 
ATOM     27  C   UNL     1       7.151  17.494  23.856  0.00  0.00    +0.000 C 
ENDBRANCH  13  25
BRANCH  11  28
ATOM     28  C   UNL     1       7.151  12.960  26.053  0.00  0.00    +0.000 C 
ATOM     29  O   UNL     1       6.077  13.292  26.530  0.00  0.00    +0.000 OA
BRANCH  28  30
ATOM     30  O   UNL     1       8.046  12.218  26.743  0.00  0.00    +0.000 OA
ATOM     31  H   UNL     1       8.955  12.605  26.773  0.00  0.00    +0.000 HD
ENDBRANCH  28  30
ENDBRANCH  11  28
TORSDOF 5
ENDMDL
MODEL 8
REMARK VINA RESULT:      -5.9      5.913      9.753
REMARK  Name = 
REMARK  5 active torsions:
REMARK  status: ('A' for Active; 'I' for Inactive)
REMARK    1  A    between atoms: N_1  and  C_2
REMARK    2  A    between atoms: C_5  and  N_6
REMARK    3  A    between atoms: C_19  and  C_20
REMARK    4  A    between atoms: C_20  and  O_22
REMARK    5  A    between atoms: N_24  and  C_25
REMARK                            x       y       z     vdW  Elec       q    Type
REMARK                         _______ _______ _______ _____ _____    ______ ____
ROOT
ATOM      1  C   UNL     1      -5.780  12.656  19.604  0.00  0.00    +0.000 A 
ATOM      2  C   UNL     1      -5.854  13.277  20.859  0.00  0.00    +0.000 A 
ATOM      3  F   UNL     1      -7.062  13.746  21.221  0.00  0.00    +0.000 F 
ATOM      4  C   UNL     1      -4.743  13.452  21.695  0.00  0.00    +0.000 A 
ATOM      5  C   UNL     1      -3.506  12.974  21.200  0.00  0.00    +0.000 A 
ATOM      6  F   UNL     1      -2.449  13.062  22.026  0.00  0.00    +0.000 F 
ATOM      7  C   UNL     1      -3.347  12.417  19.910  0.00  0.00    +0.000 A 
ATOM      8  C   UNL     1      -4.516  12.257  19.129  0.00  0.00    +0.000 A 
ATOM      9  C   UNL     1      -4.412  11.610  17.794  0.00  0.00    +0.000 A 
ATOM     10  O   UNL     1      -5.404  11.372  17.102  0.00  0.00    +0.000 OA
ATOM     11  C   UNL     1      -3.088  11.197  17.296  0.00  0.00    +0.000 A 
ATOM     12  C   UNL     1      -2.042  11.430  18.102  0.00  0.00    +0.000 A 
ATOM     13  N   UNL     1      -2.085  12.040  19.346  0.00  0.00    +0.000 N 
ENDROOT
BRANCH   4  14
ATOM     14  N   UNL     1      -4.773  14.118  22.939  0.00  0.00    +0.000 N 
ATOM     15  C   UNL     1      -6.073  14.309  23.649  0.00  0.00    +0.000 C 
ATOM     16  C   UNL     1      -6.147  15.857  23.844  0.00  0.00    +0.000 C 
ATOM     17  C   UNL     1      -5.445  16.376  22.597  0.00  0.00    +0.000 C 
ATOM     18  C   UNL     1      -4.213  15.511  22.854  0.00  0.00    +0.000 C 
ATOM     19  C   UNL     1      -3.867  15.980  24.294  0.00  0.00    +0.000 C 
ATOM     20  N   UNL     1      -5.196  16.274  24.917  0.00  0.00    +0.000 NA
ATOM     21  H   UNL     1      -5.277  17.282  25.052  0.00  0.00    +0.000 HD
ENDBRANCH   4  14
BRANCH   1  22
ATOM     22  N   UNL     1      -6.927  12.691  18.778  0.00  0.00    +0.000 N 
ATOM     23  H   UNL     1      -7.802  12.685  19.296  0.00  0.00    +0.000 HD
ATOM     24  H   UNL     1      -6.901  12.013  18.011  0.00  0.00    +0.000 HD
ENDBRANCH   1  22
BRANCH  13  25
ATOM     25  C   UNL     1      -0.798  12.170  20.067  0.00  0.00    +0.000 C 
ATOM     26  C   UNL     1      -0.205  11.005  20.837  0.00  0.00    +0.000 C 
ATOM     27  C   UNL     1       0.479  11.508  19.611  0.00  0.00    +0.000 C 
ENDBRANCH  13  25
BRANCH  11  28
ATOM     28  C   UNL     1      -2.885  10.541  15.985  0.00  0.00    +0.000 C 
ATOM     29  O   UNL     1      -2.428   9.415  15.865  0.00  0.00    +0.000 OA
BRANCH  28  30
ATOM     30  O   UNL     1      -3.244  11.290  14.918  0.00  0.00    +0.000 OA
ATOM     31  H   UNL     1      -3.996  11.907  15.092  0.00  0.00    +0.000 HD
ENDBRANCH  28  30
ENDBRANCH  11  28
TORSDOF 5
ENDMDL
MODEL 9
REMARK VINA RESULT:      -5.8      6.430      8.355
REMARK  Name = 
REMARK  5 active torsions:
REMARK  status: ('A' for Active; 'I' for Inactive)
REMARK    1  A    between atoms: N_1  and  C_2
REMARK    2  A    between atoms: C_5  and  N_6
REMARK    3  A    between atoms: C_19  and  C_20
REMARK    4  A    between atoms: C_20  and  O_22
REMARK    5  A    between atoms: N_24  and  C_25
REMARK                            x       y       z     vdW  Elec       q    Type
REMARK                         _______ _______ _______ _____ _____    ______ ____
ROOT
ATOM      1  C   UNL     1      -2.589  12.996  21.038  0.00  0.00    +0.000 A 
ATOM      2  C   UNL     1      -1.195  13.111  20.930  0.00  0.00    +0.000 A 
ATOM      3  F   UNL     1      -0.563  13.699  21.962  0.00  0.00    +0.000 F 
ATOM      4  C   UNL     1      -0.475  12.684  19.806  0.00  0.00    +0.000 A 
ATOM      5  C   UNL     1      -1.237  12.129  18.749  0.00  0.00    +0.000 A 
ATOM      6  F   UNL     1      -0.552  11.642  17.700  0.00  0.00    +0.000 F 
ATOM      7  C   UNL     1      -2.650  12.064  18.759  0.00  0.00    +0.000 A 
ATOM      8  C   UNL     1      -3.306  12.498  19.934  0.00  0.00    +0.000 A 
ATOM      9  C   UNL     1      -4.787  12.382  20.021  0.00  0.00    +0.000 A 
ATOM     10  O   UNL     1      -5.407  12.669  21.047  0.00  0.00    +0.000 OA
ATOM     11  C   UNL     1      -5.537  11.865  18.863  0.00  0.00    +0.000 A 
ATOM     12  C   UNL     1      -4.818  11.517  17.787  0.00  0.00    +0.000 A 
ATOM     13  N   UNL     1      -3.442  11.618  17.651  0.00  0.00    +0.000 N 
ENDROOT
BRANCH   4  14
ATOM     14  N   UNL     1       0.919  12.832  19.642  0.00  0.00    +0.000 N 
ATOM     15  C   UNL     1       1.791  13.023  20.840  0.00  0.00    +0.000 C 
ATOM     16  C   UNL     1       2.528  14.365  20.531  0.00  0.00    +0.000 C 
ATOM     17  C   UNL     1       1.475  15.144  19.756  0.00  0.00    +0.000 C 
ATOM     18  C   UNL     1       1.269  14.001  18.764  0.00  0.00    +0.000 C 
ATOM     19  C   UNL     1       2.734  13.817  18.279  0.00  0.00    +0.000 C 
ATOM     20  N   UNL     1       3.565  14.139  19.481  0.00  0.00    +0.000 NA
ATOM     21  H   UNL     1       4.056  15.018  19.313  0.00  0.00    +0.000 HD
ENDBRANCH   4  14
BRANCH   1  22
ATOM     22  N   UNL     1      -3.221  13.617  22.140  0.00  0.00    +0.000 N 
ATOM     23  H   UNL     1      -2.721  13.497  23.018  0.00  0.00    +0.000 HD
ATOM     24  H   UNL     1      -4.221  13.410  22.208  0.00  0.00    +0.000 HD
ENDBRANCH   1  22
BRANCH  13  25
ATOM     25  C   UNL     1      -2.864  11.149  16.371  0.00  0.00    +0.000 C 
ATOM     26  C   UNL     1      -2.666   9.672  16.090  0.00  0.00    +0.000 C 
ATOM     27  C   UNL     1      -3.670  10.447  15.306  0.00  0.00    +0.000 C 
ENDBRANCH  13  25
BRANCH  11  28
ATOM     28  C   UNL     1      -7.008  11.707  18.858  0.00  0.00    +0.000 C 
ATOM     29  O   UNL     1      -7.758  12.457  18.253  0.00  0.00    +0.000 OA
BRANCH  28  30
ATOM     30  O   UNL     1      -7.467  10.663  19.585  0.00  0.00    +0.000 OA
ATOM     31  H   UNL     1      -7.441  10.809  20.562  0.00  0.00    +0.000 HD
ENDBRANCH  28  30
ENDBRANCH  11  28
TORSDOF 5
ENDMDL
