MODEL 1
REMARK VINA RESULT:      -9.4      0.000      0.000
REMARK  Name = 
REMARK  11 active torsions:
REMARK  status: ('A' for Active; 'I' for Inactive)
REMARK    1  A    between atoms: C_1  and  N_2
REMARK    2  A    between atoms: N_2  and  C_3
REMARK    3  A    between atoms: C_5  and  N_6
REMARK    4  A    between atoms: C_7  and  O_9
REMARK    5  A    between atoms: O_9  and  C_10
REMARK    6  A    between atoms: C_13  and  N_14
REMARK    7  A    between atoms: N_14  and  C_15
REMARK    8  A    between atoms: C_20  and  C_21
REMARK    9  A    between atoms: C_20  and  C_22
REMARK   10  A    between atoms: C_30  and  C_31
REMARK   11  A    between atoms: C_30  and  C_32
REMARK                            x       y       z     vdW  Elec       q    Type
REMARK                         _______ _______ _______ _____ _____    ______ ____
ROOT
ATOM      1  C   UNL     1       3.089   6.227  19.485  0.00  0.00    +0.000 C 
ATOM      2  C   UNL     1       2.497   4.995  19.600  0.00  0.00    +0.000 C 
ATOM      3  C   UNL     1       1.266   4.539  20.213  0.00  0.00    +0.000 C 
ATOM      4  C   UNL     1       0.957   3.224  20.235  0.00  0.00    +0.000 C 
ATOM      5  C   UNL     1       1.844   2.096  19.746  0.00  0.00    +0.000 C 
ATOM      6  C   UNL     1       3.176   2.526  19.110  0.00  0.00    +0.000 C 
ATOM      7  C   UNL     1       3.546   1.612  17.924  0.00  0.00    +0.000 C 
ATOM      8  C   UNL     1       4.320   2.388  20.140  0.00  0.00    +0.000 C 
ATOM      9  C   UNL     1       3.040   3.982  18.656  0.00  0.00    +0.000 C 
ATOM     10  N   UNL     1       3.244   4.332  17.433  0.00  0.00    +0.000 NA
ATOM     11  C   UNL     1       4.134   5.518  17.281  0.00  0.00    +0.000 C 
ATOM     12  C   UNL     1       4.391   6.094  18.703  0.00  0.00    +0.000 C 
ATOM     13  C   UNL     1       5.531   5.698  19.330  0.00  0.00    +0.000 C 
ATOM     14  C   UNL     1       6.404   4.664  18.742  0.00  0.00    +0.000 C 
ATOM     15  C   UNL     1       6.255   4.164  17.497  0.00  0.00    +0.000 C 
ATOM     16  C   UNL     1       5.342   4.832  16.482  0.00  0.00    +0.000 C 
ATOM     17  C   UNL     1       4.700   3.920  15.370  0.00  0.00    +0.000 C 
ATOM     18  C   UNL     1       6.317   5.717  15.684  0.00  0.00    +0.000 C 
ENDROOT
BRANCH   1  19
ATOM     19  N   UNL     1       2.493   7.380  20.048  0.00  0.00    +0.000 N 
ATOM     20  H   UNL     1       2.171   7.146  20.992  0.00  0.00    +0.000 HD
BRANCH  19  26
ATOM     21  C   UNL     1       0.768   9.041  20.671  0.00  0.00    +0.000 A 
ATOM     22  C   UNL     1      -0.340   9.844  20.315  0.00  0.00    +0.000 A 
ATOM     23  C   UNL     1      -0.545  10.261  18.999  0.00  0.00    +0.000 A 
ATOM     24  C   UNL     1       0.364   9.801  18.038  0.00  0.00    +0.000 A 
ATOM     25  C   UNL     1       1.403   8.875  18.360  0.00  0.00    +0.000 A 
ATOM     26  C   UNL     1       1.575   8.412  19.658  0.00  0.00    +0.000 A 
BRANCH  23  27
ATOM     27  N   UNL     1      -1.617  11.111  18.629  0.00  0.00    +0.000 N 
ATOM     28  C   UNL     1      -2.782  10.746  17.981  0.00  0.00    +0.000 C 
ATOM     29  O   UNL     1      -3.143   9.630  17.679  0.00  0.00    +0.000 OA
ATOM     30  H   UNL     1      -1.569  12.084  18.875  0.00  0.00    +0.000 HD
BRANCH  28  31
ATOM     31  O   UNL     1      -3.530  11.869  17.750  0.00  0.00    +0.000 OA
ATOM     32  C   UNL     1      -4.807  11.610  17.137  0.00  0.00    +0.000 C 
ENDBRANCH  28  31
ENDBRANCH  23  27
BRANCH  21  34
ATOM     33  C   UNL     1       0.017   9.477  22.936  0.00  0.00    +0.000 C 
ATOM     34  N   UNL     1       0.978   8.775  22.061  0.00  0.00    +0.000 N 
ATOM     35  H   UNL     1       1.930   9.060  22.283  0.00  0.00    +0.000 HD
ENDBRANCH  21  34
ENDBRANCH  19  26
ENDBRANCH   1  19
TORSDOF 5
ENDMDL
MODEL 2
REMARK VINA RESULT:      -8.8      1.785      1.990
REMARK  Name = 
REMARK  11 active torsions:
REMARK  status: ('A' for Active; 'I' for Inactive)
REMARK    1  A    between atoms: C_1  and  N_2
REMARK    2  A    between atoms: N_2  and  C_3
REMARK    3  A    between atoms: C_5  and  N_6
REMARK    4  A    between atoms: C_7  and  O_9
REMARK    5  A    between atoms: O_9  and  C_10
REMARK    6  A    between atoms: C_13  and  N_14
REMARK    7  A    between atoms: N_14  and  C_15
REMARK    8  A    between atoms: C_20  and  C_21
REMARK    9  A    between atoms: C_20  and  C_22
REMARK   10  A    between atoms: C_30  and  C_31
REMARK   11  A    between atoms: C_30  and  C_32
REMARK                            x       y       z     vdW  Elec       q    Type
REMARK                         _______ _______ _______ _____ _____    ______ ____
ROOT
ATOM      1  C   UNL     1       2.783   6.074  19.579  0.00  0.00    +0.000 C 
ATOM      2  C   UNL     1       2.283   4.798  19.634  0.00  0.00    +0.000 C 
ATOM      3  C   UNL     1       1.078   4.226  20.199  0.00  0.00    +0.000 C 
ATOM      4  C   UNL     1       0.870   2.892  20.163  0.00  0.00    +0.000 C 
ATOM      5  C   UNL     1       1.850   1.854  19.655  0.00  0.00    +0.000 C 
ATOM      6  C   UNL     1       3.160   2.407  19.068  0.00  0.00    +0.000 C 
ATOM      7  C   UNL     1       3.624   1.571  17.859  0.00  0.00    +0.000 C 
ATOM      8  C   UNL     1       4.288   2.316  20.121  0.00  0.00    +0.000 C 
ATOM      9  C   UNL     1       2.923   3.866  18.667  0.00  0.00    +0.000 C 
ATOM     10  N   UNL     1       3.127   4.279  17.463  0.00  0.00    +0.000 NA
ATOM     11  C   UNL     1       3.927   5.533  17.378  0.00  0.00    +0.000 C 
ATOM     12  C   UNL     1       4.108   6.070  18.826  0.00  0.00    +0.000 C 
ATOM     13  C   UNL     1       5.260   5.736  19.466  0.00  0.00    +0.000 C 
ATOM     14  C   UNL     1       6.222   4.795  18.861  0.00  0.00    +0.000 C 
ATOM     15  C   UNL     1       6.140   4.334  17.595  0.00  0.00    +0.000 C 
ATOM     16  C   UNL     1       5.201   4.972  16.583  0.00  0.00    +0.000 C 
ATOM     17  C   UNL     1       4.655   4.058  15.422  0.00  0.00    +0.000 C 
ATOM     18  C   UNL     1       6.123   5.958  15.844  0.00  0.00    +0.000 C 
ENDROOT
BRANCH   1  19
ATOM     19  N   UNL     1       2.089   7.156  20.171  0.00  0.00    +0.000 N 
ATOM     20  H   UNL     1       1.256   6.785  20.640  0.00  0.00    +0.000 HD
BRANCH  19  26
ATOM     21  C   UNL     1       1.128   9.333  20.846  0.00  0.00    +0.000 A 
ATOM     22  C   UNL     1       0.449  10.527  20.509  0.00  0.00    +0.000 A 
ATOM     23  C   UNL     1       0.500  11.055  19.218  0.00  0.00    +0.000 A 
ATOM     24  C   UNL     1       1.206  10.318  18.258  0.00  0.00    +0.000 A 
ATOM     25  C   UNL     1       1.775   9.040  18.551  0.00  0.00    +0.000 A 
ATOM     26  C   UNL     1       1.677   8.486  19.820  0.00  0.00    +0.000 A 
BRANCH  23  27
ATOM     27  N   UNL     1      -0.127  12.277  18.870  0.00  0.00    +0.000 N 
ATOM     28  C   UNL     1       0.483  13.506  18.705  0.00  0.00    +0.000 C 
ATOM     29  O   UNL     1       1.668  13.757  18.747  0.00  0.00    +0.000 OA
ATOM     30  H   UNL     1      -1.115  12.279  18.689  0.00  0.00    +0.000 HD
BRANCH  28  31
ATOM     31  O   UNL     1      -0.477  14.444  18.434  0.00  0.00    +0.000 OA
ATOM     32  C   UNL     1      -0.341  15.662  19.190  0.00  0.00    +0.000 C 
ENDBRANCH  28  31
ENDBRANCH  23  27
BRANCH  21  34
ATOM     33  C   UNL     1       0.042   9.548  23.005  0.00  0.00    +0.000 C 
ATOM     34  N   UNL     1       1.136   8.939  22.222  0.00  0.00    +0.000 N 
ATOM     35  H   UNL     1       2.039   9.210  22.608  0.00  0.00    +0.000 HD
ENDBRANCH  21  34
ENDBRANCH  19  26
ENDBRANCH   1  19
TORSDOF 5
ENDMDL
MODEL 3
REMARK VINA RESULT:      -8.7      3.725      8.695
REMARK  Name = 
REMARK  11 active torsions:
REMARK  status: ('A' for Active; 'I' for Inactive)
REMARK    1  A    between atoms: C_1  and  N_2
REMARK    2  A    between atoms: N_2  and  C_3
REMARK    3  A    between atoms: C_5  and  N_6
REMARK    4  A    between atoms: C_7  and  O_9
REMARK    5  A    between atoms: O_9  and  C_10
REMARK    6  A    between atoms: C_13  and  N_14
REMARK    7  A    between atoms: N_14  and  C_15
REMARK    8  A    between atoms: C_20  and  C_21
REMARK    9  A    between atoms: C_20  and  C_22
REMARK   10  A    between atoms: C_30  and  C_31
REMARK   11  A    between atoms: C_30  and  C_32
REMARK                            x       y       z     vdW  Elec       q    Type
REMARK                         _______ _______ _______ _____ _____    ______ ____
ROOT
ATOM      1  C   UNL     1       0.871   9.843  20.066  0.00  0.00    +0.000 C 
ATOM      2  C   UNL     1       0.201  10.243  21.193  0.00  0.00    +0.000 C 
ATOM      3  C   UNL     1      -0.226   9.553  22.393  0.00  0.00    +0.000 C 
ATOM      4  C   UNL     1      -0.945  10.197  23.336  0.00  0.00    +0.000 C 
ATOM      5  C   UNL     1      -1.470  11.616  23.237  0.00  0.00    +0.000 C 
ATOM      6  C   UNL     1      -1.067  12.386  21.968  0.00  0.00    +0.000 C 
ATOM      7  C   UNL     1      -0.801  13.873  22.281  0.00  0.00    +0.000 C 
ATOM      8  C   UNL     1      -2.226  12.356  20.945  0.00  0.00    +0.000 C 
ATOM      9  C   UNL     1       0.180  11.719  21.381  0.00  0.00    +0.000 C 
ATOM     10  N   UNL     1       1.269  12.377  21.179  0.00  0.00    +0.000 NA
ATOM     11  C   UNL     1       1.864  12.168  19.830  0.00  0.00    +0.000 C 
ATOM     12  C   UNL     1       1.057  11.035  19.134  0.00  0.00    +0.000 C 
ATOM     13  C   UNL     1       0.054  11.417  18.300  0.00  0.00    +0.000 C 
ATOM     14  C   UNL     1      -0.335  12.835  18.175  0.00  0.00    +0.000 C 
ATOM     15  C   UNL     1       0.355  13.861  18.718  0.00  0.00    +0.000 C 
ATOM     16  C   UNL     1       1.758  13.665  19.267  0.00  0.00    +0.000 C 
ATOM     17  C   UNL     1       2.227  14.626  20.424  0.00  0.00    +0.000 C 
ATOM     18  C   UNL     1       2.646  14.090  18.083  0.00  0.00    +0.000 C 
ENDROOT
BRANCH   1  19
ATOM     19  N   UNL     1       1.279   8.498  19.897  0.00  0.00    +0.000 N 
ATOM     20  H   UNL     1       1.385   8.076  20.825  0.00  0.00    +0.000 HD
BRANCH  19  26
ATOM     21  C   UNL     1       2.699   6.492  19.615  0.00  0.00    +0.000 A 
ATOM     22  C   UNL     1       3.826   5.863  19.036  0.00  0.00    +0.000 A 
ATOM     23  C   UNL     1       4.359   6.298  17.822  0.00  0.00    +0.000 A 
ATOM     24  C   UNL     1       3.763   7.421  17.232  0.00  0.00    +0.000 A 
ATOM     25  C   UNL     1       2.717   8.150  17.877  0.00  0.00    +0.000 A 
ATOM     26  C   UNL     1       2.222   7.754  19.112  0.00  0.00    +0.000 A 
BRANCH  23  27
ATOM     27  N   UNL     1       5.453   5.651  17.196  0.00  0.00    +0.000 N 
ATOM     28  C   UNL     1       6.661   6.219  16.837  0.00  0.00    +0.000 C 
ATOM     29  O   UNL     1       7.043   7.347  17.057  0.00  0.00    +0.000 OA
ATOM     30  H   UNL     1       5.387   4.667  17.005  0.00  0.00    +0.000 HD
BRANCH  28  31
ATOM     31  O   UNL     1       7.422   5.275  16.201  0.00  0.00    +0.000 OA
ATOM     32  C   UNL     1       6.834   4.759  14.993  0.00  0.00    +0.000 C 
ENDBRANCH  28  31
ENDBRANCH  23  27
BRANCH  21  34
ATOM     33  C   UNL     1       2.229   4.422  20.790  0.00  0.00    +0.000 C 
ATOM     34  N   UNL     1       2.134   5.896  20.788  0.00  0.00    +0.000 N 
ATOM     35  H   UNL     1       1.159   6.186  20.834  0.00  0.00    +0.000 HD
ENDBRANCH  21  34
ENDBRANCH  19  26
ENDBRANCH   1  19
TORSDOF 5
ENDMDL
MODEL 4
REMARK VINA RESULT:      -8.0      2.014      2.850
REMARK  Name = 
REMARK  11 active torsions:
REMARK  status: ('A' for Active; 'I' for Inactive)
REMARK    1  A    between atoms: C_1  and  N_2
REMARK    2  A    between atoms: N_2  and  C_3
REMARK    3  A    between atoms: C_5  and  N_6
REMARK    4  A    between atoms: C_7  and  O_9
REMARK    5  A    between atoms: O_9  and  C_10
REMARK    6  A    between atoms: C_13  and  N_14
REMARK    7  A    between atoms: N_14  and  C_15
REMARK    8  A    between atoms: C_20  and  C_21
REMARK    9  A    between atoms: C_20  and  C_22
REMARK   10  A    between atoms: C_30  and  C_31
REMARK   11  A    between atoms: C_30  and  C_32
REMARK                            x       y       z     vdW  Elec       q    Type
REMARK                         _______ _______ _______ _____ _____    ______ ____
ROOT
ATOM      1  C   UNL     1       3.218   6.484  18.393  0.00  0.00    +0.000 C 
ATOM      2  C   UNL     1       2.626   5.274  18.652  0.00  0.00    +0.000 C 
ATOM      3  C   UNL     1       1.306   4.893  19.112  0.00  0.00    +0.000 C 
ATOM      4  C   UNL     1       1.011   3.597  19.349  0.00  0.00    +0.000 C 
ATOM      5  C   UNL     1       1.984   2.436  19.274  0.00  0.00    +0.000 C 
ATOM      6  C   UNL     1       3.407   2.792  18.815  0.00  0.00    +0.000 C 
ATOM      7  C   UNL     1       4.001   1.676  17.931  0.00  0.00    +0.000 C 
ATOM      8  C   UNL     1       4.339   2.919  20.042  0.00  0.00    +0.000 C 
ATOM      9  C   UNL     1       3.346   4.119  18.053  0.00  0.00    +0.000 C 
ATOM     10  N   UNL     1       3.772   4.224  16.841  0.00  0.00    +0.000 NA
ATOM     11  C   UNL     1       4.663   5.396  16.611  0.00  0.00    +0.000 C 
ATOM     12  C   UNL     1       4.645   6.258  17.905  0.00  0.00    +0.000 C 
ATOM     13  C   UNL     1       5.650   6.051  18.797  0.00  0.00    +0.000 C 
ATOM     14  C   UNL     1       6.627   4.963  18.604  0.00  0.00    +0.000 C 
ATOM     15  C   UNL     1       6.719   4.215  17.484  0.00  0.00    +0.000 C 
ATOM     16  C   UNL     1       6.006   4.621  16.204  0.00  0.00    +0.000 C 
ATOM     17  C   UNL     1       5.593   3.474  15.207  0.00  0.00    +0.000 C 
ATOM     18  C   UNL     1       7.105   5.373  15.430  0.00  0.00    +0.000 C 
ENDROOT
BRANCH   1  19
ATOM     19  N   UNL     1       2.517   7.697  18.588  0.00  0.00    +0.000 N 
ATOM     20  H   UNL     1       3.150   8.474  18.372  0.00  0.00    +0.000 HD
BRANCH  19  26
ATOM     21  C   UNL     1       0.683   9.271  19.122  0.00  0.00    +0.000 A 
ATOM     22  C   UNL     1       0.000  10.078  20.061  0.00  0.00    +0.000 A 
ATOM     23  C   UNL     1       0.026   9.790  21.426  0.00  0.00    +0.000 A 
ATOM     24  C   UNL     1       0.806   8.698  21.830  0.00  0.00    +0.000 A 
ATOM     25  C   UNL     1       1.614   7.962  20.909  0.00  0.00    +0.000 A 
ATOM     26  C   UNL     1       1.635   8.283  19.558  0.00  0.00    +0.000 A 
BRANCH  23  27
ATOM     27  N   UNL     1      -0.695  10.552  22.379  0.00  0.00    +0.000 N 
ATOM     28  C   UNL     1      -0.603  11.914  22.595  0.00  0.00    +0.000 C 
ATOM     29  O   UNL     1       0.046  12.722  21.967  0.00  0.00    +0.000 OA
ATOM     30  H   UNL     1      -1.374  10.087  22.954  0.00  0.00    +0.000 HD
BRANCH  28  31
ATOM     31  O   UNL     1      -1.415  12.251  23.644  0.00  0.00    +0.000 OA
ATOM     32  C   UNL     1      -2.779  12.520  23.272  0.00  0.00    +0.000 C 
ENDBRANCH  28  31
ENDBRANCH  23  27
BRANCH  21  34
ATOM     33  C   UNL     1      -0.905   9.915  17.405  0.00  0.00    +0.000 C 
ATOM     34  N   UNL     1       0.490   9.557  17.733  0.00  0.00    +0.000 N 
ATOM     35  H   UNL     1       0.773   8.728  17.212  0.00  0.00    +0.000 HD
ENDBRANCH  21  34
ENDBRANCH  19  26
ENDBRANCH   1  19
TORSDOF 5
ENDMDL
MODEL 5
REMARK VINA RESULT:      -7.8      1.126      3.396
REMARK  Name = 
REMARK  11 active torsions:
REMARK  status: ('A' for Active; 'I' for Inactive)
REMARK    1  A    between atoms: C_1  and  N_2
REMARK    2  A    between atoms: N_2  and  C_3
REMARK    3  A    between atoms: C_5  and  N_6
REMARK    4  A    between atoms: C_7  and  O_9
REMARK    5  A    between atoms: O_9  and  C_10
REMARK    6  A    between atoms: C_13  and  N_14
REMARK    7  A    between atoms: N_14  and  C_15
REMARK    8  A    between atoms: C_20  and  C_21
REMARK    9  A    between atoms: C_20  and  C_22
REMARK   10  A    between atoms: C_30  and  C_31
REMARK   11  A    between atoms: C_30  and  C_32
REMARK                            x       y       z     vdW  Elec       q    Type
REMARK                         _______ _______ _______ _____ _____    ______ ____
ROOT
ATOM      1  C   UNL     1       2.656   6.498  19.176  0.00  0.00    +0.000 C 
ATOM      2  C   UNL     1       3.532   6.149  18.179  0.00  0.00    +0.000 C 
ATOM      3  C   UNL     1       4.358   6.916  17.269  0.00  0.00    +0.000 C 
ATOM      4  C   UNL     1       5.092   6.296  16.321  0.00  0.00    +0.000 C 
ATOM      5  C   UNL     1       5.079   4.811  16.018  0.00  0.00    +0.000 C 
ATOM      6  C   UNL     1       4.196   3.953  16.940  0.00  0.00    +0.000 C 
ATOM      7  C   UNL     1       4.850   2.585  17.221  0.00  0.00    +0.000 C 
ATOM      8  C   UNL     1       2.846   3.657  16.247  0.00  0.00    +0.000 C 
ATOM      9  C   UNL     1       3.968   4.728  18.240  0.00  0.00    +0.000 C 
ATOM     10  N   UNL     1       4.285   4.234  19.388  0.00  0.00    +0.000 NA
ATOM     11  C   UNL     1       3.214   4.354  20.417  0.00  0.00    +0.000 C 
ATOM     12  C   UNL     1       2.085   5.237  19.815  0.00  0.00    +0.000 C 
ATOM     13  C   UNL     1       1.038   4.589  19.237  0.00  0.00    +0.000 C 
ATOM     14  C   UNL     1       1.049   3.123  19.070  0.00  0.00    +0.000 C 
ATOM     15  C   UNL     1       1.978   2.305  19.609  0.00  0.00    +0.000 C 
ATOM     16  C   UNL     1       2.937   2.798  20.681  0.00  0.00    +0.000 C 
ATOM     17  C   UNL     1       4.340   2.090  20.782  0.00  0.00    +0.000 C 
ATOM     18  C   UNL     1       2.237   2.367  21.983  0.00  0.00    +0.000 C 
ENDROOT
BRANCH   1  19
ATOM     19  N   UNL     1       2.396   7.855  19.477  0.00  0.00    +0.000 N 
ATOM     20  H   UNL     1       2.652   8.022  20.456  0.00  0.00    +0.000 HD
BRANCH  19  26
ATOM     21  C   UNL     1       0.622   9.312  20.401  0.00  0.00    +0.000 A 
ATOM     22  C   UNL     1      -0.583  10.031  20.227  0.00  0.00    +0.000 A 
ATOM     23  C   UNL     1      -0.973  10.507  18.974  0.00  0.00    +0.000 A 
ATOM     24  C   UNL     1      -0.146  10.190  17.888  0.00  0.00    +0.000 A 
ATOM     25  C   UNL     1       0.998   9.344  18.029  0.00  0.00    +0.000 A 
ATOM     26  C   UNL     1       1.356   8.822  19.264  0.00  0.00    +0.000 A 
BRANCH  23  27
ATOM     27  N   UNL     1      -2.148  11.277  18.784  0.00  0.00    +0.000 N 
ATOM     28  C   UNL     1      -3.284  10.902  18.093  0.00  0.00    +0.000 C 
ATOM     29  O   UNL     1      -3.524   9.827  17.588  0.00  0.00    +0.000 OA
ATOM     30  H   UNL     1      -2.204  12.185  19.210  0.00  0.00    +0.000 HD
BRANCH  28  31
ATOM     31  O   UNL     1      -4.164  11.951  18.087  0.00  0.00    +0.000 OA
ATOM     32  C   UNL     1      -5.428  11.657  17.462  0.00  0.00    +0.000 C 
ENDBRANCH  28  31
ENDBRANCH  23  27
BRANCH  21  34
ATOM     33  C   UNL     1       0.047   9.448  22.754  0.00  0.00    +0.000 C 
ATOM     34  N   UNL     1       1.013   8.982  21.738  0.00  0.00    +0.000 N 
ATOM     35  H   UNL     1       1.925   9.406  21.899  0.00  0.00    +0.000 HD
ENDBRANCH  21  34
ENDBRANCH  19  26
ENDBRANCH   1  19
TORSDOF 5
ENDMDL
MODEL 6
REMARK VINA RESULT:      -7.8      2.345      4.500
REMARK  Name = 
REMARK  11 active torsions:
REMARK  status: ('A' for Active; 'I' for Inactive)
REMARK    1  A    between atoms: C_1  and  N_2
REMARK    2  A    between atoms: N_2  and  C_3
REMARK    3  A    between atoms: C_5  and  N_6
REMARK    4  A    between atoms: C_7  and  O_9
REMARK    5  A    between atoms: O_9  and  C_10
REMARK    6  A    between atoms: C_13  and  N_14
REMARK    7  A    between atoms: N_14  and  C_15
REMARK    8  A    between atoms: C_20  and  C_21
REMARK    9  A    between atoms: C_20  and  C_22
REMARK   10  A    between atoms: C_30  and  C_31
REMARK   11  A    between atoms: C_30  and  C_32
REMARK                            x       y       z     vdW  Elec       q    Type
REMARK                         _______ _______ _______ _____ _____    ______ ____
ROOT
ATOM      1  C   UNL     1       2.394   6.566  19.625  0.00  0.00    +0.000 C 
ATOM      2  C   UNL     1       3.228   6.232  18.588  0.00  0.00    +0.000 C 
ATOM      3  C   UNL     1       4.037   7.011  17.673  0.00  0.00    +0.000 C 
ATOM      4  C   UNL     1       4.726   6.406  16.682  0.00  0.00    +0.000 C 
ATOM      5  C   UNL     1       4.674   4.931  16.336  0.00  0.00    +0.000 C 
ATOM      6  C   UNL     1       3.807   4.062  17.263  0.00  0.00    +0.000 C 
ATOM      7  C   UNL     1       4.444   2.675  17.481  0.00  0.00    +0.000 C 
ATOM      8  C   UNL     1       2.428   3.811  16.610  0.00  0.00    +0.000 C 
ATOM      9  C   UNL     1       3.640   4.803  18.593  0.00  0.00    +0.000 C 
ATOM     10  N   UNL     1       3.986   4.269  19.713  0.00  0.00    +0.000 NA
ATOM     11  C   UNL     1       2.954   4.377  20.782  0.00  0.00    +0.000 C 
ATOM     12  C   UNL     1       1.822   5.298  20.247  0.00  0.00    +0.000 C 
ATOM     13  C   UNL     1       0.744   4.686  19.687  0.00  0.00    +0.000 C 
ATOM     14  C   UNL     1       0.721   3.226  19.477  0.00  0.00    +0.000 C 
ATOM     15  C   UNL     1       1.651   2.375  19.959  0.00  0.00    +0.000 C 
ATOM     16  C   UNL     1       2.656   2.819  21.010  0.00  0.00    +0.000 C 
ATOM     17  C   UNL     1       4.048   2.083  21.041  0.00  0.00    +0.000 C 
ATOM     18  C   UNL     1       1.993   2.362  22.323  0.00  0.00    +0.000 C 
ENDROOT
BRANCH   1  19
ATOM     19  N   UNL     1       2.171   7.919  19.975  0.00  0.00    +0.000 N 
ATOM     20  H   UNL     1       3.050   8.308  20.332  0.00  0.00    +0.000 HD
BRANCH  19  26
ATOM     21  C   UNL     1       0.417   9.664  19.928  0.00  0.00    +0.000 A 
ATOM     22  C   UNL     1      -0.348  10.646  20.599  0.00  0.00    +0.000 A 
ATOM     23  C   UNL     1      -0.590  10.569  21.972  0.00  0.00    +0.000 A 
ATOM     24  C   UNL     1       0.007   9.507  22.664  0.00  0.00    +0.000 A 
ATOM     25  C   UNL     1       0.897   8.591  22.023  0.00  0.00    +0.000 A 
ATOM     26  C   UNL     1       1.186   8.699  20.670  0.00  0.00    +0.000 A 
BRANCH  23  27
ATOM     27  N   UNL     1      -1.399  11.510  22.655  0.00  0.00    +0.000 N 
ATOM     28  C   UNL     1      -1.063  12.809  22.987  0.00  0.00    +0.000 C 
ATOM     29  O   UNL     1      -0.055  13.412  22.692  0.00  0.00    +0.000 OA
ATOM     30  H   UNL     1      -2.333  11.246  22.915  0.00  0.00    +0.000 HD
BRANCH  28  31
ATOM     31  O   UNL     1      -2.093  13.365  23.698  0.00  0.00    +0.000 OA
ATOM     32  C   UNL     1      -3.341  12.656  23.581  0.00  0.00    +0.000 C 
ENDBRANCH  28  31
ENDBRANCH  23  27
BRANCH  21  34
ATOM     33  C   UNL     1      -0.789  10.085  17.866  0.00  0.00    +0.000 C 
ATOM     34  N   UNL     1       0.500   9.744  18.502  0.00  0.00    +0.000 N 
ATOM     35  H   UNL     1       0.830   8.841  18.167  0.00  0.00    +0.000 HD
ENDBRANCH  21  34
ENDBRANCH  19  26
ENDBRANCH   1  19
TORSDOF 5
ENDMDL
MODEL 7
REMARK VINA RESULT:      -7.7      2.216      4.436
REMARK  Name = 
REMARK  11 active torsions:
REMARK  status: ('A' for Active; 'I' for Inactive)
REMARK    1  A    between atoms: C_1  and  N_2
REMARK    2  A    between atoms: N_2  and  C_3
REMARK    3  A    between atoms: C_5  and  N_6
REMARK    4  A    between atoms: C_7  and  O_9
REMARK    5  A    between atoms: O_9  and  C_10
REMARK    6  A    between atoms: C_13  and  N_14
REMARK    7  A    between atoms: N_14  and  C_15
REMARK    8  A    between atoms: C_20  and  C_21
REMARK    9  A    between atoms: C_20  and  C_22
REMARK   10  A    between atoms: C_30  and  C_31
REMARK   11  A    between atoms: C_30  and  C_32
REMARK                            x       y       z     vdW  Elec       q    Type
REMARK                         _______ _______ _______ _____ _____    ______ ____
ROOT
ATOM      1  C   UNL     1       2.761   6.863  18.458  0.00  0.00    +0.000 C 
ATOM      2  C   UNL     1       4.029   6.749  17.949  0.00  0.00    +0.000 C 
ATOM      3  C   UNL     1       5.030   7.718  17.551  0.00  0.00    +0.000 C 
ATOM      4  C   UNL     1       6.198   7.313  17.007  0.00  0.00    +0.000 C 
ATOM      5  C   UNL     1       6.567   5.885  16.658  0.00  0.00    +0.000 C 
ATOM      6  C   UNL     1       5.526   4.818  17.036  0.00  0.00    +0.000 C 
ATOM      7  C   UNL     1       6.208   3.520  17.515  0.00  0.00    +0.000 C 
ATOM      8  C   UNL     1       4.687   4.438  15.794  0.00  0.00    +0.000 C 
ATOM      9  C   UNL     1       4.625   5.398  18.130  0.00  0.00    +0.000 C 
ATOM     10  N   UNL     1       4.483   4.815  19.271  0.00  0.00    +0.000 NA
ATOM     11  C   UNL     1       3.066   4.674  19.709  0.00  0.00    +0.000 C 
ATOM     12  C   UNL     1       2.186   5.473  18.706  0.00  0.00    +0.000 C 
ATOM     13  C   UNL     1       1.623   4.771  17.687  0.00  0.00    +0.000 C 
ATOM     14  C   UNL     1       1.951   3.349  17.469  0.00  0.00    +0.000 C 
ATOM     15  C   UNL     1       2.670   2.596  18.329  0.00  0.00    +0.000 C 
ATOM     16  C   UNL     1       2.965   3.075  19.741  0.00  0.00    +0.000 C 
ATOM     17  C   UNL     1       4.277   2.543  20.430  0.00  0.00    +0.000 C 
ATOM     18  C   UNL     1       1.847   2.407  20.563  0.00  0.00    +0.000 C 
ENDROOT
BRANCH   1  19
ATOM     19  N   UNL     1       2.172   8.131  18.677  0.00  0.00    +0.000 N 
ATOM     20  H   UNL     1       2.892   8.847  18.536  0.00  0.00    +0.000 HD
BRANCH  19  26
ATOM     21  C   UNL     1       0.318   9.699  19.149  0.00  0.00    +0.000 A 
ATOM     22  C   UNL     1      -0.364  10.550  20.050  0.00  0.00    +0.000 A 
ATOM     23  C   UNL     1      -0.307  10.346  21.430  0.00  0.00    +0.000 A 
ATOM     24  C   UNL     1       0.501   9.295  21.884  0.00  0.00    +0.000 A 
ATOM     25  C   UNL     1       1.306   8.519  20.994  0.00  0.00    +0.000 A 
ATOM     26  C   UNL     1       1.297   8.758  19.626  0.00  0.00    +0.000 A 
BRANCH  23  27
ATOM     27  N   UNL     1      -1.026  11.151  22.348  0.00  0.00    +0.000 N 
ATOM     28  C   UNL     1      -0.785  12.476  22.657  0.00  0.00    +0.000 C 
ATOM     29  O   UNL     1       0.027  13.220  22.150  0.00  0.00    +0.000 OA
ATOM     30  H   UNL     1      -1.819  10.755  22.820  0.00  0.00    +0.000 HD
BRANCH  28  31
ATOM     31  O   UNL     1      -1.659  12.869  23.635  0.00  0.00    +0.000 OA
ATOM     32  C   UNL     1      -3.022  12.469  23.403  0.00  0.00    +0.000 C 
ENDBRANCH  28  31
ENDBRANCH  23  27
BRANCH  21  34
ATOM     33  C   UNL     1      -1.334  10.050  17.408  0.00  0.00    +0.000 C 
ATOM     34  N   UNL     1       0.095   9.897  17.749  0.00  0.00    +0.000 N 
ATOM     35  H   UNL     1       0.489   9.092  17.264  0.00  0.00    +0.000 HD
ENDBRANCH  21  34
ENDBRANCH  19  26
ENDBRANCH   1  19
TORSDOF 5
ENDMDL
MODEL 8
REMARK VINA RESULT:      -7.7      1.145      1.860
REMARK  Name = 
REMARK  11 active torsions:
REMARK  status: ('A' for Active; 'I' for Inactive)
REMARK    1  A    between atoms: C_1  and  N_2
REMARK    2  A    between atoms: N_2  and  C_3
REMARK    3  A    between atoms: C_5  and  N_6
REMARK    4  A    between atoms: C_7  and  O_9
REMARK    5  A    between atoms: O_9  and  C_10
REMARK    6  A    between atoms: C_13  and  N_14
REMARK    7  A    between atoms: N_14  and  C_15
REMARK    8  A    between atoms: C_20  and  C_21
REMARK    9  A    between atoms: C_20  and  C_22
REMARK   10  A    between atoms: C_30  and  C_31
REMARK   11  A    between atoms: C_30  and  C_32
REMARK                            x       y       z     vdW  Elec       q    Type
REMARK                         _______ _______ _______ _____ _____    ______ ____
ROOT
ATOM      1  C   UNL     1       3.035   6.223  19.773  0.00  0.00    +0.000 C 
ATOM      2  C   UNL     1       2.407   5.005  19.826  0.00  0.00    +0.000 C 
ATOM      3  C   UNL     1       1.206   4.534  20.485  0.00  0.00    +0.000 C 
ATOM      4  C   UNL     1       0.851   3.233  20.416  0.00  0.00    +0.000 C 
ATOM      5  C   UNL     1       1.660   2.125  19.771  0.00  0.00    +0.000 C 
ATOM      6  C   UNL     1       2.959   2.568  19.078  0.00  0.00    +0.000 C 
ATOM      7  C   UNL     1       3.212   1.751  17.795  0.00  0.00    +0.000 C 
ATOM      8  C   UNL     1       4.167   2.306  20.008  0.00  0.00    +0.000 C 
ATOM      9  C   UNL     1       2.846   4.062  18.762  0.00  0.00    +0.000 C 
ATOM     10  N   UNL     1       2.977   4.512  17.561  0.00  0.00    +0.000 NA
ATOM     11  C   UNL     1       3.897   5.678  17.447  0.00  0.00    +0.000 C 
ATOM     12  C   UNL     1       4.273   6.119  18.890  0.00  0.00    +0.000 C 
ATOM     13  C   UNL     1       5.438   5.635  19.397  0.00  0.00    +0.000 C 
ATOM     14  C   UNL     1       6.230   4.631  18.662  0.00  0.00    +0.000 C 
ATOM     15  C   UNL     1       5.977   4.246  17.392  0.00  0.00    +0.000 C 
ATOM     16  C   UNL     1       5.020   5.029  16.507  0.00  0.00    +0.000 C 
ATOM     17  C   UNL     1       4.270   4.238  15.371  0.00  0.00    +0.000 C 
ATOM     18  C   UNL     1       5.970   5.950  15.719  0.00  0.00    +0.000 C 
ENDROOT
BRANCH   1  19
ATOM     19  N   UNL     1       2.522   7.340  20.474  0.00  0.00    +0.000 N 
ATOM     20  H   UNL     1       2.554   7.132  21.477  0.00  0.00    +0.000 HD
BRANCH  19  26
ATOM     21  C   UNL     1       1.334   9.137  19.257  0.00  0.00    +0.000 A 
ATOM     22  C   UNL     1       0.436  10.230  19.262  0.00  0.00    +0.000 A 
ATOM     23  C   UNL     1      -0.568  10.344  20.224  0.00  0.00    +0.000 A 
ATOM     24  C   UNL     1      -0.611   9.356  21.218  0.00  0.00    +0.000 A 
ATOM     25  C   UNL     1       0.376   8.327  21.306  0.00  0.00    +0.000 A 
ATOM     26  C   UNL     1       1.411   8.245  20.384  0.00  0.00    +0.000 A 
BRANCH  23  27
ATOM     27  N   UNL     1      -1.513  11.400  20.217  0.00  0.00    +0.000 N 
ATOM     28  C   UNL     1      -2.474  11.649  19.256  0.00  0.00    +0.000 C 
ATOM     29  O   UNL     1      -2.744  10.975  18.286  0.00  0.00    +0.000 OA
ATOM     30  H   UNL     1      -1.530  12.037  20.993  0.00  0.00    +0.000 HD
BRANCH  28  31
ATOM     31  O   UNL     1      -3.141  12.798  19.584  0.00  0.00    +0.000 OA
ATOM     32  C   UNL     1      -3.766  12.768  20.882  0.00  0.00    +0.000 C 
ENDBRANCH  28  31
ENDBRANCH  23  27
BRANCH  21  34
ATOM     33  C   UNL     1       2.620  10.336  17.586  0.00  0.00    +0.000 C 
ATOM     34  N   UNL     1       2.243   9.027  18.157  0.00  0.00    +0.000 N 
ATOM     35  H   UNL     1       1.791   8.451  17.448  0.00  0.00    +0.000 HD
ENDBRANCH  21  34
ENDBRANCH  19  26
ENDBRANCH   1  19
TORSDOF 5
ENDMDL
MODEL 9
REMARK VINA RESULT:      -7.6      4.191     10.811
REMARK  Name = 
REMARK  11 active torsions:
REMARK  status: ('A' for Active; 'I' for Inactive)
REMARK    1  A    between atoms: C_1  and  N_2
REMARK    2  A    between atoms: N_2  and  C_3
REMARK    3  A    between atoms: C_5  and  N_6
REMARK    4  A    between atoms: C_7  and  O_9
REMARK    5  A    between atoms: O_9  and  C_10
REMARK    6  A    between atoms: C_13  and  N_14
REMARK    7  A    between atoms: N_14  and  C_15
REMARK    8  A    between atoms: C_20  and  C_21
REMARK    9  A    between atoms: C_20  and  C_22
REMARK   10  A    between atoms: C_30  and  C_31
REMARK   11  A    between atoms: C_30  and  C_32
REMARK                            x       y       z     vdW  Elec       q    Type
REMARK                         _______ _______ _______ _____ _____    ______ ____
ROOT
ATOM      1  C   UNL     1      -3.361  12.947  19.968  0.00  0.00    +0.000 C 
ATOM      2  C   UNL     1      -4.602  12.404  19.752  0.00  0.00    +0.000 C 
ATOM      3  C   UNL     1      -5.139  11.529  18.731  0.00  0.00    +0.000 C 
ATOM      4  C   UNL     1      -6.449  11.200  18.730  0.00  0.00    +0.000 C 
ATOM      5  C   UNL     1      -7.503  11.746  19.672  0.00  0.00    +0.000 C 
ATOM      6  C   UNL     1      -6.988  12.703  20.761  0.00  0.00    +0.000 C 
ATOM      7  C   UNL     1      -7.749  12.497  22.087  0.00  0.00    +0.000 C 
ATOM      8  C   UNL     1      -7.241  14.168  20.336  0.00  0.00    +0.000 C 
ATOM      9  C   UNL     1      -5.489  12.454  20.946  0.00  0.00    +0.000 C 
ATOM     10  N   UNL     1      -4.991  12.138  22.092  0.00  0.00    +0.000 NA
ATOM     11  C   UNL     1      -3.789  12.932  22.471  0.00  0.00    +0.000 C 
ATOM     12  C   UNL     1      -3.388  13.790  21.238  0.00  0.00    +0.000 C 
ATOM     13  C   UNL     1      -3.848  15.069  21.202  0.00  0.00    +0.000 C 
ATOM     14  C   UNL     1      -4.796  15.566  22.218  0.00  0.00    +0.000 C 
ATOM     15  C   UNL     1      -5.142  14.884  23.330  0.00  0.00    +0.000 C 
ATOM     16  C   UNL     1      -4.363  13.658  23.779  0.00  0.00    +0.000 C 
ATOM     17  C   UNL     1      -5.138  12.567  24.610  0.00  0.00    +0.000 C 
ATOM     18  C   UNL     1      -3.380  14.244  24.810  0.00  0.00    +0.000 C 
ENDROOT
BRANCH   1  19
ATOM     19  N   UNL     1      -2.290  12.696  19.079  0.00  0.00    +0.000 N 
ATOM     20  H   UNL     1      -2.589  12.957  18.133  0.00  0.00    +0.000 HD
BRANCH  19  26
ATOM     21  C   UNL     1      -0.007  11.789  19.374  0.00  0.00    +0.000 A 
ATOM     22  C   UNL     1       1.048  10.961  18.923  0.00  0.00    +0.000 A 
ATOM     23  C   UNL     1       0.806   9.841  18.127  0.00  0.00    +0.000 A 
ATOM     24  C   UNL     1      -0.523   9.607  17.747  0.00  0.00    +0.000 A 
ATOM     25  C   UNL     1      -1.576  10.514  18.078  0.00  0.00    +0.000 A 
ATOM     26  C   UNL     1      -1.329  11.660  18.821  0.00  0.00    +0.000 A 
BRANCH  23  27
ATOM     27  N   UNL     1       1.839   8.967  17.709  0.00  0.00    +0.000 N 
ATOM     28  C   UNL     1       2.449   7.981  18.460  0.00  0.00    +0.000 C 
ATOM     29  O   UNL     1       2.167   7.624  19.584  0.00  0.00    +0.000 OA
ATOM     30  H   UNL     1       2.167   9.025  16.761  0.00  0.00    +0.000 HD
BRANCH  28  31
ATOM     31  O   UNL     1       3.441   7.404  17.714  0.00  0.00    +0.000 OA
ATOM     32  C   UNL     1       3.525   5.973  17.849  0.00  0.00    +0.000 C 
ENDBRANCH  28  31
ENDBRANCH  23  27
BRANCH  21  34
ATOM     33  C   UNL     1       0.032  12.472  21.702  0.00  0.00    +0.000 C 
ATOM     34  N   UNL     1       0.316  12.834  20.298  0.00  0.00    +0.000 N 
ATOM     35  H   UNL     1      -0.226  13.653  20.029  0.00  0.00    +0.000 HD
ENDBRANCH  21  34
ENDBRANCH  19  26
ENDBRANCH   1  19
TORSDOF 5
ENDMDL
