MODEL 1
REMARK VINA RESULT:      -6.7      0.000      0.000
REMARK  Name = 
REMARK  12 active torsions:
REMARK  status: ('A' for Active; 'I' for Inactive)
REMARK    1  A    between atoms: C_1  and  O_2
REMARK    2  A    between atoms: O_2  and  C_3
REMARK    3  A    between atoms: C_6  and  C_7
REMARK    4  A    between atoms: C_11  and  O_12
REMARK    5  A    between atoms: C_14  and  O_15
REMARK    6  A    between atoms: C_19  and  O_20
REMARK    7  A    between atoms: O_20  and  C_21
REMARK    8  A    between atoms: C_23  and  C_24
REMARK    9  A    between atoms: C_24  and  O_25
REMARK   10  A    between atoms: C_26  and  O_27
REMARK   11  A    between atoms: C_28  and  O_29
REMARK   12  A    between atoms: C_30  and  O_31
REMARK                            x       y       z     vdW  Elec       q    Type
REMARK                         _______ _______ _______ _____ _____    ______ ____
ROOT
ATOM      1  C   UNL     1      -3.892  12.180  19.554  0.00  0.00    +0.000 A 
ATOM      2  O   UNL     1      -5.183  12.008  20.050  0.00  0.00    +0.000 OA
ATOM      3  C   UNL     1      -5.470  12.610  21.263  0.00  0.00    +0.000 A 
ATOM      4  C   UNL     1      -6.563  12.165  22.009  0.00  0.00    +0.000 A 
ATOM      5  C   UNL     1      -6.873  12.818  23.207  0.00  0.00    +0.000 A 
ATOM      6  C   UNL     1      -6.130  13.904  23.664  0.00  0.00    +0.000 A 
ATOM      7  C   UNL     1      -5.042  14.338  22.923  0.00  0.00    +0.000 A 
ATOM      8  C   UNL     1      -4.715  13.685  21.732  0.00  0.00    +0.000 A 
ATOM      9  C   UNL     1      -3.600  14.107  20.898  0.00  0.00    +0.000 A 
ATOM     10  O   UNL     1      -3.286  15.289  20.785  0.00  0.00    +0.000 OA
ATOM     11  C   UNL     1      -2.988  13.043  20.065  0.00  0.00    +0.000 A 
ENDROOT
BRANCH   1  15
ATOM     12  C   UNL     1      -3.134  10.118  15.857  0.00  0.00    +0.000 A 
ATOM     13  C   UNL     1      -4.155  11.079  15.918  0.00  0.00    +0.000 A 
ATOM     14  C   UNL     1      -4.394  11.816  17.091  0.00  0.00    +0.000 A 
ATOM     15  C   UNL     1      -3.625  11.583  18.228  0.00  0.00    +0.000 A 
ATOM     16  C   UNL     1      -2.590  10.626  18.156  0.00  0.00    +0.000 A 
ATOM     17  C   UNL     1      -2.347   9.894  16.983  0.00  0.00    +0.000 A 
BRANCH  12  19
ATOM     18  C   UNL     1      -3.727   9.993  13.565  0.00  0.00    +0.000 C 
ATOM     19  O   UNL     1      -3.047   9.426  14.682  0.00  0.00    +0.000 OA
ENDBRANCH  12  19
ENDBRANCH   1  15
BRANCH   5  20
ATOM     20  O   UNL     1      -7.917  12.423  23.991  0.00  0.00    +0.000 OA
ATOM     21  H   UNL     1      -7.720  11.549  24.374  0.00  0.00    +0.000 HD
ENDBRANCH   5  20
BRANCH   7  22
ATOM     22  O   UNL     1      -4.278  15.372  23.381  0.00  0.00    +0.000 OA
ATOM     23  H   UNL     1      -4.788  16.198  23.342  0.00  0.00    +0.000 HD
ENDBRANCH   7  22
BRANCH  11  24
ATOM     24  O   UNL     1      -1.662  13.061  19.681  0.00  0.00    +0.000 OA
BRANCH  24  25
ATOM     25  C   UNL     1      -0.676  12.538  20.591  0.00  0.00    +0.000 C 
ATOM     26  O   UNL     1      -0.027  11.320  20.192  0.00  0.00    +0.000 OA
ATOM     27  C   UNL     1       0.733  11.391  18.983  0.00  0.00    +0.000 C 
ATOM     28  C   UNL     1       1.765  12.528  18.998  0.00  0.00    +0.000 C 
ATOM     29  C   UNL     1       1.126  13.848  19.463  0.00  0.00    +0.000 C 
ATOM     30  C   UNL     1       0.386  13.634  20.792  0.00  0.00    +0.000 C 
BRANCH  28  31
ATOM     31  O   UNL     1       2.331  12.658  17.686  0.00  0.00    +0.000 OA
ATOM     32  H   UNL     1       1.761  12.186  17.056  0.00  0.00    +0.000 HD
ENDBRANCH  28  31
BRANCH  29  33
ATOM     33  O   UNL     1       2.136  14.860  19.574  0.00  0.00    +0.000 OA
ATOM     34  H   UNL     1       2.276  15.045  20.519  0.00  0.00    +0.000 HD
ENDBRANCH  29  33
BRANCH  30  35
ATOM     35  O   UNL     1      -0.191  14.860  21.259  0.00  0.00    +0.000 OA
ATOM     36  H   UNL     1      -0.576  14.687  22.141  0.00  0.00    +0.000 HD
ENDBRANCH  30  35
BRANCH  27  37
ATOM     37  C   UNL     1       1.427  10.031  18.747  0.00  0.00    +0.000 C 
BRANCH  37  38
ATOM     38  O   UNL     1       1.851   9.869  17.392  0.00  0.00    +0.000 OA
ATOM     39  H   UNL     1       1.945  10.767  17.025  0.00  0.00    +0.000 HD
ENDBRANCH  37  38
ENDBRANCH  27  37
ENDBRANCH  24  25
ENDBRANCH  11  24
TORSDOF 11
ENDMDL
MODEL 2
REMARK VINA RESULT:      -6.6      5.662      9.328
REMARK  Name = 
REMARK  12 active torsions:
REMARK  status: ('A' for Active; 'I' for Inactive)
REMARK    1  A    between atoms: C_1  and  O_2
REMARK    2  A    between atoms: O_2  and  C_3
REMARK    3  A    between atoms: C_6  and  C_7
REMARK    4  A    between atoms: C_11  and  O_12
REMARK    5  A    between atoms: C_14  and  O_15
REMARK    6  A    between atoms: C_19  and  O_20
REMARK    7  A    between atoms: O_20  and  C_21
REMARK    8  A    between atoms: C_23  and  C_24
REMARK    9  A    between atoms: C_24  and  O_25
REMARK   10  A    between atoms: C_26  and  O_27
REMARK   11  A    between atoms: C_28  and  O_29
REMARK   12  A    between atoms: C_30  and  O_31
REMARK                            x       y       z     vdW  Elec       q    Type
REMARK                         _______ _______ _______ _____ _____    ______ ____
ROOT
ATOM      1  C   UNL     1       2.856   7.656  18.221  0.00  0.00    +0.000 A 
ATOM      2  O   UNL     1       2.441   8.910  17.778  0.00  0.00    +0.000 OA
ATOM      3  C   UNL     1       1.351   9.470  18.421  0.00  0.00    +0.000 A 
ATOM      4  C   UNL     1       0.636  10.494  17.796  0.00  0.00    +0.000 A 
ATOM      5  C   UNL     1      -0.430  11.087  18.480  0.00  0.00    +0.000 A 
ATOM      6  C   UNL     1      -0.785  10.694  19.769  0.00  0.00    +0.000 A 
ATOM      7  C   UNL     1      -0.076   9.672  20.382  0.00  0.00    +0.000 A 
ATOM      8  C   UNL     1       0.982   9.064  19.703  0.00  0.00    +0.000 A 
ATOM      9  C   UNL     1       1.779   8.003  20.301  0.00  0.00    +0.000 A 
ATOM     10  O   UNL     1       2.034   7.984  21.503  0.00  0.00    +0.000 OA
ATOM     11  C   UNL     1       2.404   7.058  19.344  0.00  0.00    +0.000 A 
ENDROOT
BRANCH   1  15
ATOM     12  C   UNL     1       6.309   5.749  16.509  0.00  0.00    +0.000 A 
ATOM     13  C   UNL     1       5.325   6.287  15.666  0.00  0.00    +0.000 A 
ATOM     14  C   UNL     1       4.212   6.970  16.186  0.00  0.00    +0.000 A 
ATOM     15  C   UNL     1       4.059   7.104  17.564  0.00  0.00    +0.000 A 
ATOM     16  C   UNL     1       5.060   6.573  18.406  0.00  0.00    +0.000 A 
ATOM     17  C   UNL     1       6.175   5.896  17.886  0.00  0.00    +0.000 A 
BRANCH  12  19
ATOM     18  C   UNL     1       7.019   4.597  14.563  0.00  0.00    +0.000 C 
ATOM     19  O   UNL     1       7.304   5.054  15.882  0.00  0.00    +0.000 OA
ENDBRANCH  12  19
ENDBRANCH   1  15
BRANCH   5  20
ATOM     20  O   UNL     1      -1.180  12.080  17.921  0.00  0.00    +0.000 OA
ATOM     21  H   UNL     1      -1.951  11.688  17.472  0.00  0.00    +0.000 HD
ENDBRANCH   5  20
BRANCH   7  22
ATOM     22  O   UNL     1      -0.440   9.246  21.626  0.00  0.00    +0.000 OA
ATOM     23  H   UNL     1       0.046   8.436  21.850  0.00  0.00    +0.000 HD
ENDBRANCH   7  22
BRANCH  11  24
ATOM     24  O   UNL     1       2.683   5.744  19.663  0.00  0.00    +0.000 OA
BRANCH  24  25
ATOM     25  C   UNL     1       1.922   4.704  19.022  0.00  0.00    +0.000 C 
ATOM     26  O   UNL     1       2.642   3.863  18.107  0.00  0.00    +0.000 OA
ATOM     27  C   UNL     1       3.710   3.102  18.674  0.00  0.00    +0.000 C 
ATOM     28  C   UNL     1       3.264   2.264  19.881  0.00  0.00    +0.000 C 
ATOM     29  C   UNL     1       2.449   3.112  20.872  0.00  0.00    +0.000 C 
ATOM     30  C   UNL     1       1.310   3.833  20.134  0.00  0.00    +0.000 C 
BRANCH  28  31
ATOM     31  O   UNL     1       4.425   1.702  20.510  0.00  0.00    +0.000 OA
ATOM     32  H   UNL     1       4.140   1.197  21.289  0.00  0.00    +0.000 HD
ENDBRANCH  28  31
BRANCH  29  33
ATOM     33  O   UNL     1       1.954   2.278  21.929  0.00  0.00    +0.000 OA
ATOM     34  H   UNL     1       1.215   2.743  22.359  0.00  0.00    +0.000 HD
ENDBRANCH  29  33
BRANCH  30  35
ATOM     35  O   UNL     1       0.519   4.605  21.045  0.00  0.00    +0.000 OA
ATOM     36  H   UNL     1       0.410   5.496  20.659  0.00  0.00    +0.000 HD
ENDBRANCH  30  35
BRANCH  27  37
ATOM     37  C   UNL     1       4.318   2.198  17.580  0.00  0.00    +0.000 C 
BRANCH  37  38
ATOM     38  O   UNL     1       4.158   0.809  17.875  0.00  0.00    +0.000 OA
ATOM     39  H   UNL     1       4.755   0.616  18.620  0.00  0.00    +0.000 HD
ENDBRANCH  37  38
ENDBRANCH  27  37
ENDBRANCH  24  25
ENDBRANCH  11  24
TORSDOF 11
ENDMDL
MODEL 3
REMARK VINA RESULT:      -6.6      5.594      9.256
REMARK  Name = 
REMARK  12 active torsions:
REMARK  status: ('A' for Active; 'I' for Inactive)
REMARK    1  A    between atoms: C_1  and  O_2
REMARK    2  A    between atoms: O_2  and  C_3
REMARK    3  A    between atoms: C_6  and  C_7
REMARK    4  A    between atoms: C_11  and  O_12
REMARK    5  A    between atoms: C_14  and  O_15
REMARK    6  A    between atoms: C_19  and  O_20
REMARK    7  A    between atoms: O_20  and  C_21
REMARK    8  A    between atoms: C_23  and  C_24
REMARK    9  A    between atoms: C_24  and  O_25
REMARK   10  A    between atoms: C_26  and  O_27
REMARK   11  A    between atoms: C_28  and  O_29
REMARK   12  A    between atoms: C_30  and  O_31
REMARK                            x       y       z     vdW  Elec       q    Type
REMARK                         _______ _______ _______ _____ _____    ______ ____
ROOT
ATOM      1  C   UNL     1       2.665   7.333  18.789  0.00  0.00    +0.000 A 
ATOM      2  O   UNL     1       2.246   8.483  18.125  0.00  0.00    +0.000 OA
ATOM      3  C   UNL     1       1.172   9.164  18.673  0.00  0.00    +0.000 A 
ATOM      4  C   UNL     1       0.447  10.056  17.881  0.00  0.00    +0.000 A 
ATOM      5  C   UNL     1      -0.601  10.776  18.462  0.00  0.00    +0.000 A 
ATOM      6  C   UNL     1      -0.929  10.636  19.809  0.00  0.00    +0.000 A 
ATOM      7  C   UNL     1      -0.211   9.744  20.590  0.00  0.00    +0.000 A 
ATOM      8  C   UNL     1       0.830   9.009  20.016  0.00  0.00    +0.000 A 
ATOM      9  C   UNL     1       1.637   8.075  20.787  0.00  0.00    +0.000 A 
ATOM     10  O   UNL     1       1.917   8.282  21.966  0.00  0.00    +0.000 OA
ATOM     11  C   UNL     1       2.236   6.961  20.014  0.00  0.00    +0.000 A 
ENDROOT
BRANCH   1  15
ATOM     12  C   UNL     1       6.188   5.672  16.964  0.00  0.00    +0.000 A 
ATOM     13  C   UNL     1       6.031   5.603  18.357  0.00  0.00    +0.000 A 
ATOM     14  C   UNL     1       4.867   6.082  18.984  0.00  0.00    +0.000 A 
ATOM     15  C   UNL     1       3.852   6.657  18.223  0.00  0.00    +0.000 A 
ATOM     16  C   UNL     1       4.010   6.709  16.822  0.00  0.00    +0.000 A 
ATOM     17  C   UNL     1       5.169   6.225  16.195  0.00  0.00    +0.000 A 
BRANCH  12  19
ATOM     18  C   UNL     1       7.424   4.864  15.110  0.00  0.00    +0.000 C 
ATOM     19  O   UNL     1       7.390   5.233  16.486  0.00  0.00    +0.000 OA
ENDBRANCH  12  19
ENDBRANCH   1  15
BRANCH   5  20
ATOM     20  O   UNL     1      -1.360  11.651  17.741  0.00  0.00    +0.000 OA
ATOM     21  H   UNL     1      -1.618  12.399  18.310  0.00  0.00    +0.000 HD
ENDBRANCH   5  20
BRANCH   7  22
ATOM     22  O   UNL     1      -0.549   9.563  21.899  0.00  0.00    +0.000 OA
ATOM     23  H   UNL     1      -0.705  10.425  22.320  0.00  0.00    +0.000 HD
ENDBRANCH   7  22
BRANCH  11  24
ATOM     24  O   UNL     1       2.518   5.729  20.570  0.00  0.00    +0.000 OA
BRANCH  24  25
ATOM     25  C   UNL     1       1.587   4.651  20.359  0.00  0.00    +0.000 C 
ATOM     26  O   UNL     1       1.445   4.191  19.006  0.00  0.00    +0.000 OA
ATOM     27  C   UNL     1       2.625   3.647  18.409  0.00  0.00    +0.000 C 
ATOM     28  C   UNL     1       3.256   2.531  19.255  0.00  0.00    +0.000 C 
ATOM     29  C   UNL     1       3.389   2.962  20.727  0.00  0.00    +0.000 C 
ATOM     30  C   UNL     1       2.039   3.478  21.248  0.00  0.00    +0.000 C 
BRANCH  28  31
ATOM     31  O   UNL     1       4.532   2.191  18.696  0.00  0.00    +0.000 OA
ATOM     32  H   UNL     1       5.197   2.808  19.045  0.00  0.00    +0.000 HD
ENDBRANCH  28  31
BRANCH  29  33
ATOM     33  O   UNL     1       3.876   1.863  21.509  0.00  0.00    +0.000 OA
ATOM     34  H   UNL     1       4.371   2.226  22.264  0.00  0.00    +0.000 HD
ENDBRANCH  29  33
BRANCH  30  35
ATOM     35  O   UNL     1       2.133   3.855  22.627  0.00  0.00    +0.000 OA
ATOM     36  H   UNL     1       1.297   3.598  23.060  0.00  0.00    +0.000 HD
ENDBRANCH  30  35
BRANCH  27  37
ATOM     37  C   UNL     1       2.279   3.127  16.997  0.00  0.00    +0.000 C 
BRANCH  37  38
ATOM     38  O   UNL     1       2.180   1.703  16.954  0.00  0.00    +0.000 OA
ATOM     39  H   UNL     1       2.624   1.372  17.756  0.00  0.00    +0.000 HD
ENDBRANCH  37  38
ENDBRANCH  27  37
ENDBRANCH  24  25
ENDBRANCH  11  24
TORSDOF 11
ENDMDL
MODEL 4
REMARK VINA RESULT:      -6.5      1.550      2.778
REMARK  Name = 
REMARK  12 active torsions:
REMARK  status: ('A' for Active; 'I' for Inactive)
REMARK    1  A    between atoms: C_1  and  O_2
REMARK    2  A    between atoms: O_2  and  C_3
REMARK    3  A    between atoms: C_6  and  C_7
REMARK    4  A    between atoms: C_11  and  O_12
REMARK    5  A    between atoms: C_14  and  O_15
REMARK    6  A    between atoms: C_19  and  O_20
REMARK    7  A    between atoms: O_20  and  C_21
REMARK    8  A    between atoms: C_23  and  C_24
REMARK    9  A    between atoms: C_24  and  O_25
REMARK   10  A    between atoms: C_26  and  O_27
REMARK   11  A    between atoms: C_28  and  O_29
REMARK   12  A    between atoms: C_30  and  O_31
REMARK                            x       y       z     vdW  Elec       q    Type
REMARK                         _______ _______ _______ _____ _____    ______ ____
ROOT
ATOM      1  C   UNL     1      -3.153  12.186  19.627  0.00  0.00    +0.000 A 
ATOM      2  O   UNL     1      -4.382  12.306  20.270  0.00  0.00    +0.000 OA
ATOM      3  C   UNL     1      -4.409  13.063  21.429  0.00  0.00    +0.000 A 
ATOM      4  C   UNL     1      -5.463  12.902  22.331  0.00  0.00    +0.000 A 
ATOM      5  C   UNL     1      -5.505  13.711  23.471  0.00  0.00    +0.000 A 
ATOM      6  C   UNL     1      -4.533  14.678  23.721  0.00  0.00    +0.000 A 
ATOM      7  C   UNL     1      -3.485  14.829  22.826  0.00  0.00    +0.000 A 
ATOM      8  C   UNL     1      -3.426  14.017  21.691  0.00  0.00    +0.000 A 
ATOM      9  C   UNL     1      -2.365  14.142  20.703  0.00  0.00    +0.000 A 
ATOM     10  O   UNL     1      -1.866  15.229  20.423  0.00  0.00    +0.000 OA
ATOM     11  C   UNL     1      -2.056  12.909  19.939  0.00  0.00    +0.000 A 
ENDROOT
BRANCH   1  15
ATOM     12  C   UNL     1      -3.152  10.296  15.764  0.00  0.00    +0.000 A 
ATOM     13  C   UNL     1      -2.224   9.889  16.735  0.00  0.00    +0.000 A 
ATOM     14  C   UNL     1      -2.231  10.441  18.028  0.00  0.00    +0.000 A 
ATOM     15  C   UNL     1      -3.158  11.427  18.359  0.00  0.00    +0.000 A 
ATOM     16  C   UNL     1      -4.098  11.821  17.382  0.00  0.00    +0.000 A 
ATOM     17  C   UNL     1      -4.095  11.265  16.093  0.00  0.00    +0.000 A 
BRANCH  12  19
ATOM     18  C   UNL     1      -4.057   9.946  13.601  0.00  0.00    +0.000 C 
ATOM     19  O   UNL     1      -2.998   9.731  14.530  0.00  0.00    +0.000 OA
ENDBRANCH  12  19
ENDBRANCH   1  15
BRANCH   5  20
ATOM     20  O   UNL     1      -6.498  13.595  24.399  0.00  0.00    +0.000 OA
ATOM     21  H   UNL     1      -6.290  14.159  25.166  0.00  0.00    +0.000 HD
ENDBRANCH   5  20
BRANCH   7  22
ATOM     22  O   UNL     1      -2.502  15.740  23.080  0.00  0.00    +0.000 OA
ATOM     23  H   UNL     1      -1.833  15.705  22.378  0.00  0.00    +0.000 HD
ENDBRANCH   7  22
BRANCH  11  24
ATOM     24  O   UNL     1      -0.805  12.642  19.421  0.00  0.00    +0.000 OA
BRANCH  24  25
ATOM     25  C   UNL     1       0.311  12.554  20.328  0.00  0.00    +0.000 C 
ATOM     26  O   UNL     1       0.012  12.109  21.660  0.00  0.00    +0.000 OA
ATOM     27  C   UNL     1      -0.524  10.788  21.766  0.00  0.00    +0.000 C 
ATOM     28  C   UNL     1       0.351   9.735  21.069  0.00  0.00    +0.000 C 
ATOM     29  C   UNL     1       0.735  10.188  19.650  0.00  0.00    +0.000 C 
ATOM     30  C   UNL     1       1.340  11.600  19.694  0.00  0.00    +0.000 C 
BRANCH  28  31
ATOM     31  O   UNL     1      -0.357   8.488  21.043  0.00  0.00    +0.000 OA
ATOM     32  H   UNL     1      -0.773   8.387  20.171  0.00  0.00    +0.000 HD
ENDBRANCH  28  31
BRANCH  29  33
ATOM     33  O   UNL     1       1.640   9.240  19.069  0.00  0.00    +0.000 OA
ATOM     34  H   UNL     1       2.238   9.720  18.470  0.00  0.00    +0.000 HD
ENDBRANCH  29  33
BRANCH  30  35
ATOM     35  O   UNL     1       1.734  12.028  18.385  0.00  0.00    +0.000 OA
ATOM     36  H   UNL     1       0.976  12.502  17.990  0.00  0.00    +0.000 HD
ENDBRANCH  30  35
BRANCH  27  37
ATOM     37  C   UNL     1      -0.708  10.439  23.259  0.00  0.00    +0.000 C 
BRANCH  37  38
ATOM     38  O   UNL     1       0.382   9.671  23.773  0.00  0.00    +0.000 OA
ATOM     39  H   UNL     1       0.556  10.008  24.671  0.00  0.00    +0.000 HD
ENDBRANCH  37  38
ENDBRANCH  27  37
ENDBRANCH  24  25
ENDBRANCH  11  24
TORSDOF 11
ENDMDL
MODEL 5
REMARK VINA RESULT:      -6.5      2.484      7.794
REMARK  Name = 
REMARK  12 active torsions:
REMARK  status: ('A' for Active; 'I' for Inactive)
REMARK    1  A    between atoms: C_1  and  O_2
REMARK    2  A    between atoms: O_2  and  C_3
REMARK    3  A    between atoms: C_6  and  C_7
REMARK    4  A    between atoms: C_11  and  O_12
REMARK    5  A    between atoms: C_14  and  O_15
REMARK    6  A    between atoms: C_19  and  O_20
REMARK    7  A    between atoms: O_20  and  C_21
REMARK    8  A    between atoms: C_23  and  C_24
REMARK    9  A    between atoms: C_24  and  O_25
REMARK   10  A    between atoms: C_26  and  O_27
REMARK   11  A    between atoms: C_28  and  O_29
REMARK   12  A    between atoms: C_30  and  O_31
REMARK                            x       y       z     vdW  Elec       q    Type
REMARK                         _______ _______ _______ _____ _____    ______ ____
ROOT
ATOM      1  C   UNL     1      -2.463  12.303  21.532  0.00  0.00    +0.000 A 
ATOM      2  O   UNL     1      -1.368  11.683  22.129  0.00  0.00    +0.000 OA
ATOM      3  C   UNL     1      -0.615  10.842  21.329  0.00  0.00    +0.000 A 
ATOM      4  C   UNL     1       0.219   9.893  21.922  0.00  0.00    +0.000 A 
ATOM      5  C   UNL     1       1.015   9.086  21.102  0.00  0.00    +0.000 A 
ATOM      6  C   UNL     1       1.006   9.216  19.715  0.00  0.00    +0.000 A 
ATOM      7  C   UNL     1       0.171  10.155  19.129  0.00  0.00    +0.000 A 
ATOM      8  C   UNL     1      -0.638  10.957  19.938  0.00  0.00    +0.000 A 
ATOM      9  C   UNL     1      -1.518  11.976  19.387  0.00  0.00    +0.000 A 
ATOM     10  O   UNL     1      -1.212  12.624  18.389  0.00  0.00    +0.000 OA
ATOM     11  C   UNL     1      -2.712  12.299  20.205  0.00  0.00    +0.000 A 
ENDROOT
BRANCH   1  15
ATOM     12  C   UNL     1      -4.713  15.244  23.720  0.00  0.00    +0.000 A 
ATOM     13  C   UNL     1      -5.062  13.889  23.821  0.00  0.00    +0.000 A 
ATOM     14  C   UNL     1      -4.315  12.893  23.168  0.00  0.00    +0.000 A 
ATOM     15  C   UNL     1      -3.217  13.246  22.386  0.00  0.00    +0.000 A 
ATOM     16  C   UNL     1      -2.863  14.609  22.302  0.00  0.00    +0.000 A 
ATOM     17  C   UNL     1      -3.605  15.603  22.958  0.00  0.00    +0.000 A 
BRANCH  12  19
ATOM     18  C   UNL     1      -4.947  17.240  24.978  0.00  0.00    +0.000 C 
ATOM     19  O   UNL     1      -5.557  16.117  24.347  0.00  0.00    +0.000 OA
ENDBRANCH  12  19
ENDBRANCH   1  15
BRANCH   5  20
ATOM     20  O   UNL     1       1.839   8.129  21.617  0.00  0.00    +0.000 OA
ATOM     21  H   UNL     1       1.514   7.862  22.496  0.00  0.00    +0.000 HD
ENDBRANCH   5  20
BRANCH   7  22
ATOM     22  O   UNL     1       0.119  10.263  17.771  0.00  0.00    +0.000 OA
ATOM     23  H   UNL     1       1.019  10.273  17.407  0.00  0.00    +0.000 HD
ENDBRANCH   7  22
BRANCH  11  24
ATOM     24  O   UNL     1      -3.894  12.754  19.658  0.00  0.00    +0.000 OA
BRANCH  24  25
ATOM     25  C   UNL     1      -4.930  11.797  19.365  0.00  0.00    +0.000 C 
ATOM     26  O   UNL     1      -5.990  11.696  20.328  0.00  0.00    +0.000 OA
ATOM     27  C   UNL     1      -6.767  12.880  20.522  0.00  0.00    +0.000 C 
ATOM     28  C   UNL     1      -7.334  13.438  19.208  0.00  0.00    +0.000 C 
ATOM     29  C   UNL     1      -6.242  13.524  18.127  0.00  0.00    +0.000 C 
ATOM     30  C   UNL     1      -5.525  12.172  17.996  0.00  0.00    +0.000 C 
BRANCH  28  31
ATOM     31  O   UNL     1      -7.916  14.724  19.462  0.00  0.00    +0.000 OA
ATOM     32  H   UNL     1      -7.205  15.342  19.703  0.00  0.00    +0.000 HD
ENDBRANCH  28  31
BRANCH  29  33
ATOM     33  O   UNL     1      -6.823  13.941  16.885  0.00  0.00    +0.000 OA
ATOM     34  H   UNL     1      -7.591  13.370  16.704  0.00  0.00    +0.000 HD
ENDBRANCH  29  33
BRANCH  30  35
ATOM     35  O   UNL     1      -4.523  12.221  16.972  0.00  0.00    +0.000 OA
ATOM     36  H   UNL     1      -4.965  12.482  16.140  0.00  0.00    +0.000 HD
ENDBRANCH  30  35
BRANCH  27  37
ATOM     37  C   UNL     1      -7.907  12.576  21.518  0.00  0.00    +0.000 C 
BRANCH  37  38
ATOM     38  O   UNL     1      -7.579  11.504  22.404  0.00  0.00    +0.000 OA
ATOM     39  H   UNL     1      -7.268  10.771  21.843  0.00  0.00    +0.000 HD
ENDBRANCH  37  38
ENDBRANCH  27  37
ENDBRANCH  24  25
ENDBRANCH  11  24
TORSDOF 11
ENDMDL
MODEL 6
REMARK VINA RESULT:      -6.5      5.497      9.332
REMARK  Name = 
REMARK  12 active torsions:
REMARK  status: ('A' for Active; 'I' for Inactive)
REMARK    1  A    between atoms: C_1  and  O_2
REMARK    2  A    between atoms: O_2  and  C_3
REMARK    3  A    between atoms: C_6  and  C_7
REMARK    4  A    between atoms: C_11  and  O_12
REMARK    5  A    between atoms: C_14  and  O_15
REMARK    6  A    between atoms: C_19  and  O_20
REMARK    7  A    between atoms: O_20  and  C_21
REMARK    8  A    between atoms: C_23  and  C_24
REMARK    9  A    between atoms: C_24  and  O_25
REMARK   10  A    between atoms: C_26  and  O_27
REMARK   11  A    between atoms: C_28  and  O_29
REMARK   12  A    between atoms: C_30  and  O_31
REMARK                            x       y       z     vdW  Elec       q    Type
REMARK                         _______ _______ _______ _____ _____    ______ ____
ROOT
ATOM      1  C   UNL     1       2.887   7.689  18.272  0.00  0.00    +0.000 A 
ATOM      2  O   UNL     1       2.643   9.012  17.914  0.00  0.00    +0.000 OA
ATOM      3  C   UNL     1       1.569   9.636  18.527  0.00  0.00    +0.000 A 
ATOM      4  C   UNL     1       1.017  10.779  17.947  0.00  0.00    +0.000 A 
ATOM      5  C   UNL     1      -0.032  11.430  18.604  0.00  0.00    +0.000 A 
ATOM      6  C   UNL     1      -0.528  10.975  19.825  0.00  0.00    +0.000 A 
ATOM      7  C   UNL     1       0.020   9.835  20.393  0.00  0.00    +0.000 A 
ATOM      8  C   UNL     1       1.059   9.170  19.738  0.00  0.00    +0.000 A 
ATOM      9  C   UNL     1       1.691   7.983  20.293  0.00  0.00    +0.000 A 
ATOM     10  O   UNL     1       1.846   7.838  21.504  0.00  0.00    +0.000 OA
ATOM     11  C   UNL     1       2.288   7.055  19.303  0.00  0.00    +0.000 A 
ENDROOT
BRANCH   1  15
ATOM     12  C   UNL     1       6.360   6.150  16.256  0.00  0.00    +0.000 A 
ATOM     13  C   UNL     1       6.356   6.242  17.656  0.00  0.00    +0.000 A 
ATOM     14  C   UNL     1       5.219   6.684  18.355  0.00  0.00    +0.000 A 
ATOM     15  C   UNL     1       4.075   7.061  17.655  0.00  0.00    +0.000 A 
ATOM     16  C   UNL     1       4.081   6.952  16.248  0.00  0.00    +0.000 A 
ATOM     17  C   UNL     1       5.215   6.505  15.551  0.00  0.00    +0.000 A 
BRANCH  12  19
ATOM     18  C   UNL     1       7.463   5.067  14.458  0.00  0.00    +0.000 C 
ATOM     19  O   UNL     1       7.547   5.770  15.695  0.00  0.00    +0.000 OA
ENDBRANCH  12  19
ENDBRANCH   1  15
BRANCH   5  20
ATOM     20  O   UNL     1      -0.628  12.542  18.085  0.00  0.00    +0.000 OA
ATOM     21  H   UNL     1      -0.293  12.695  17.183  0.00  0.00    +0.000 HD
ENDBRANCH   5  20
BRANCH   7  22
ATOM     22  O   UNL     1      -0.485   9.352  21.565  0.00  0.00    +0.000 OA
ATOM     23  H   UNL     1      -1.447   9.246  21.489  0.00  0.00    +0.000 HD
ENDBRANCH   7  22
BRANCH  11  24
ATOM     24  O   UNL     1       2.402   5.697  19.522  0.00  0.00    +0.000 OA
BRANCH  24  25
ATOM     25  C   UNL     1       1.678   4.798  18.661  0.00  0.00    +0.000 C 
ATOM     26  O   UNL     1       2.397   4.285  17.529  0.00  0.00    +0.000 OA
ATOM     27  C   UNL     1       3.549   3.495  17.833  0.00  0.00    +0.000 C 
ATOM     28  C   UNL     1       3.238   2.339  18.795  0.00  0.00    +0.000 C 
ATOM     29  C   UNL     1       2.427   2.832  20.006  0.00  0.00    +0.000 C 
ATOM     30  C   UNL     1       1.198   3.621  19.530  0.00  0.00    +0.000 C 
BRANCH  28  31
ATOM     31  O   UNL     1       4.471   1.733  19.206  0.00  0.00    +0.000 OA
ATOM     32  H   UNL     1       4.830   1.225  18.459  0.00  0.00    +0.000 HD
ENDBRANCH  28  31
BRANCH  29  33
ATOM     33  O   UNL     1       2.057   1.715  20.826  0.00  0.00    +0.000 OA
ATOM     34  H   UNL     1       1.326   1.246  20.386  0.00  0.00    +0.000 HD
ENDBRANCH  29  33
BRANCH  30  35
ATOM     35  O   UNL     1       0.411   4.063  20.643  0.00  0.00    +0.000 OA
ATOM     36  H   UNL     1      -0.161   4.790  20.330  0.00  0.00    +0.000 HD
ENDBRANCH  30  35
BRANCH  27  37
ATOM     37  C   UNL     1       4.151   2.958  16.516  0.00  0.00    +0.000 C 
BRANCH  37  38
ATOM     38  O   UNL     1       5.578   3.034  16.503  0.00  0.00    +0.000 OA
ATOM     39  H   UNL     1       5.891   2.224  16.059  0.00  0.00    +0.000 HD
ENDBRANCH  37  38
ENDBRANCH  27  37
ENDBRANCH  24  25
ENDBRANCH  11  24
TORSDOF 11
ENDMDL
MODEL 7
REMARK VINA RESULT:      -6.4      1.235      1.988
REMARK  Name = 
REMARK  12 active torsions:
REMARK  status: ('A' for Active; 'I' for Inactive)
REMARK    1  A    between atoms: C_1  and  O_2
REMARK    2  A    between atoms: O_2  and  C_3
REMARK    3  A    between atoms: C_6  and  C_7
REMARK    4  A    between atoms: C_11  and  O_12
REMARK    5  A    between atoms: C_14  and  O_15
REMARK    6  A    between atoms: C_19  and  O_20
REMARK    7  A    between atoms: O_20  and  C_21
REMARK    8  A    between atoms: C_23  and  C_24
REMARK    9  A    between atoms: C_24  and  O_25
REMARK   10  A    between atoms: C_26  and  O_27
REMARK   11  A    between atoms: C_28  and  O_29
REMARK   12  A    between atoms: C_30  and  O_31
REMARK                            x       y       z     vdW  Elec       q    Type
REMARK                         _______ _______ _______ _____ _____    ______ ____
ROOT
ATOM      1  C   UNL     1      -3.279  12.262  19.771  0.00  0.00    +0.000 A 
ATOM      2  O   UNL     1      -4.510  12.278  20.424  0.00  0.00    +0.000 OA
ATOM      3  C   UNL     1      -4.597  13.047  21.572  0.00  0.00    +0.000 A 
ATOM      4  C   UNL     1      -5.625  12.804  22.485  0.00  0.00    +0.000 A 
ATOM      5  C   UNL     1      -5.733  13.623  23.614  0.00  0.00    +0.000 A 
ATOM      6  C   UNL     1      -4.852  14.679  23.840  0.00  0.00    +0.000 A 
ATOM      7  C   UNL     1      -3.829  14.912  22.934  0.00  0.00    +0.000 A 
ATOM      8  C   UNL     1      -3.704  14.091  21.810  0.00  0.00    +0.000 A 
ATOM      9  C   UNL     1      -2.667  14.298  20.810  0.00  0.00    +0.000 A 
ATOM     10  O   UNL     1      -2.273  15.422  20.510  0.00  0.00    +0.000 OA
ATOM     11  C   UNL     1      -2.251  13.087  20.062  0.00  0.00    +0.000 A 
ENDROOT
BRANCH   1  15
ATOM     12  C   UNL     1      -3.134  10.320  15.937  0.00  0.00    +0.000 A 
ATOM     13  C   UNL     1      -2.167  10.012  16.906  0.00  0.00    +0.000 A 
ATOM     14  C   UNL     1      -2.216  10.581  18.191  0.00  0.00    +0.000 A 
ATOM     15  C   UNL     1      -3.225  11.486  18.514  0.00  0.00    +0.000 A 
ATOM     16  C   UNL     1      -4.202  11.779  17.539  0.00  0.00    +0.000 A 
ATOM     17  C   UNL     1      -4.157  11.206  16.258  0.00  0.00    +0.000 A 
BRANCH  12  19
ATOM     18  C   UNL     1      -3.924  10.031  13.720  0.00  0.00    +0.000 C 
ATOM     19  O   UNL     1      -2.937   9.752  14.709  0.00  0.00    +0.000 OA
ENDBRANCH  12  19
ENDBRANCH   1  15
BRANCH   5  20
ATOM     20  O   UNL     1      -6.702  13.430  24.553  0.00  0.00    +0.000 OA
ATOM     21  H   UNL     1      -7.578  13.551  24.142  0.00  0.00    +0.000 HD
ENDBRANCH   5  20
BRANCH   7  22
ATOM     22  O   UNL     1      -2.933  15.914  23.166  0.00  0.00    +0.000 OA
ATOM     23  H   UNL     1      -3.077  16.285  24.052  0.00  0.00    +0.000 HD
ENDBRANCH   7  22
BRANCH  11  24
ATOM     24  O   UNL     1      -0.985  12.929  19.537  0.00  0.00    +0.000 OA
BRANCH  24  25
ATOM     25  C   UNL     1       0.118  12.742  20.443  0.00  0.00    +0.000 C 
ATOM     26  O   UNL     1       0.102  11.535  21.221  0.00  0.00    +0.000 OA
ATOM     27  C   UNL     1       0.159  10.317  20.476  0.00  0.00    +0.000 C 
ATOM     28  C   UNL     1       1.347  10.272  19.504  0.00  0.00    +0.000 C 
ATOM     29  C   UNL     1       1.433  11.566  18.676  0.00  0.00    +0.000 C 
ATOM     30  C   UNL     1       1.410  12.788  19.607  0.00  0.00    +0.000 C 
BRANCH  28  31
ATOM     31  O   UNL     1       1.211   9.122  18.658  0.00  0.00    +0.000 OA
ATOM     32  H   UNL     1       0.359   8.696  18.850  0.00  0.00    +0.000 HD
ENDBRANCH  28  31
BRANCH  29  33
ATOM     33  O   UNL     1       2.613  11.541  17.861  0.00  0.00    +0.000 OA
ATOM     34  H   UNL     1       2.938  10.625  17.829  0.00  0.00    +0.000 HD
ENDBRANCH  29  33
BRANCH  30  35
ATOM     35  O   UNL     1       1.520  14.005  18.858  0.00  0.00    +0.000 OA
ATOM     36  H   UNL     1       1.161  14.725  19.411  0.00  0.00    +0.000 HD
ENDBRANCH  30  35
BRANCH  27  37
ATOM     37  C   UNL     1       0.218   9.129  21.460  0.00  0.00    +0.000 C 
BRANCH  37  38
ATOM     38  O   UNL     1       1.544   8.616  21.611  0.00  0.00    +0.000 OA
ATOM     39  H   UNL     1       1.456   7.758  22.065  0.00  0.00    +0.000 HD
ENDBRANCH  37  38
ENDBRANCH  27  37
ENDBRANCH  24  25
ENDBRANCH  11  24
TORSDOF 11
ENDMDL
MODEL 8
REMARK VINA RESULT:      -6.3      0.651      1.141
REMARK  Name = 
REMARK  12 active torsions:
REMARK  status: ('A' for Active; 'I' for Inactive)
REMARK    1  A    between atoms: C_1  and  O_2
REMARK    2  A    between atoms: O_2  and  C_3
REMARK    3  A    between atoms: C_6  and  C_7
REMARK    4  A    between atoms: C_11  and  O_12
REMARK    5  A    between atoms: C_14  and  O_15
REMARK    6  A    between atoms: C_19  and  O_20
REMARK    7  A    between atoms: O_20  and  C_21
REMARK    8  A    between atoms: C_23  and  C_24
REMARK    9  A    between atoms: C_24  and  O_25
REMARK   10  A    between atoms: C_26  and  O_27
REMARK   11  A    between atoms: C_28  and  O_29
REMARK   12  A    between atoms: C_30  and  O_31
REMARK                            x       y       z     vdW  Elec       q    Type
REMARK                         _______ _______ _______ _____ _____    ______ ____
ROOT
ATOM      1  C   UNL     1      -3.945  12.016  19.530  0.00  0.00    +0.000 A 
ATOM      2  O   UNL     1      -5.237  11.926  20.040  0.00  0.00    +0.000 OA
ATOM      3  C   UNL     1      -5.484  12.581  21.234  0.00  0.00    +0.000 A 
ATOM      4  C   UNL     1      -6.591  12.216  22.002  0.00  0.00    +0.000 A 
ATOM      5  C   UNL     1      -6.858  12.922  23.180  0.00  0.00    +0.000 A 
ATOM      6  C   UNL     1      -6.058  13.984  23.596  0.00  0.00    +0.000 A 
ATOM      7  C   UNL     1      -4.955  14.338  22.833  0.00  0.00    +0.000 A 
ATOM      8  C   UNL     1      -4.672  13.631  21.662  0.00  0.00    +0.000 A 
ATOM      9  C   UNL     1      -3.544  13.968  20.807  0.00  0.00    +0.000 A 
ATOM     10  O   UNL     1      -3.173  15.130  20.652  0.00  0.00    +0.000 OA
ATOM     11  C   UNL     1      -2.994  12.849  20.005  0.00  0.00    +0.000 A 
ENDROOT
BRANCH   1  15
ATOM     12  C   UNL     1      -3.246  10.448  15.586  0.00  0.00    +0.000 A 
ATOM     13  C   UNL     1      -2.493   9.966  16.667  0.00  0.00    +0.000 A 
ATOM     14  C   UNL     1      -2.732  10.410  17.979  0.00  0.00    +0.000 A 
ATOM     15  C   UNL     1      -3.718  11.363  18.223  0.00  0.00    +0.000 A 
ATOM     16  C   UNL     1      -4.482  11.833  17.133  0.00  0.00    +0.000 A 
ATOM     17  C   UNL     1      -4.248  11.384  15.824  0.00  0.00    +0.000 A 
BRANCH  12  19
ATOM     18  C   UNL     1      -3.898   9.919  13.369  0.00  0.00    +0.000 C 
ATOM     19  O   UNL     1      -2.872   9.986  14.356  0.00  0.00    +0.000 OA
ENDBRANCH  12  19
ENDBRANCH   1  15
BRANCH   5  20
ATOM     20  O   UNL     1      -7.913  12.606  23.984  0.00  0.00    +0.000 OA
ATOM     21  H   UNL     1      -8.407  13.418  24.202  0.00  0.00    +0.000 HD
ENDBRANCH   5  20
BRANCH   7  22
ATOM     22  O   UNL     1      -4.138  15.347  23.251  0.00  0.00    +0.000 OA
ATOM     23  H   UNL     1      -4.243  16.117  22.669  0.00  0.00    +0.000 HD
ENDBRANCH   7  22
BRANCH  11  24
ATOM     24  O   UNL     1      -1.672  12.787  19.612  0.00  0.00    +0.000 OA
BRANCH  24  25
ATOM     25  C   UNL     1      -0.670  12.514  20.609  0.00  0.00    +0.000 C 
ATOM     26  O   UNL     1      -0.088  11.202  20.582  0.00  0.00    +0.000 OA
ATOM     27  C   UNL     1       0.622  10.864  19.388  0.00  0.00    +0.000 C 
ATOM     28  C   UNL     1       1.699  11.897  19.027  0.00  0.00    +0.000 C 
ATOM     29  C   UNL     1       1.134  13.328  19.086  0.00  0.00    +0.000 C 
ATOM     30  C   UNL     1       0.443  13.564  20.437  0.00  0.00    +0.000 C 
BRANCH  28  31
ATOM     31  O   UNL     1       2.213  11.595  17.722  0.00  0.00    +0.000 OA
ATOM     32  H   UNL     1       3.124  11.269  17.817  0.00  0.00    +0.000 HD
ENDBRANCH  28  31
BRANCH  29  33
ATOM     33  O   UNL     1       2.187  14.273  18.854  0.00  0.00    +0.000 OA
ATOM     34  H   UNL     1       2.927  13.802  18.432  0.00  0.00    +0.000 HD
ENDBRANCH  29  33
BRANCH  30  35
ATOM     35  O   UNL     1      -0.064  14.902  20.525  0.00  0.00    +0.000 OA
ATOM     36  H   UNL     1      -0.414  15.142  19.645  0.00  0.00    +0.000 HD
ENDBRANCH  30  35
BRANCH  27  37
ATOM     37  C   UNL     1       1.250   9.463  19.557  0.00  0.00    +0.000 C 
BRANCH  37  38
ATOM     38  O   UNL     1       0.697   8.753  20.667  0.00  0.00    +0.000 OA
ATOM     39  H   UNL     1      -0.099   9.245  20.939  0.00  0.00    +0.000 HD
ENDBRANCH  37  38
ENDBRANCH  27  37
ENDBRANCH  24  25
ENDBRANCH  11  24
TORSDOF 11
ENDMDL
MODEL 9
REMARK VINA RESULT:      -6.3      5.928      9.933
REMARK  Name = 
REMARK  12 active torsions:
REMARK  status: ('A' for Active; 'I' for Inactive)
REMARK    1  A    between atoms: C_1  and  O_2
REMARK    2  A    between atoms: O_2  and  C_3
REMARK    3  A    between atoms: C_6  and  C_7
REMARK    4  A    between atoms: C_11  and  O_12
REMARK    5  A    between atoms: C_14  and  O_15
REMARK    6  A    between atoms: C_19  and  O_20
REMARK    7  A    between atoms: O_20  and  C_21
REMARK    8  A    between atoms: C_23  and  C_24
REMARK    9  A    between atoms: C_24  and  O_25
REMARK   10  A    between atoms: C_26  and  O_27
REMARK   11  A    between atoms: C_28  and  O_29
REMARK   12  A    between atoms: C_30  and  O_31
REMARK                            x       y       z     vdW  Elec       q    Type
REMARK                         _______ _______ _______ _____ _____    ______ ____
ROOT
ATOM      1  C   UNL     1       3.391   7.481  17.574  0.00  0.00    +0.000 A 
ATOM      2  O   UNL     1       3.148   8.850  17.484  0.00  0.00    +0.000 OA
ATOM      3  C   UNL     1       2.092   9.346  18.230  0.00  0.00    +0.000 A 
ATOM      4  C   UNL     1       1.535  10.582  17.895  0.00  0.00    +0.000 A 
ATOM      5  C   UNL     1       0.505  11.096  18.689  0.00  0.00    +0.000 A 
ATOM      6  C   UNL     1       0.033  10.415  19.809  0.00  0.00    +0.000 A 
ATOM      7  C   UNL     1       0.585   9.185  20.135  0.00  0.00    +0.000 A 
ATOM      8  C   UNL     1       1.605   8.656  19.340  0.00  0.00    +0.000 A 
ATOM      9  C   UNL     1       2.242   7.383  19.641  0.00  0.00    +0.000 A 
ATOM     10  O   UNL     1       2.422   7.006  20.797  0.00  0.00    +0.000 OA
ATOM     11  C   UNL     1       2.810   6.662  18.476  0.00  0.00    +0.000 A 
ENDROOT
BRANCH   1  15
ATOM     12  C   UNL     1       6.863   5.812  15.663  0.00  0.00    +0.000 A 
ATOM     13  C   UNL     1       5.637   5.827  14.981  0.00  0.00    +0.000 A 
ATOM     14  C   UNL     1       4.494   6.417  15.549  0.00  0.00    +0.000 A 
ATOM     15  C   UNL     1       4.561   6.982  16.820  0.00  0.00    +0.000 A 
ATOM     16  C   UNL     1       5.801   6.976  17.494  0.00  0.00    +0.000 A 
ATOM     17  C   UNL     1       6.943   6.393  16.925  0.00  0.00    +0.000 A 
BRANCH  12  19
ATOM     18  C   UNL     1       7.676   4.855  13.652  0.00  0.00    +0.000 C 
ATOM     19  O   UNL     1       7.879   5.152  15.031  0.00  0.00    +0.000 OA
ENDBRANCH  12  19
ENDBRANCH   1  15
BRANCH   5  20
ATOM     20  O   UNL     1      -0.094  12.288  18.408  0.00  0.00    +0.000 OA
ATOM     21  H   UNL     1       0.215  12.607  17.540  0.00  0.00    +0.000 HD
ENDBRANCH   5  20
BRANCH   7  22
ATOM     22  O   UNL     1       0.103   8.486  21.202  0.00  0.00    +0.000 OA
ATOM     23  H   UNL     1      -0.555   7.839  20.900  0.00  0.00    +0.000 HD
ENDBRANCH   7  22
BRANCH  11  24
ATOM     24  O   UNL     1       2.920   5.287  18.426  0.00  0.00    +0.000 OA
BRANCH  24  25
ATOM     25  C   UNL     1       3.636   4.615  19.480  0.00  0.00    +0.000 C 
ATOM     26  O   UNL     1       2.859   4.216  20.620  0.00  0.00    +0.000 OA
ATOM     27  C   UNL     1       1.817   3.272  20.361  0.00  0.00    +0.000 C 
ATOM     28  C   UNL     1       2.323   2.018  19.633  0.00  0.00    +0.000 C 
ATOM     29  C   UNL     1       3.199   2.394  18.426  0.00  0.00    +0.000 C 
ATOM     30  C   UNL     1       4.301   3.373  18.861  0.00  0.00    +0.000 C 
BRANCH  28  31
ATOM     31  O   UNL     1       1.194   1.229  19.230  0.00  0.00    +0.000 OA
ATOM     32  H   UNL     1       1.489   0.584  18.566  0.00  0.00    +0.000 HD
ENDBRANCH  28  31
BRANCH  29  33
ATOM     33  O   UNL     1       3.745   1.207  17.836  0.00  0.00    +0.000 OA
ATOM     34  H   UNL     1       3.162   0.461  18.064  0.00  0.00    +0.000 HD
ENDBRANCH  29  33
BRANCH  30  35
ATOM     35  O   UNL     1       5.148   3.713  17.757  0.00  0.00    +0.000 OA
ATOM     36  H   UNL     1       5.030   4.665  17.577  0.00  0.00    +0.000 HD
ENDBRANCH  30  35
BRANCH  27  37
ATOM     37  C   UNL     1       1.141   2.891  21.695  0.00  0.00    +0.000 C 
BRANCH  37  38
ATOM     38  O   UNL     1       1.843   1.851  22.380  0.00  0.00    +0.000 OA
ATOM     39  H   UNL     1       2.583   1.593  21.800  0.00  0.00    +0.000 HD
ENDBRANCH  37  38
ENDBRANCH  27  37
ENDBRANCH  24  25
ENDBRANCH  11  24
TORSDOF 11
ENDMDL
