MODEL 1
REMARK VINA RESULT:      -6.3      0.000      0.000
REMARK  Name = 
REMARK  19 active torsions:
REMARK  status: ('A' for Active; 'I' for Inactive)
REMARK    1  A    between atoms: CD1_1  and  CG_2
REMARK    2  A    between atoms: CG_2  and  CD2_3
REMARK    3  A    between atoms: CG_2  and  CB_4
REMARK    4  A    between atoms: CB_4  and  CA_5
REMARK    5  A    between atoms: CA_5  and  N_6
REMARK    6  A    between atoms: CA_5  and  C_19
REMARK    7  A    between atoms: C_7  and  CA_9
REMARK    8  A    between atoms: CA_9  and  N_10
REMARK    9  A    between atoms: CA_9  and  CB_16
REMARK   10  A    between atoms: C_11  and  C_13
REMARK   11  A    between atoms: C_13  and  C_14
REMARK   12  A    between atoms: C_14  and  S_15
REMARK   13  A    between atoms: CB_16  and  CG1_17
REMARK   14  A    between atoms: CB_16  and  CG2_18
REMARK   15  A    between atoms: N_21  and  CA_22
REMARK   16  A    between atoms: CA_22  and  CB_23
REMARK   17  A    between atoms: CA_22  and  C_25
REMARK   18  A    between atoms: CB_23  and  OG_24
REMARK   19  A    between atoms: C_25  and  OXT_27
REMARK                            x       y       z     vdW  Elec       q    Type
REMARK                         _______ _______ _______ _____ _____    ______ ____
ROOT
ATOM      1  CA  VAL A   1       2.531   5.838  19.339  0.00  0.00    +0.000 C 
ENDROOT
BRANCH   1   2
ATOM      2  N   VAL A   1       3.935   5.750  18.925  0.00  0.00    +0.000 N 
ATOM      3  C   VAL A   1       4.350   4.982  17.862  0.00  0.00    +0.000 C 
ATOM      4  O   VAL A   1       3.594   4.209  17.278  0.00  0.00    +0.000 OA
ATOM      5  H   VAL A   1       4.606   6.315  19.434  0.00  0.00    +0.000 HD
BRANCH   3   6
ATOM      6  CA  VAL A   1       5.863   5.067  17.546  0.00  0.00    +0.000 C 
BRANCH   6   7
ATOM      7  N   VAL A   1       5.956   5.336  16.108  0.00  0.00    +0.000 N 
ATOM      8  C   UNK A   0       6.097   4.334  15.180  0.00  0.00    +0.000 C 
ATOM      9  O   UNK A   0       6.193   3.150  15.484  0.00  0.00    +0.000 OA
ATOM     10  H   VAL A   1       5.768   6.286  15.805  0.00  0.00    +0.000 HD
BRANCH   8  11
ATOM     11  C   UNK A   0       6.181   4.832  13.750  0.00  0.00    +0.000 C 
BRANCH  11  12
ATOM     12  C   UNK A   0       6.402   3.667  12.795  0.00  0.00    +0.000 C 
BRANCH  12  13
ATOM     13  S   UNK A   0       4.860   3.234  11.933  0.00  0.00    +0.000 S 
ATOM     14  H   UNK A   0       5.422   2.848  10.778  0.00  0.00    +0.000 HD
ENDBRANCH  12  13
ENDBRANCH  11  12
ENDBRANCH   8  11
ENDBRANCH   6   7
BRANCH   6  15
ATOM     15  CB  VAL A   1       6.554   6.191  18.355  0.00  0.00    +0.000 C 
ATOM     16  CG1 VAL A   1       7.605   5.616  19.312  0.00  0.00    +0.000 C 
ATOM     17  CG2 VAL A   1       7.232   7.219  17.438  0.00  0.00    +0.000 C 
ENDBRANCH   6  15
ENDBRANCH   3   6
ENDBRANCH   1   2
BRANCH   1  18
ATOM     18  C   VAL A   1       2.220   7.339  19.490  0.00  0.00    +0.000 C 
ATOM     19  O   VAL A   1       2.500   8.169  18.625  0.00  0.00    +0.000 OA
ATOM     20  N   SER A   2       1.600   7.712  20.653  0.00  0.00    +0.000 N 
ATOM     21  H   SER A   2       1.259   7.010  21.302  0.00  0.00    +0.000 HD
BRANCH  20  22
ATOM     22  CA  SER A   2       1.278   9.103  20.980  0.00  0.00    +0.000 C 
BRANCH  22  23
ATOM     23  C   SER A   2       1.216   9.223  22.500  0.00  0.00    +0.000 C 
ATOM     24  O   SER A   2       0.165   9.226  23.133  0.00  0.00    +0.000 OA
BRANCH  23  25
ATOM     25  OXT SER A   2       2.420   9.335  23.103  0.00  0.00    +0.000 OA
ATOM     26  HXT SER A   2       3.107   9.798  22.584  0.00  0.00    +0.000 HD
ENDBRANCH  23  25
ENDBRANCH  22  23
BRANCH  22  27
ATOM     27  CB  SER A   2      -0.073   9.528  20.392  0.00  0.00    +0.000 C 
BRANCH  27  28
ATOM     28  OG  SER A   2      -0.393  10.881  20.680  0.00  0.00    +0.000 OA
ATOM     29  H   SER A   2      -0.375  11.396  19.849  0.00  0.00    +0.000 HD
ENDBRANCH  27  28
ENDBRANCH  22  27
ENDBRANCH  20  22
ENDBRANCH   1  18
BRANCH   1  30
ATOM     30  CB  VAL A   1       2.298   5.054  20.642  0.00  0.00    +0.000 C 
BRANCH  30  32
ATOM     31  CD1 VAL A   1       1.760   2.851  21.837  0.00  0.00    +0.000 C 
ATOM     32  CG  VAL A   1       2.067   3.533  20.502  0.00  0.00    +0.000 C 
ATOM     33  CD2 VAL A   1       0.915   3.270  19.525  0.00  0.00    +0.000 C 
ENDBRANCH  30  32
ENDBRANCH   1  30
TORSDOF 15
ENDMDL
MODEL 2
REMARK VINA RESULT:      -6.3      3.384      7.560
REMARK  Name = 
REMARK  19 active torsions:
REMARK  status: ('A' for Active; 'I' for Inactive)
REMARK    1  A    between atoms: CD1_1  and  CG_2
REMARK    2  A    between atoms: CG_2  and  CD2_3
REMARK    3  A    between atoms: CG_2  and  CB_4
REMARK    4  A    between atoms: CB_4  and  CA_5
REMARK    5  A    between atoms: CA_5  and  N_6
REMARK    6  A    between atoms: CA_5  and  C_19
REMARK    7  A    between atoms: C_7  and  CA_9
REMARK    8  A    between atoms: CA_9  and  N_10
REMARK    9  A    between atoms: CA_9  and  CB_16
REMARK   10  A    between atoms: C_11  and  C_13
REMARK   11  A    between atoms: C_13  and  C_14
REMARK   12  A    between atoms: C_14  and  S_15
REMARK   13  A    between atoms: CB_16  and  CG1_17
REMARK   14  A    between atoms: CB_16  and  CG2_18
REMARK   15  A    between atoms: N_21  and  CA_22
REMARK   16  A    between atoms: CA_22  and  CB_23
REMARK   17  A    between atoms: CA_22  and  C_25
REMARK   18  A    between atoms: CB_23  and  OG_24
REMARK   19  A    between atoms: C_25  and  OXT_27
REMARK                            x       y       z     vdW  Elec       q    Type
REMARK                         _______ _______ _______ _____ _____    ______ ____
ROOT
ATOM      1  CA  VAL A   1       3.126   6.291  18.036  0.00  0.00    +0.000 C 
ENDROOT
BRANCH   1   2
ATOM      2  N   VAL A   1       2.509   7.229  18.979  0.00  0.00    +0.000 N 
ATOM      3  C   VAL A   1       2.027   8.459  18.597  0.00  0.00    +0.000 C 
ATOM      4  O   VAL A   1       2.210   8.912  17.469  0.00  0.00    +0.000 OA
ATOM      5  H   VAL A   1       2.410   6.924  19.941  0.00  0.00    +0.000 HD
BRANCH   3   6
ATOM      6  CA  VAL A   1       1.359   9.280  19.727  0.00  0.00    +0.000 C 
BRANCH   6   7
ATOM      7  N   VAL A   1       0.122   9.816  19.153  0.00  0.00    +0.000 N 
ATOM      8  C   UNK A   0      -0.099  11.164  19.010  0.00  0.00    +0.000 C 
ATOM      9  O   UNK A   0       0.700  12.015  19.386  0.00  0.00    +0.000 OA
ATOM     10  H   VAL A   1      -0.514   9.150  18.728  0.00  0.00    +0.000 HD
BRANCH   8  11
ATOM     11  C   UNK A   0      -1.446  11.502  18.402  0.00  0.00    +0.000 C 
BRANCH  11  12
ATOM     12  C   UNK A   0      -1.879  10.408  17.435  0.00  0.00    +0.000 C 
BRANCH  12  13
ATOM     13  S   UNK A   0      -3.661  10.517  17.088  0.00  0.00    +0.000 S 
ATOM     14  H   UNK A   0      -3.609  11.612  16.314  0.00  0.00    +0.000 HD
ENDBRANCH  12  13
ENDBRANCH  11  12
ENDBRANCH   8  11
ENDBRANCH   6   7
BRANCH   6  15
ATOM     15  CB  VAL A   1       1.049   8.403  20.964  0.00  0.00    +0.000 C 
ATOM     16  CG1 VAL A   1       1.610   9.035  22.243  0.00  0.00    +0.000 C 
ATOM     17  CG2 VAL A   1      -0.459   8.183  21.143  0.00  0.00    +0.000 C 
ENDBRANCH   6  15
ENDBRANCH   3   6
ENDBRANCH   1   2
BRANCH   1  18
ATOM     18  C   VAL A   1       2.517   4.910  18.344  0.00  0.00    +0.000 C 
ATOM     19  O   VAL A   1       1.407   4.563  17.937  0.00  0.00    +0.000 OA
ATOM     20  N   SER A   2       3.287   4.066  19.100  0.00  0.00    +0.000 N 
ATOM     21  H   SER A   2       4.248   4.308  19.323  0.00  0.00    +0.000 HD
BRANCH  20  22
ATOM     22  CA  SER A   2       2.841   2.737  19.525  0.00  0.00    +0.000 C 
BRANCH  22  23
ATOM     23  C   SER A   2       2.126   2.892  20.864  0.00  0.00    +0.000 C 
ATOM     24  O   SER A   2       2.678   2.718  21.946  0.00  0.00    +0.000 OA
BRANCH  23  25
ATOM     25  OXT SER A   2       0.821   3.229  20.768  0.00  0.00    +0.000 OA
ATOM     26  HXT SER A   2       0.221   2.752  21.374  0.00  0.00    +0.000 HD
ENDBRANCH  23  25
ENDBRANCH  22  23
BRANCH  22  27
ATOM     27  CB  SER A   2       4.018   1.770  19.697  0.00  0.00    +0.000 C 
BRANCH  27  28
ATOM     28  OG  SER A   2       4.150   0.869  18.607  0.00  0.00    +0.000 OA
ATOM     29  H   SER A   2       3.725   1.261  17.818  0.00  0.00    +0.000 HD
ENDBRANCH  27  28
ENDBRANCH  22  27
ENDBRANCH  20  22
ENDBRANCH   1  18
BRANCH   1  30
ATOM     30  CB  VAL A   1       4.658   6.304  18.179  0.00  0.00    +0.000 C 
BRANCH  30  32
ATOM     31  CD1 VAL A   1       6.943   7.052  17.289  0.00  0.00    +0.000 C 
ATOM     32  CG  VAL A   1       5.459   6.846  16.974  0.00  0.00    +0.000 C 
ATOM     33  CD2 VAL A   1       5.325   5.886  15.786  0.00  0.00    +0.000 C 
ENDBRANCH  30  32
ENDBRANCH   1  30
TORSDOF 15
ENDMDL
MODEL 3
REMARK VINA RESULT:      -6.3      3.467      7.239
REMARK  Name = 
REMARK  19 active torsions:
REMARK  status: ('A' for Active; 'I' for Inactive)
REMARK    1  A    between atoms: CD1_1  and  CG_2
REMARK    2  A    between atoms: CG_2  and  CD2_3
REMARK    3  A    between atoms: CG_2  and  CB_4
REMARK    4  A    between atoms: CB_4  and  CA_5
REMARK    5  A    between atoms: CA_5  and  N_6
REMARK    6  A    between atoms: CA_5  and  C_19
REMARK    7  A    between atoms: C_7  and  CA_9
REMARK    8  A    between atoms: CA_9  and  N_10
REMARK    9  A    between atoms: CA_9  and  CB_16
REMARK   10  A    between atoms: C_11  and  C_13
REMARK   11  A    between atoms: C_13  and  C_14
REMARK   12  A    between atoms: C_14  and  S_15
REMARK   13  A    between atoms: CB_16  and  CG1_17
REMARK   14  A    between atoms: CB_16  and  CG2_18
REMARK   15  A    between atoms: N_21  and  CA_22
REMARK   16  A    between atoms: CA_22  and  CB_23
REMARK   17  A    between atoms: CA_22  and  C_25
REMARK   18  A    between atoms: CB_23  and  OG_24
REMARK   19  A    between atoms: C_25  and  OXT_27
REMARK                            x       y       z     vdW  Elec       q    Type
REMARK                         _______ _______ _______ _____ _____    ______ ____
ROOT
ATOM      1  CA  VAL A   1       2.868   6.109  18.162  0.00  0.00    +0.000 C 
ENDROOT
BRANCH   1   2
ATOM      2  N   VAL A   1       2.310   7.144  19.037  0.00  0.00    +0.000 N 
ATOM      3  C   VAL A   1       1.955   8.392  18.581  0.00  0.00    +0.000 C 
ATOM      4  O   VAL A   1       2.215   8.771  17.441  0.00  0.00    +0.000 OA
ATOM      5  H   VAL A   1       2.151   6.897  20.007  0.00  0.00    +0.000 HD
BRANCH   3   6
ATOM      6  CA  VAL A   1       1.328   9.324  19.646  0.00  0.00    +0.000 C 
BRANCH   6   7
ATOM      7  N   VAL A   1       0.060   9.787  19.075  0.00  0.00    +0.000 N 
ATOM      8  C   UNK A   0      -0.150  11.096  18.715  0.00  0.00    +0.000 C 
ATOM      9  O   UNK A   0       0.687  11.976  18.879  0.00  0.00    +0.000 OA
ATOM     10  H   VAL A   1      -0.616   9.075  18.819  0.00  0.00    +0.000 HD
BRANCH   8  11
ATOM     11  C   UNK A   0      -1.533  11.360  18.152  0.00  0.00    +0.000 C 
BRANCH  11  12
ATOM     12  C   UNK A   0      -1.996  10.179  17.310  0.00  0.00    +0.000 C 
BRANCH  12  13
ATOM     13  S   UNK A   0      -2.845  10.750  15.805  0.00  0.00    +0.000 S 
ATOM     14  H   UNK A   0      -2.122  11.865  15.624  0.00  0.00    +0.000 HD
ENDBRANCH  12  13
ENDBRANCH  11  12
ENDBRANCH   8  11
ENDBRANCH   6   7
BRANCH   6  15
ATOM     15  CB  VAL A   1       1.084   8.583  20.982  0.00  0.00    +0.000 C 
ATOM     16  CG1 VAL A   1       1.703   9.346  22.159  0.00  0.00    +0.000 C 
ATOM     17  CG2 VAL A   1      -0.412   8.382  21.258  0.00  0.00    +0.000 C 
ENDBRANCH   6  15
ENDBRANCH   3   6
ENDBRANCH   1   2
BRANCH   1  18
ATOM     18  C   VAL A   1       2.028   4.841  18.404  0.00  0.00    +0.000 C 
ATOM     19  O   VAL A   1       1.284   4.359  17.550  0.00  0.00    +0.000 OA
ATOM     20  N   SER A   2       2.156   4.260  19.639  0.00  0.00    +0.000 N 
ATOM     21  H   SER A   2       2.863   4.587  20.290  0.00  0.00    +0.000 HD
BRANCH  20  22
ATOM     22  CA  SER A   2       1.394   3.080  20.053  0.00  0.00    +0.000 C 
BRANCH  22  23
ATOM     23  C   SER A   2       1.901   2.657  21.428  0.00  0.00    +0.000 C 
ATOM     24  O   SER A   2       1.164   2.485  22.394  0.00  0.00    +0.000 OA
BRANCH  23  25
ATOM     25  OXT SER A   2       3.240   2.494  21.507  0.00  0.00    +0.000 OA
ATOM     26  HXT SER A   2       3.712   3.165  22.040  0.00  0.00    +0.000 HD
ENDBRANCH  23  25
ENDBRANCH  22  23
BRANCH  22  27
ATOM     27  CB  SER A   2       1.575   1.913  19.075  0.00  0.00    +0.000 C 
BRANCH  27  28
ATOM     28  OG  SER A   2       0.402   1.645  18.321  0.00  0.00    +0.000 OA
ATOM     29  H   SER A   2      -0.117   0.952  18.777  0.00  0.00    +0.000 HD
ENDBRANCH  27  28
ENDBRANCH  22  27
ENDBRANCH  20  22
ENDBRANCH   1  18
BRANCH   1  30
ATOM     30  CB  VAL A   1       4.362   5.892  18.460  0.00  0.00    +0.000 C 
BRANCH  30  32
ATOM     31  CD1 VAL A   1       5.204   4.241  16.689  0.00  0.00    +0.000 C 
ATOM     32  CG  VAL A   1       5.284   5.666  17.242  0.00  0.00    +0.000 C 
ATOM     33  CD2 VAL A   1       4.928   6.659  16.129  0.00  0.00    +0.000 C 
ENDBRANCH  30  32
ENDBRANCH   1  30
TORSDOF 15
ENDMDL
MODEL 4
REMARK VINA RESULT:      -6.2      3.786      7.037
REMARK  Name = 
REMARK  19 active torsions:
REMARK  status: ('A' for Active; 'I' for Inactive)
REMARK    1  A    between atoms: CD1_1  and  CG_2
REMARK    2  A    between atoms: CG_2  and  CD2_3
REMARK    3  A    between atoms: CG_2  and  CB_4
REMARK    4  A    between atoms: CB_4  and  CA_5
REMARK    5  A    between atoms: CA_5  and  N_6
REMARK    6  A    between atoms: CA_5  and  C_19
REMARK    7  A    between atoms: C_7  and  CA_9
REMARK    8  A    between atoms: CA_9  and  N_10
REMARK    9  A    between atoms: CA_9  and  CB_16
REMARK   10  A    between atoms: C_11  and  C_13
REMARK   11  A    between atoms: C_13  and  C_14
REMARK   12  A    between atoms: C_14  and  S_15
REMARK   13  A    between atoms: CB_16  and  CG1_17
REMARK   14  A    between atoms: CB_16  and  CG2_18
REMARK   15  A    between atoms: N_21  and  CA_22
REMARK   16  A    between atoms: CA_22  and  CB_23
REMARK   17  A    between atoms: CA_22  and  C_25
REMARK   18  A    between atoms: CB_23  and  OG_24
REMARK   19  A    between atoms: C_25  and  OXT_27
REMARK                            x       y       z     vdW  Elec       q    Type
REMARK                         _______ _______ _______ _____ _____    ______ ____
ROOT
ATOM      1  CA  VAL A   1       5.669   3.971  15.477  0.00  0.00    +0.000 C 
ENDROOT
BRANCH   1   2
ATOM      2  N   VAL A   1       4.540   4.229  16.376  0.00  0.00    +0.000 N 
ATOM      3  C   VAL A   1       4.113   5.499  16.689  0.00  0.00    +0.000 C 
ATOM      4  O   VAL A   1       4.738   6.502  16.349  0.00  0.00    +0.000 OA
ATOM      5  H   VAL A   1       4.043   3.424  16.742  0.00  0.00    +0.000 HD
BRANCH   3   6
ATOM      6  CA  VAL A   1       2.869   5.563  17.607  0.00  0.00    +0.000 C 
BRANCH   6   7
ATOM      7  N   VAL A   1       2.860   4.304  18.356  0.00  0.00    +0.000 N 
ATOM      8  C   UNK A   0       1.832   3.397  18.258  0.00  0.00    +0.000 C 
ATOM      9  O   UNK A   0       0.834   3.591  17.573  0.00  0.00    +0.000 OA
ATOM     10  H   VAL A   1       3.712   4.053  18.844  0.00  0.00    +0.000 HD
BRANCH   8  11
ATOM     11  C   UNK A   0       2.019   2.166  19.123  0.00  0.00    +0.000 C 
BRANCH  11  12
ATOM     12  C   UNK A   0       2.914   2.486  20.313  0.00  0.00    +0.000 C 
BRANCH  12  13
ATOM     13  S   UNK A   0       1.923   3.006  21.747  0.00  0.00    +0.000 S 
ATOM     14  H   UNK A   0       1.178   1.895  21.842  0.00  0.00    +0.000 HD
ENDBRANCH  12  13
ENDBRANCH  11  12
ENDBRANCH   8  11
ENDBRANCH   6   7
BRANCH   6  15
ATOM     15  CB  VAL A   1       2.932   6.770  18.574  0.00  0.00    +0.000 C 
ATOM     16  CG1 VAL A   1       2.182   7.978  18.000  0.00  0.00    +0.000 C 
ATOM     17  CG2 VAL A   1       2.342   6.430  19.949  0.00  0.00    +0.000 C 
ENDBRANCH   6  15
ENDBRANCH   3   6
ENDBRANCH   1   2
BRANCH   1  18
ATOM     18  C   VAL A   1       6.876   4.716  16.078  0.00  0.00    +0.000 C 
ATOM     19  O   VAL A   1       7.843   5.074  15.404  0.00  0.00    +0.000 OA
ATOM     20  N   SER A   2       6.818   4.972  17.422  0.00  0.00    +0.000 N 
ATOM     21  H   SER A   2       5.967   4.789  17.944  0.00  0.00    +0.000 HD
BRANCH  20  22
ATOM     22  CA  SER A   2       7.900   5.626  18.162  0.00  0.00    +0.000 C 
BRANCH  22  23
ATOM     23  C   SER A   2       7.705   5.317  19.643  0.00  0.00    +0.000 C 
ATOM     24  O   SER A   2       8.636   5.197  20.434  0.00  0.00    +0.000 OA
BRANCH  23  25
ATOM     25  OXT SER A   2       6.416   5.173  20.022  0.00  0.00    +0.000 OA
ATOM     26  HXT SER A   2       5.835   4.737  19.368  0.00  0.00    +0.000 HD
ENDBRANCH  23  25
ENDBRANCH  22  23
BRANCH  22  27
ATOM     27  CB  SER A   2       7.888   7.146  17.964  0.00  0.00    +0.000 C 
BRANCH  27  28
ATOM     28  OG  SER A   2       8.641   7.833  18.952  0.00  0.00    +0.000 OA
ATOM     29  H   SER A   2       9.078   7.176  19.531  0.00  0.00    +0.000 HD
ENDBRANCH  27  28
ENDBRANCH  22  27
ENDBRANCH  20  22
ENDBRANCH   1  18
BRANCH   1  30
ATOM     30  CB  VAL A   1       5.343   4.435  14.047  0.00  0.00    +0.000 C 
BRANCH  30  32
ATOM     31  CD1 VAL A   1       4.666   3.274  11.864  0.00  0.00    +0.000 C 
ATOM     32  CG  VAL A   1       5.771   3.493  12.900  0.00  0.00    +0.000 C 
ATOM     33  CD2 VAL A   1       7.013   4.058  12.200  0.00  0.00    +0.000 C 
ENDBRANCH  30  32
ENDBRANCH   1  30
TORSDOF 15
ENDMDL
MODEL 5
REMARK VINA RESULT:      -6.1      3.766      7.707
REMARK  Name = 
REMARK  19 active torsions:
REMARK  status: ('A' for Active; 'I' for Inactive)
REMARK    1  A    between atoms: CD1_1  and  CG_2
REMARK    2  A    between atoms: CG_2  and  CD2_3
REMARK    3  A    between atoms: CG_2  and  CB_4
REMARK    4  A    between atoms: CB_4  and  CA_5
REMARK    5  A    between atoms: CA_5  and  N_6
REMARK    6  A    between atoms: CA_5  and  C_19
REMARK    7  A    between atoms: C_7  and  CA_9
REMARK    8  A    between atoms: CA_9  and  N_10
REMARK    9  A    between atoms: CA_9  and  CB_16
REMARK   10  A    between atoms: C_11  and  C_13
REMARK   11  A    between atoms: C_13  and  C_14
REMARK   12  A    between atoms: C_14  and  S_15
REMARK   13  A    between atoms: CB_16  and  CG1_17
REMARK   14  A    between atoms: CB_16  and  CG2_18
REMARK   15  A    between atoms: N_21  and  CA_22
REMARK   16  A    between atoms: CA_22  and  CB_23
REMARK   17  A    between atoms: CA_22  and  C_25
REMARK   18  A    between atoms: CB_23  and  OG_24
REMARK   19  A    between atoms: C_25  and  OXT_27
REMARK                            x       y       z     vdW  Elec       q    Type
REMARK                         _______ _______ _______ _____ _____    ______ ____
ROOT
ATOM      1  CA  VAL A   1       2.942   6.220  17.959  0.00  0.00    +0.000 C 
ENDROOT
BRANCH   1   2
ATOM      2  N   VAL A   1       2.454   7.205  18.929  0.00  0.00    +0.000 N 
ATOM      3  C   VAL A   1       2.005   8.453  18.561  0.00  0.00    +0.000 C 
ATOM      4  O   VAL A   1       2.116   8.876  17.412  0.00  0.00    +0.000 OA
ATOM      5  H   VAL A   1       2.419   6.922  19.902  0.00  0.00    +0.000 HD
BRANCH   3   6
ATOM      6  CA  VAL A   1       1.474   9.326  19.724  0.00  0.00    +0.000 C 
BRANCH   6   7
ATOM      7  N   VAL A   1       0.339  10.073  19.176  0.00  0.00    +0.000 N 
ATOM      8  C   UNK A   0       0.346  11.442  19.060  0.00  0.00    +0.000 C 
ATOM      9  O   UNK A   0       1.280  12.139  19.439  0.00  0.00    +0.000 OA
ATOM     10  H   VAL A   1      -0.405   9.531  18.749  0.00  0.00    +0.000 HD
BRANCH   8  11
ATOM     11  C   UNK A   0      -0.932  12.012  18.476  0.00  0.00    +0.000 C 
BRANCH  11  12
ATOM     12  C   UNK A   0      -2.122  11.654  19.357  0.00  0.00    +0.000 C 
BRANCH  12  13
ATOM     13  S   UNK A   0      -2.512  13.013  20.502  0.00  0.00    +0.000 S 
ATOM     14  H   UNK A   0      -3.712  12.557  20.891  0.00  0.00    +0.000 HD
ENDBRANCH  12  13
ENDBRANCH  11  12
ENDBRANCH   8  11
ENDBRANCH   6   7
BRANCH   6  15
ATOM     15  CB  VAL A   1       1.028   8.464  20.929  0.00  0.00    +0.000 C 
ATOM     16  CG1 VAL A   1       1.523   9.064  22.250  0.00  0.00    +0.000 C 
ATOM     17  CG2 VAL A   1      -0.499   8.322  20.994  0.00  0.00    +0.000 C 
ENDBRANCH   6  15
ENDBRANCH   3   6
ENDBRANCH   1   2
BRANCH   1  18
ATOM     18  C   VAL A   1       2.438   4.849  18.448  0.00  0.00    +0.000 C 
ATOM     19  O   VAL A   1       1.403   4.330  18.030  0.00  0.00    +0.000 OA
ATOM     20  N   SER A   2       3.217   4.220  19.383  0.00  0.00    +0.000 N 
ATOM     21  H   SER A   2       4.129   4.592  19.628  0.00  0.00    +0.000 HD
BRANCH  20  22
ATOM     22  CA  SER A   2       2.860   2.935  19.990  0.00  0.00    +0.000 C 
BRANCH  22  23
ATOM     23  C   SER A   2       1.857   3.210  21.107  0.00  0.00    +0.000 C 
ATOM     24  O   SER A   2       2.180   3.360  22.281  0.00  0.00    +0.000 OA
BRANCH  23  25
ATOM     25  OXT SER A   2       0.569   3.267  20.703  0.00  0.00    +0.000 OA
ATOM     26  HXT SER A   2      -0.089   3.376  21.417  0.00  0.00    +0.000 HD
ENDBRANCH  23  25
ENDBRANCH  22  23
BRANCH  22  27
ATOM     27  CB  SER A   2       4.084   2.226  20.583  0.00  0.00    +0.000 C 
BRANCH  27  28
ATOM     28  OG  SER A   2       5.042   1.873  19.597  0.00  0.00    +0.000 OA
ATOM     29  H   SER A   2       5.832   2.441  19.703  0.00  0.00    +0.000 HD
ENDBRANCH  27  28
ENDBRANCH  22  27
ENDBRANCH  20  22
ENDBRANCH   1  18
BRANCH   1  30
ATOM     30  CB  VAL A   1       4.475   6.279  17.849  0.00  0.00    +0.000 C 
BRANCH  30  32
ATOM     31  CD1 VAL A   1       5.331   5.980  15.451  0.00  0.00    +0.000 C 
ATOM     32  CG  VAL A   1       5.132   5.330  16.822  0.00  0.00    +0.000 C 
ATOM     33  CD2 VAL A   1       6.487   4.847  17.351  0.00  0.00    +0.000 C 
ENDBRANCH  30  32
ENDBRANCH   1  30
TORSDOF 15
ENDMDL
MODEL 6
REMARK VINA RESULT:      -6.1      3.415      7.705
REMARK  Name = 
REMARK  19 active torsions:
REMARK  status: ('A' for Active; 'I' for Inactive)
REMARK    1  A    between atoms: CD1_1  and  CG_2
REMARK    2  A    between atoms: CG_2  and  CD2_3
REMARK    3  A    between atoms: CG_2  and  CB_4
REMARK    4  A    between atoms: CB_4  and  CA_5
REMARK    5  A    between atoms: CA_5  and  N_6
REMARK    6  A    between atoms: CA_5  and  C_19
REMARK    7  A    between atoms: C_7  and  CA_9
REMARK    8  A    between atoms: CA_9  and  N_10
REMARK    9  A    between atoms: CA_9  and  CB_16
REMARK   10  A    between atoms: C_11  and  C_13
REMARK   11  A    between atoms: C_13  and  C_14
REMARK   12  A    between atoms: C_14  and  S_15
REMARK   13  A    between atoms: CB_16  and  CG1_17
REMARK   14  A    between atoms: CB_16  and  CG2_18
REMARK   15  A    between atoms: N_21  and  CA_22
REMARK   16  A    between atoms: CA_22  and  CB_23
REMARK   17  A    between atoms: CA_22  and  C_25
REMARK   18  A    between atoms: CB_23  and  OG_24
REMARK   19  A    between atoms: C_25  and  OXT_27
REMARK                            x       y       z     vdW  Elec       q    Type
REMARK                         _______ _______ _______ _____ _____    ______ ____
ROOT
ATOM      1  CA  VAL A   1       3.096   6.544  18.152  0.00  0.00    +0.000 C 
ENDROOT
BRANCH   1   2
ATOM      2  N   VAL A   1       2.438   7.516  19.031  0.00  0.00    +0.000 N 
ATOM      3  C   VAL A   1       1.805   8.641  18.555  0.00  0.00    +0.000 C 
ATOM      4  O   VAL A   1       1.872   8.980  17.376  0.00  0.00    +0.000 OA
ATOM      5  H   VAL A   1       2.427   7.312  20.024  0.00  0.00    +0.000 HD
BRANCH   3   6
ATOM      6  CA  VAL A   1       1.118   9.511  19.636  0.00  0.00    +0.000 C 
BRANCH   6   7
ATOM      7  N   VAL A   1      -0.193   9.867  19.088  0.00  0.00    +0.000 N 
ATOM      8  C   UNK A   0      -0.496  11.140  18.671  0.00  0.00    +0.000 C 
ATOM      9  O   UNK A   0       0.290  12.077  18.761  0.00  0.00    +0.000 OA
ATOM     10  H   VAL A   1      -0.832   9.104  18.891  0.00  0.00    +0.000 HD
BRANCH   8  11
ATOM     11  C   UNK A   0      -1.910  11.292  18.145  0.00  0.00    +0.000 C 
BRANCH  11  12
ATOM     12  C   UNK A   0      -2.146  10.340  16.980  0.00  0.00    +0.000 C 
BRANCH  12  13
ATOM     13  S   UNK A   0      -3.486  10.946  15.909  0.00  0.00    +0.000 S 
ATOM     14  H   UNK A   0      -3.122  10.282  14.802  0.00  0.00    +0.000 HD
ENDBRANCH  12  13
ENDBRANCH  11  12
ENDBRANCH   8  11
ENDBRANCH   6   7
BRANCH   6  15
ATOM     15  CB  VAL A   1       0.960   8.746  20.972  0.00  0.00    +0.000 C 
ATOM     16  CG1 VAL A   1       1.541   9.549  22.141  0.00  0.00    +0.000 C 
ATOM     17  CG2 VAL A   1      -0.510   8.428  21.275  0.00  0.00    +0.000 C 
ENDBRANCH   6  15
ENDBRANCH   3   6
ENDBRANCH   1   2
BRANCH   1  18
ATOM     18  C   VAL A   1       3.419   5.320  19.029  0.00  0.00    +0.000 C 
ATOM     19  O   VAL A   1       4.372   5.290  19.809  0.00  0.00    +0.000 OA
ATOM     20  N   SER A   2       2.575   4.249  18.903  0.00  0.00    +0.000 N 
ATOM     21  H   SER A   2       1.722   4.327  18.357  0.00  0.00    +0.000 HD
BRANCH  20  22
ATOM     22  CA  SER A   2       2.765   2.989  19.625  0.00  0.00    +0.000 C 
BRANCH  22  23
ATOM     23  C   SER A   2       3.860   2.203  18.910  0.00  0.00    +0.000 C 
ATOM     24  O   SER A   2       3.658   1.528  17.906  0.00  0.00    +0.000 OA
BRANCH  23  25
ATOM     25  OXT SER A   2       5.082   2.299  19.479  0.00  0.00    +0.000 OA
ATOM     26  HXT SER A   2       5.837   2.166  18.873  0.00  0.00    +0.000 HD
ENDBRANCH  23  25
ENDBRANCH  22  23
BRANCH  22  27
ATOM     27  CB  SER A   2       1.483   2.147  19.649  0.00  0.00    +0.000 C 
BRANCH  27  28
ATOM     28  OG  SER A   2       0.888   2.020  18.366  0.00  0.00    +0.000 OA
ATOM     29  H   SER A   2       0.034   1.552  18.457  0.00  0.00    +0.000 HD
ENDBRANCH  27  28
ENDBRANCH  22  27
ENDBRANCH  20  22
ENDBRANCH   1  18
BRANCH   1  30
ATOM     30  CB  VAL A   1       4.353   7.157  17.510  0.00  0.00    +0.000 C 
BRANCH  30  32
ATOM     31  CD1 VAL A   1       5.228   5.981  15.407  0.00  0.00    +0.000 C 
ATOM     32  CG  VAL A   1       5.380   6.166  16.918  0.00  0.00    +0.000 C 
ATOM     33  CD2 VAL A   1       6.803   6.646  17.227  0.00  0.00    +0.000 C 
ENDBRANCH  30  32
ENDBRANCH   1  30
TORSDOF 15
ENDMDL
MODEL 7
REMARK VINA RESULT:      -6.0      3.781      5.859
REMARK  Name = 
REMARK  19 active torsions:
REMARK  status: ('A' for Active; 'I' for Inactive)
REMARK    1  A    between atoms: CD1_1  and  CG_2
REMARK    2  A    between atoms: CG_2  and  CD2_3
REMARK    3  A    between atoms: CG_2  and  CB_4
REMARK    4  A    between atoms: CB_4  and  CA_5
REMARK    5  A    between atoms: CA_5  and  N_6
REMARK    6  A    between atoms: CA_5  and  C_19
REMARK    7  A    between atoms: C_7  and  CA_9
REMARK    8  A    between atoms: CA_9  and  N_10
REMARK    9  A    between atoms: CA_9  and  CB_16
REMARK   10  A    between atoms: C_11  and  C_13
REMARK   11  A    between atoms: C_13  and  C_14
REMARK   12  A    between atoms: C_14  and  S_15
REMARK   13  A    between atoms: CB_16  and  CG1_17
REMARK   14  A    between atoms: CB_16  and  CG2_18
REMARK   15  A    between atoms: N_21  and  CA_22
REMARK   16  A    between atoms: CA_22  and  CB_23
REMARK   17  A    between atoms: CA_22  and  C_25
REMARK   18  A    between atoms: CB_23  and  OG_24
REMARK   19  A    between atoms: C_25  and  OXT_27
REMARK                            x       y       z     vdW  Elec       q    Type
REMARK                         _______ _______ _______ _____ _____    ______ ____
ROOT
ATOM      1  CA  VAL A   1       2.850   6.651  18.578  0.00  0.00    +0.000 C 
ENDROOT
BRANCH   1   2
ATOM      2  N   VAL A   1       4.077   6.700  17.776  0.00  0.00    +0.000 N 
ATOM      3  C   VAL A   1       5.269   6.167  18.208  0.00  0.00    +0.000 C 
ATOM      4  O   VAL A   1       5.421   5.742  19.351  0.00  0.00    +0.000 OA
ATOM      5  H   VAL A   1       4.013   7.115  16.853  0.00  0.00    +0.000 HD
BRANCH   3   6
ATOM      6  CA  VAL A   1       6.435   6.265  17.194  0.00  0.00    +0.000 C 
BRANCH   6   7
ATOM      7  N   VAL A   1       7.509   6.981  17.887  0.00  0.00    +0.000 N 
ATOM      8  C   UNK A   0       7.674   8.341  17.782  0.00  0.00    +0.000 C 
ATOM      9  O   UNK A   0       6.965   9.047  17.073  0.00  0.00    +0.000 OA
ATOM     10  H   VAL A   1       8.045   6.457  18.570  0.00  0.00    +0.000 HD
BRANCH   8  11
ATOM     11  C   UNK A   0       8.851   8.877  18.574  0.00  0.00    +0.000 C 
BRANCH  11  12
ATOM     12  C   UNK A   0       8.959  10.386  18.405  0.00  0.00    +0.000 C 
BRANCH  12  13
ATOM     13  S   UNK A   0       9.910  11.125  19.769  0.00  0.00    +0.000 S 
ATOM     14  H   UNK A   0       9.570  12.401  19.531  0.00  0.00    +0.000 HD
ENDBRANCH  12  13
ENDBRANCH  11  12
ENDBRANCH   8  11
ENDBRANCH   6   7
BRANCH   6  15
ATOM     15  CB  VAL A   1       6.919   4.867  16.741  0.00  0.00    +0.000 C 
ATOM     16  CG1 VAL A   1       7.360   4.883  15.273  0.00  0.00    +0.000 C 
ATOM     17  CG2 VAL A   1       8.085   4.361  17.601  0.00  0.00    +0.000 C 
ENDBRANCH   6  15
ENDBRANCH   3   6
ENDBRANCH   1   2
BRANCH   1  18
ATOM     18  C   VAL A   1       2.386   5.182  18.564  0.00  0.00    +0.000 C 
ATOM     19  O   VAL A   1       1.544   4.755  17.773  0.00  0.00    +0.000 OA
ATOM     20  N   SER A   2       2.971   4.357  19.487  0.00  0.00    +0.000 N 
ATOM     21  H   SER A   2       3.752   4.684  20.047  0.00  0.00    +0.000 HD
BRANCH  20  22
ATOM     22  CA  SER A   2       2.611   2.946  19.644  0.00  0.00    +0.000 C 
BRANCH  22  23
ATOM     23  C   SER A   2       1.811   2.810  20.936  0.00  0.00    +0.000 C 
ATOM     24  O   SER A   2       2.322   2.543  22.019  0.00  0.00    +0.000 OA
BRANCH  23  25
ATOM     25  OXT SER A   2       0.480   2.997  20.795  0.00  0.00    +0.000 OA
ATOM     26  HXT SER A   2       0.105   2.704  19.941  0.00  0.00    +0.000 HD
ENDBRANCH  23  25
ENDBRANCH  22  23
BRANCH  22  27
ATOM     27  CB  SER A   2       3.850   2.047  19.728  0.00  0.00    +0.000 C 
BRANCH  27  28
ATOM     28  OG  SER A   2       5.055   2.750  19.459  0.00  0.00    +0.000 OA
ATOM     29  H   SER A   2       5.555   2.270  18.769  0.00  0.00    +0.000 HD
ENDBRANCH  27  28
ENDBRANCH  22  27
ENDBRANCH  20  22
ENDBRANCH   1  18
BRANCH   1  30
ATOM     30  CB  VAL A   1       1.790   7.609  18.008  0.00  0.00    +0.000 C 
BRANCH  30  32
ATOM     31  CD1 VAL A   1       0.515   9.830  18.126  0.00  0.00    +0.000 C 
ATOM     32  CG  VAL A   1       1.609   8.956  18.743  0.00  0.00    +0.000 C 
ATOM     33  CD2 VAL A   1       1.278   8.702  20.219  0.00  0.00    +0.000 C 
ENDBRANCH  30  32
ENDBRANCH   1  30
TORSDOF 15
ENDMDL
MODEL 8
REMARK VINA RESULT:      -6.0      2.759      4.590
REMARK  Name = 
REMARK  19 active torsions:
REMARK  status: ('A' for Active; 'I' for Inactive)
REMARK    1  A    between atoms: CD1_1  and  CG_2
REMARK    2  A    between atoms: CG_2  and  CD2_3
REMARK    3  A    between atoms: CG_2  and  CB_4
REMARK    4  A    between atoms: CB_4  and  CA_5
REMARK    5  A    between atoms: CA_5  and  N_6
REMARK    6  A    between atoms: CA_5  and  C_19
REMARK    7  A    between atoms: C_7  and  CA_9
REMARK    8  A    between atoms: CA_9  and  N_10
REMARK    9  A    between atoms: CA_9  and  CB_16
REMARK   10  A    between atoms: C_11  and  C_13
REMARK   11  A    between atoms: C_13  and  C_14
REMARK   12  A    between atoms: C_14  and  S_15
REMARK   13  A    between atoms: CB_16  and  CG1_17
REMARK   14  A    between atoms: CB_16  and  CG2_18
REMARK   15  A    between atoms: N_21  and  CA_22
REMARK   16  A    between atoms: CA_22  and  CB_23
REMARK   17  A    between atoms: CA_22  and  C_25
REMARK   18  A    between atoms: CB_23  and  OG_24
REMARK   19  A    between atoms: C_25  and  OXT_27
REMARK                            x       y       z     vdW  Elec       q    Type
REMARK                         _______ _______ _______ _____ _____    ______ ____
ROOT
ATOM      1  CA  VAL A   1       3.257   6.462  18.501  0.00  0.00    +0.000 C 
ENDROOT
BRANCH   1   2
ATOM      2  N   VAL A   1       4.548   6.320  17.821  0.00  0.00    +0.000 N 
ATOM      3  C   VAL A   1       5.643   5.739  18.418  0.00  0.00    +0.000 C 
ATOM      4  O   VAL A   1       5.654   5.431  19.607  0.00  0.00    +0.000 OA
ATOM      5  H   VAL A   1       4.604   6.635  16.859  0.00  0.00    +0.000 HD
BRANCH   3   6
ATOM      6  CA  VAL A   1       6.897   5.628  17.516  0.00  0.00    +0.000 C 
BRANCH   6   7
ATOM      7  N   VAL A   1       6.394   5.515  16.145  0.00  0.00    +0.000 N 
ATOM      8  C   UNK A   0       5.734   4.398  15.693  0.00  0.00    +0.000 C 
ATOM      9  O   UNK A   0       5.552   3.404  16.387  0.00  0.00    +0.000 OA
ATOM     10  H   VAL A   1       6.422   6.353  15.574  0.00  0.00    +0.000 HD
BRANCH   8  11
ATOM     11  C   UNK A   0       5.305   4.486  14.241  0.00  0.00    +0.000 C 
BRANCH  11  12
ATOM     12  C   UNK A   0       6.347   3.835  13.342  0.00  0.00    +0.000 C 
BRANCH  12  13
ATOM     13  S   UNK A   0       5.556   3.006  11.928  0.00  0.00    +0.000 S 
ATOM     14  H   UNK A   0       4.288   3.178  12.329  0.00  0.00    +0.000 HD
ENDBRANCH  12  13
ENDBRANCH  11  12
ENDBRANCH   8  11
ENDBRANCH   6   7
BRANCH   6  15
ATOM     15  CB  VAL A   1       7.815   6.866  17.658  0.00  0.00    +0.000 C 
ATOM     16  CG1 VAL A   1       7.060   8.156  17.318  0.00  0.00    +0.000 C 
ATOM     17  CG2 VAL A   1       8.390   6.989  19.075  0.00  0.00    +0.000 C 
ENDBRANCH   6  15
ENDBRANCH   3   6
ENDBRANCH   1   2
BRANCH   1  18
ATOM     18  C   VAL A   1       2.614   5.062  18.501  0.00  0.00    +0.000 C 
ATOM     19  O   VAL A   1       1.697   4.748  17.742  0.00  0.00    +0.000 OA
ATOM     20  N   SER A   2       3.128   4.163  19.399  0.00  0.00    +0.000 N 
ATOM     21  H   SER A   2       3.965   4.387  19.929  0.00  0.00    +0.000 HD
BRANCH  20  22
ATOM     22  CA  SER A   2       2.603   2.806  19.565  0.00  0.00    +0.000 C 
BRANCH  22  23
ATOM     23  C   SER A   2       1.994   2.710  20.961  0.00  0.00    +0.000 C 
ATOM     24  O   SER A   2       0.807   2.911  21.193  0.00  0.00    +0.000 OA
BRANCH  23  25
ATOM     25  OXT SER A   2       2.874   2.393  21.936  0.00  0.00    +0.000 OA
ATOM     26  HXT SER A   2       2.956   1.438  22.131  0.00  0.00    +0.000 HD
ENDBRANCH  23  25
ENDBRANCH  22  23
BRANCH  22  27
ATOM     27  CB  SER A   2       3.704   1.748  19.427  0.00  0.00    +0.000 C 
BRANCH  27  28
ATOM     28  OG  SER A   2       4.995   2.319  19.278  0.00  0.00    +0.000 OA
ATOM     29  H   SER A   2       4.936   3.284  19.431  0.00  0.00    +0.000 HD
ENDBRANCH  27  28
ENDBRANCH  22  27
ENDBRANCH  20  22
ENDBRANCH   1  18
BRANCH   1  30
ATOM     30  CB  VAL A   1       2.382   7.511  17.793  0.00  0.00    +0.000 C 
BRANCH  30  32
ATOM     31  CD1 VAL A   1       0.779   9.499  18.021  0.00  0.00    +0.000 C 
ATOM     32  CG  VAL A   1       1.956   8.736  18.633  0.00  0.00    +0.000 C 
ATOM     33  CD2 VAL A   1       1.583   8.289  20.052  0.00  0.00    +0.000 C 
ENDBRANCH  30  32
ENDBRANCH   1  30
TORSDOF 15
ENDMDL
MODEL 9
REMARK VINA RESULT:      -5.8      3.237      7.518
REMARK  Name = 
REMARK  19 active torsions:
REMARK  status: ('A' for Active; 'I' for Inactive)
REMARK    1  A    between atoms: CD1_1  and  CG_2
REMARK    2  A    between atoms: CG_2  and  CD2_3
REMARK    3  A    between atoms: CG_2  and  CB_4
REMARK    4  A    between atoms: CB_4  and  CA_5
REMARK    5  A    between atoms: CA_5  and  N_6
REMARK    6  A    between atoms: CA_5  and  C_19
REMARK    7  A    between atoms: C_7  and  CA_9
REMARK    8  A    between atoms: CA_9  and  N_10
REMARK    9  A    between atoms: CA_9  and  CB_16
REMARK   10  A    between atoms: C_11  and  C_13
REMARK   11  A    between atoms: C_13  and  C_14
REMARK   12  A    between atoms: C_14  and  S_15
REMARK   13  A    between atoms: CB_16  and  CG1_17
REMARK   14  A    between atoms: CB_16  and  CG2_18
REMARK   15  A    between atoms: N_21  and  CA_22
REMARK   16  A    between atoms: CA_22  and  CB_23
REMARK   17  A    between atoms: CA_22  and  C_25
REMARK   18  A    between atoms: CB_23  and  OG_24
REMARK   19  A    between atoms: C_25  and  OXT_27
REMARK                            x       y       z     vdW  Elec       q    Type
REMARK                         _______ _______ _______ _____ _____    ______ ____
ROOT
ATOM      1  CA  VAL A   1       2.829   6.459  17.906  0.00  0.00    +0.000 C 
ENDROOT
BRANCH   1   2
ATOM      2  N   VAL A   1       2.264   7.375  18.902  0.00  0.00    +0.000 N 
ATOM      3  C   VAL A   1       1.798   8.628  18.579  0.00  0.00    +0.000 C 
ATOM      4  O   VAL A   1       1.953   9.118  17.463  0.00  0.00    +0.000 OA
ATOM      5  H   VAL A   1       2.189   7.037  19.854  0.00  0.00    +0.000 HD
BRANCH   3   6
ATOM      6  CA  VAL A   1       1.184   9.421  19.759  0.00  0.00    +0.000 C 
BRANCH   6   7
ATOM      7  N   VAL A   1      -0.112   9.909  19.281  0.00  0.00    +0.000 N 
ATOM      8  C   UNK A   0      -0.338  11.234  18.995  0.00  0.00    +0.000 C 
ATOM      9  O   UNK A   0       0.508  12.106  19.153  0.00  0.00    +0.000 OA
ATOM     10  H   VAL A   1      -0.802   9.210  19.029  0.00  0.00    +0.000 HD
BRANCH   8  11
ATOM     11  C   UNK A   0      -1.750  11.524  18.522  0.00  0.00    +0.000 C 
BRANCH  11  12
ATOM     12  C   UNK A   0      -2.375  10.271  17.924  0.00  0.00    +0.000 C 
BRANCH  12  13
ATOM     13  S   UNK A   0      -2.659  10.478  16.139  0.00  0.00    +0.000 S 
ATOM     14  H   UNK A   0      -3.358   9.348  15.954  0.00  0.00    +0.000 HD
ENDBRANCH  12  13
ENDBRANCH  11  12
ENDBRANCH   8  11
ENDBRANCH   6   7
BRANCH   6  15
ATOM     15  CB  VAL A   1       1.002   8.531  21.012  0.00  0.00    +0.000 C 
ATOM     16  CG1 VAL A   1       1.662   9.166  22.242  0.00  0.00    +0.000 C 
ATOM     17  CG2 VAL A   1      -0.481   8.282  21.322  0.00  0.00    +0.000 C 
ENDBRANCH   6  15
ENDBRANCH   3   6
ENDBRANCH   1   2
BRANCH   1  18
ATOM     18  C   VAL A   1       2.514   5.035  18.403  0.00  0.00    +0.000 C 
ATOM     19  O   VAL A   1       1.745   4.276  17.812  0.00  0.00    +0.000 OA
ATOM     20  N   SER A   2       3.148   4.644  19.553  0.00  0.00    +0.000 N 
ATOM     21  H   SER A   2       3.874   5.224  19.962  0.00  0.00    +0.000 HD
BRANCH  20  22
ATOM     22  CA  SER A   2       2.925   3.344  20.189  0.00  0.00    +0.000 C 
BRANCH  22  23
ATOM     23  C   SER A   2       3.773   2.313  19.451  0.00  0.00    +0.000 C 
ATOM     24  O   SER A   2       3.301   1.470  18.695  0.00  0.00    +0.000 OA
BRANCH  23  25
ATOM     25  OXT SER A   2       5.098   2.391  19.704  0.00  0.00    +0.000 OA
ATOM     26  HXT SER A   2       5.338   2.500  20.645  0.00  0.00    +0.000 HD
ENDBRANCH  23  25
ENDBRANCH  22  23
BRANCH  22  27
ATOM     27  CB  SER A   2       1.453   2.921  20.119  0.00  0.00    +0.000 C 
BRANCH  27  28
ATOM     28  OG  SER A   2       0.855   2.806  21.402  0.00  0.00    +0.000 OA
ATOM     29  H   SER A   2       0.388   1.948  21.459  0.00  0.00    +0.000 HD
ENDBRANCH  27  28
ENDBRANCH  22  27
ENDBRANCH  20  22
ENDBRANCH   1  18
BRANCH   1  30
ATOM     30  CB  VAL A   1       4.339   6.703  17.737  0.00  0.00    +0.000 C 
BRANCH  30  32
ATOM     31  CD1 VAL A   1       5.456   5.959  15.553  0.00  0.00    +0.000 C 
ATOM     32  CG  VAL A   1       5.139   5.601  17.006  0.00  0.00    +0.000 C 
ATOM     33  CD2 VAL A   1       6.449   5.328  17.755  0.00  0.00    +0.000 C 
ENDBRANCH  30  32
ENDBRANCH   1  30
TORSDOF 15
ENDMDL
