MODEL 1
REMARK VINA RESULT:      -7.4      0.000      0.000
REMARK  Name = 
REMARK  14 active torsions:
REMARK  status: ('A' for Active; 'I' for Inactive)
REMARK    1  A    between atoms: C_1  and  C_2
REMARK    2  A    between atoms: C_2  and  N_3
REMARK    3  A    between atoms: N_3  and  C_4
REMARK    4  A    between atoms: C_5  and  O_7
REMARK    5  A    between atoms: O_7  and  C_8
REMARK    6  A    between atoms: C_10  and  O_11
REMARK    7  A    between atoms: O_11  and  C_12
REMARK    8  A    between atoms: N_14  and  C_15
REMARK    9  A    between atoms: N_14  and  C_16
REMARK   10  A    between atoms: C_16  and  C_17
REMARK   11  A    between atoms: C_19  and  C_20
REMARK   12  A    between atoms: C_20  and  O_21
REMARK   13  A    between atoms: C_20  and  C_22
REMARK   14  A    between atoms: C_22  and  N_23
REMARK                            x       y       z     vdW  Elec       q    Type
REMARK                         _______ _______ _______ _____ _____    ______ ____
ROOT
ATOM      1  C   UNL     1       3.689   5.410  19.082  0.00  0.00    +0.000 A 
ATOM      2  C   UNL     1       2.667   6.372  19.032  0.00  0.00    +0.000 A 
ATOM      3  C   UNL     1       2.743   7.454  18.153  0.00  0.00    +0.000 A 
ATOM      4  C   UNL     1       3.890   7.601  17.352  0.00  0.00    +0.000 A 
ATOM      5  C   UNL     1       4.916   6.644  17.381  0.00  0.00    +0.000 A 
ATOM      6  C   UNL     1       4.797   5.536  18.238  0.00  0.00    +0.000 A 
ENDROOT
BRANCH   1   7
ATOM      7  O   UNL     1       3.611   4.332  19.900  0.00  0.00    +0.000 OA
BRANCH   7  10
ATOM      8  N   UNL     1       3.351   2.314  18.692  0.00  0.00    +0.000 N 
ATOM      9  C   UNL     1       3.813   0.962  18.409  0.00  0.00    +0.000 C 
ATOM     10  C   UNL     1       4.037   3.076  19.595  0.00  0.00    +0.000 C 
ATOM     11  O   UNL     1       5.040   2.628  20.140  0.00  0.00    +0.000 OA
BRANCH   8  13
ATOM     12  C   UNL     1       0.873   2.450  18.879  0.00  0.00    +0.000 C 
ATOM     13  C   UNL     1       2.122   2.811  18.074  0.00  0.00    +0.000 C 
ENDBRANCH   8  13
ENDBRANCH   7  10
ENDBRANCH   1   7
BRANCH   3  14
ATOM     14  O   UNL     1       1.685   8.308  18.102  0.00  0.00    +0.000 OA
BRANCH  14  15
ATOM     15  C   UNL     1       1.684   9.651  18.355  0.00  0.00    +0.000 C 
ATOM     16  O   UNL     1       2.124  10.432  17.523  0.00  0.00    +0.000 OA
ATOM     17  N   UNL     1       1.126  10.123  19.512  0.00  0.00    +0.000 N 
ATOM     18  C   UNL     1       1.078  11.562  19.779  0.00  0.00    +0.000 C 
BRANCH  17  19
ATOM     19  C   UNL     1       0.567   9.154  20.463  0.00  0.00    +0.000 C 
ATOM     20  C   UNL     1      -0.067   9.774  21.712  0.00  0.00    +0.000 C 
ENDBRANCH  17  19
ENDBRANCH  14  15
ENDBRANCH   3  14
BRANCH   5  21
ATOM     21  C   UNL     1       6.118   6.810  16.471  0.00  0.00    +0.000 C 
BRANCH  21  22
ATOM     22  O   UNL     1       7.113   7.594  17.084  0.00  0.00    +0.000 OA
ATOM     23  H   UNL     1       7.866   7.002  17.336  0.00  0.00    +0.000 HD
ENDBRANCH  21  22
BRANCH  21  24
ATOM     24  C   UNL     1       6.673   5.441  16.009  0.00  0.00    +0.000 C 
BRANCH  24  25
ATOM     25  N   UNL     1       6.472   5.196  14.555  0.00  0.00    +0.000 NA
ATOM     26  C   UNL     1       7.750   5.212  13.800  0.00  0.00    +0.000 C 
ATOM     27  C   UNL     1       7.506   4.985  12.305  0.00  0.00    +0.000 C 
ATOM     28  C   UNL     1       6.817   3.642  12.095  0.00  0.00    +0.000 C 
ATOM     29  C   UNL     1       5.506   3.626  12.882  0.00  0.00    +0.000 C 
ATOM     30  C   UNL     1       5.785   3.894  14.369  0.00  0.00    +0.000 C 
ENDBRANCH  24  25
ENDBRANCH  21  24
ENDBRANCH   5  21
TORSDOF 10
ENDMDL
MODEL 2
REMARK VINA RESULT:      -7.2      1.659      7.496
REMARK  Name = 
REMARK  14 active torsions:
REMARK  status: ('A' for Active; 'I' for Inactive)
REMARK    1  A    between atoms: C_1  and  C_2
REMARK    2  A    between atoms: C_2  and  N_3
REMARK    3  A    between atoms: N_3  and  C_4
REMARK    4  A    between atoms: C_5  and  O_7
REMARK    5  A    between atoms: O_7  and  C_8
REMARK    6  A    between atoms: C_10  and  O_11
REMARK    7  A    between atoms: O_11  and  C_12
REMARK    8  A    between atoms: N_14  and  C_15
REMARK    9  A    between atoms: N_14  and  C_16
REMARK   10  A    between atoms: C_16  and  C_17
REMARK   11  A    between atoms: C_19  and  C_20
REMARK   12  A    between atoms: C_20  and  O_21
REMARK   13  A    between atoms: C_20  and  C_22
REMARK   14  A    between atoms: C_22  and  N_23
REMARK                            x       y       z     vdW  Elec       q    Type
REMARK                         _______ _______ _______ _____ _____    ______ ____
ROOT
ATOM      1  C   UNL     1       2.262   5.866  18.562  0.00  0.00    +0.000 A 
ATOM      2  C   UNL     1       3.466   5.721  17.853  0.00  0.00    +0.000 A 
ATOM      3  C   UNL     1       4.161   6.837  17.386  0.00  0.00    +0.000 A 
ATOM      4  C   UNL     1       3.610   8.116  17.585  0.00  0.00    +0.000 A 
ATOM      5  C   UNL     1       2.413   8.281  18.300  0.00  0.00    +0.000 A 
ATOM      6  C   UNL     1       1.755   7.146  18.805  0.00  0.00    +0.000 A 
ENDROOT
BRANCH   1   7
ATOM      7  O   UNL     1       1.597   4.795  19.059  0.00  0.00    +0.000 OA
BRANCH   7  10
ATOM      8  N   UNL     1       1.951   2.855  20.366  0.00  0.00    +0.000 N 
ATOM      9  C   UNL     1       2.167   2.257  21.678  0.00  0.00    +0.000 C 
ATOM     10  C   UNL     1       1.827   4.212  20.267  0.00  0.00    +0.000 C 
ATOM     11  O   UNL     1       1.917   4.912  21.269  0.00  0.00    +0.000 OA
BRANCH   8  13
ATOM     12  C   UNL     1       3.110   1.771  18.449  0.00  0.00    +0.000 C 
ATOM     13  C   UNL     1       1.792   2.000  19.191  0.00  0.00    +0.000 C 
ENDBRANCH   8  13
ENDBRANCH   7  10
ENDBRANCH   1   7
BRANCH   3  14
ATOM     14  O   UNL     1       5.358   6.630  16.772  0.00  0.00    +0.000 OA
BRANCH  14  15
ATOM     15  C   UNL     1       5.585   6.006  15.577  0.00  0.00    +0.000 C 
ATOM     16  O   UNL     1       5.367   6.593  14.527  0.00  0.00    +0.000 OA
ATOM     17  N   UNL     1       6.125   4.748  15.561  0.00  0.00    +0.000 N 
ATOM     18  C   UNL     1       6.415   4.082  14.291  0.00  0.00    +0.000 C 
BRANCH  17  19
ATOM     19  C   UNL     1       6.415   4.098  16.845  0.00  0.00    +0.000 C 
ATOM     20  C   UNL     1       7.685   4.596  17.543  0.00  0.00    +0.000 C 
ENDBRANCH  17  19
ENDBRANCH  14  15
ENDBRANCH   3  14
BRANCH   5  21
ATOM     21  C   UNL     1       1.870   9.677  18.536  0.00  0.00    +0.000 C 
BRANCH  21  22
ATOM     22  O   UNL     1       1.929  10.448  17.361  0.00  0.00    +0.000 OA
ATOM     23  H   UNL     1       1.996   9.834  16.587  0.00  0.00    +0.000 HD
ENDBRANCH  21  22
BRANCH  21  24
ATOM     24  C   UNL     1       0.438   9.637  19.123  0.00  0.00    +0.000 C 
BRANCH  24  25
ATOM     25  N   UNL     1       0.376  10.112  20.532  0.00  0.00    +0.000 NA
ATOM     26  C   UNL     1      -0.557  11.254  20.699  0.00  0.00    +0.000 C 
ATOM     27  C   UNL     1      -0.576  11.737  22.153  0.00  0.00    +0.000 C 
ATOM     28  C   UNL     1      -1.010  10.596  23.067  0.00  0.00    +0.000 C 
ATOM     29  C   UNL     1      -0.052   9.419  22.884  0.00  0.00    +0.000 C 
ATOM     30  C   UNL     1      -0.029   8.987  21.410  0.00  0.00    +0.000 C 
ENDBRANCH  24  25
ENDBRANCH  21  24
ENDBRANCH   5  21
TORSDOF 10
ENDMDL
MODEL 3
REMARK VINA RESULT:      -7.1      2.169      7.773
REMARK  Name = 
REMARK  14 active torsions:
REMARK  status: ('A' for Active; 'I' for Inactive)
REMARK    1  A    between atoms: C_1  and  C_2
REMARK    2  A    between atoms: C_2  and  N_3
REMARK    3  A    between atoms: N_3  and  C_4
REMARK    4  A    between atoms: C_5  and  O_7
REMARK    5  A    between atoms: O_7  and  C_8
REMARK    6  A    between atoms: C_10  and  O_11
REMARK    7  A    between atoms: O_11  and  C_12
REMARK    8  A    between atoms: N_14  and  C_15
REMARK    9  A    between atoms: N_14  and  C_16
REMARK   10  A    between atoms: C_16  and  C_17
REMARK   11  A    between atoms: C_19  and  C_20
REMARK   12  A    between atoms: C_20  and  O_21
REMARK   13  A    between atoms: C_20  and  C_22
REMARK   14  A    between atoms: C_22  and  N_23
REMARK                            x       y       z     vdW  Elec       q    Type
REMARK                         _______ _______ _______ _____ _____    ______ ____
ROOT
ATOM      1  C   UNL     1       4.027   7.032  17.161  0.00  0.00    +0.000 A 
ATOM      2  C   UNL     1       3.421   5.887  17.705  0.00  0.00    +0.000 A 
ATOM      3  C   UNL     1       2.294   5.992  18.521  0.00  0.00    +0.000 A 
ATOM      4  C   UNL     1       1.802   7.270  18.842  0.00  0.00    +0.000 A 
ATOM      5  C   UNL     1       2.389   8.425  18.300  0.00  0.00    +0.000 A 
ATOM      6  C   UNL     1       3.493   8.293  17.441  0.00  0.00    +0.000 A 
ENDROOT
BRANCH   1   7
ATOM      7  O   UNL     1       5.097   6.944  16.333  0.00  0.00    +0.000 OA
BRANCH   7  10
ATOM      8  N   UNL     1       6.903   5.569  16.998  0.00  0.00    +0.000 N 
ATOM      9  C   UNL     1       7.728   4.391  16.759  0.00  0.00    +0.000 C 
ATOM     10  C   UNL     1       5.866   5.837  16.150  0.00  0.00    +0.000 C 
ATOM     11  O   UNL     1       5.626   5.081  15.215  0.00  0.00    +0.000 OA
BRANCH   8  13
ATOM     12  C   UNL     1       7.897   5.778  19.270  0.00  0.00    +0.000 C 
ATOM     13  C   UNL     1       7.237   6.487  18.086  0.00  0.00    +0.000 C 
ENDBRANCH   8  13
ENDBRANCH   7  10
ENDBRANCH   1   7
BRANCH   3  14
ATOM     14  O   UNL     1       1.712   4.841  18.953  0.00  0.00    +0.000 OA
BRANCH  14  15
ATOM     15  C   UNL     1       1.920   3.574  18.485  0.00  0.00    +0.000 C 
ATOM     16  O   UNL     1       1.506   3.252  17.380  0.00  0.00    +0.000 OA
ATOM     17  N   UNL     1       2.655   2.688  19.227  0.00  0.00    +0.000 N 
ATOM     18  C   UNL     1       2.924   1.341  18.721  0.00  0.00    +0.000 C 
BRANCH  17  19
ATOM     19  C   UNL     1       3.173   3.131  20.527  0.00  0.00    +0.000 C 
ATOM     20  C   UNL     1       2.236   2.874  21.712  0.00  0.00    +0.000 C 
ENDBRANCH  17  19
ENDBRANCH  14  15
ENDBRANCH   3  14
BRANCH   5  21
ATOM     21  C   UNL     1       1.806   9.785  18.632  0.00  0.00    +0.000 C 
BRANCH  21  22
ATOM     22  O   UNL     1       1.823  10.631  17.508  0.00  0.00    +0.000 OA
ATOM     23  H   UNL     1       2.718  11.051  17.447  0.00  0.00    +0.000 HD
ENDBRANCH  21  22
BRANCH  21  24
ATOM     24  C   UNL     1       0.386   9.662  19.234  0.00  0.00    +0.000 C 
BRANCH  24  25
ATOM     25  N   UNL     1       0.311  10.141  20.642  0.00  0.00    +0.000 NA
ATOM     26  C   UNL     1      -0.631  11.278  20.799  0.00  0.00    +0.000 C 
ATOM     27  C   UNL     1      -0.664  11.764  22.251  0.00  0.00    +0.000 C 
ATOM     28  C   UNL     1      -1.098  10.624  23.165  0.00  0.00    +0.000 C 
ATOM     29  C   UNL     1      -0.131   9.452  22.992  0.00  0.00    +0.000 C 
ATOM     30  C   UNL     1      -0.094   9.016  21.520  0.00  0.00    +0.000 C 
ENDBRANCH  24  25
ENDBRANCH  21  24
ENDBRANCH   5  21
TORSDOF 10
ENDMDL
MODEL 4
REMARK VINA RESULT:      -7.0      0.969      1.152
REMARK  Name = 
REMARK  14 active torsions:
REMARK  status: ('A' for Active; 'I' for Inactive)
REMARK    1  A    between atoms: C_1  and  C_2
REMARK    2  A    between atoms: C_2  and  N_3
REMARK    3  A    between atoms: N_3  and  C_4
REMARK    4  A    between atoms: C_5  and  O_7
REMARK    5  A    between atoms: O_7  and  C_8
REMARK    6  A    between atoms: C_10  and  O_11
REMARK    7  A    between atoms: O_11  and  C_12
REMARK    8  A    between atoms: N_14  and  C_15
REMARK    9  A    between atoms: N_14  and  C_16
REMARK   10  A    between atoms: C_16  and  C_17
REMARK   11  A    between atoms: C_19  and  C_20
REMARK   12  A    between atoms: C_20  and  O_21
REMARK   13  A    between atoms: C_20  and  C_22
REMARK   14  A    between atoms: C_22  and  N_23
REMARK                            x       y       z     vdW  Elec       q    Type
REMARK                         _______ _______ _______ _____ _____    ______ ____
ROOT
ATOM      1  C   UNL     1       3.461   4.740  18.170  0.00  0.00    +0.000 A 
ATOM      2  C   UNL     1       2.479   5.723  18.374  0.00  0.00    +0.000 A 
ATOM      3  C   UNL     1       2.671   7.032  17.930  0.00  0.00    +0.000 A 
ATOM      4  C   UNL     1       3.893   7.372  17.321  0.00  0.00    +0.000 A 
ATOM      5  C   UNL     1       4.882   6.401  17.100  0.00  0.00    +0.000 A 
ATOM      6  C   UNL     1       4.647   5.077  17.511  0.00  0.00    +0.000 A 
ENDROOT
BRANCH   1   7
ATOM      7  O   UNL     1       3.272   3.455  18.558  0.00  0.00    +0.000 OA
BRANCH   7  10
ATOM      8  N   UNL     1       2.111   2.836  20.524  0.00  0.00    +0.000 N 
ATOM      9  C   UNL     1       2.155   2.386  21.909  0.00  0.00    +0.000 C 
ATOM     10  C   UNL     1       3.283   3.008  19.843  0.00  0.00    +0.000 C 
ATOM     11  O   UNL     1       4.352   2.765  20.390  0.00  0.00    +0.000 OA
BRANCH   8  13
ATOM     12  C   UNL     1       0.467   2.231  18.756  0.00  0.00    +0.000 C 
ATOM     13  C   UNL     1       0.829   3.172  19.906  0.00  0.00    +0.000 C 
ENDBRANCH   8  13
ENDBRANCH   7  10
ENDBRANCH   1   7
BRANCH   3  14
ATOM     14  O   UNL     1       1.649   7.916  18.093  0.00  0.00    +0.000 OA
BRANCH  14  15
ATOM     15  C   UNL     1       1.738   9.261  18.318  0.00  0.00    +0.000 C 
ATOM     16  O   UNL     1       2.189  10.000  17.454  0.00  0.00    +0.000 OA
ATOM     17  N   UNL     1       1.257   9.786  19.487  0.00  0.00    +0.000 N 
ATOM     18  C   UNL     1       1.304  11.229  19.727  0.00  0.00    +0.000 C 
BRANCH  17  19
ATOM     19  C   UNL     1       0.682   8.868  20.479  0.00  0.00    +0.000 C 
ATOM     20  C   UNL     1       1.248   9.017  21.894  0.00  0.00    +0.000 C 
ENDBRANCH  17  19
ENDBRANCH  14  15
ENDBRANCH   3  14
BRANCH   5  21
ATOM     21  C   UNL     1       6.170   6.792  16.401  0.00  0.00    +0.000 C 
BRANCH  21  22
ATOM     22  O   UNL     1       6.978   7.586  17.235  0.00  0.00    +0.000 OA
ATOM     23  H   UNL     1       6.410   7.958  17.957  0.00  0.00    +0.000 HD
ENDBRANCH  21  22
BRANCH  21  24
ATOM     24  C   UNL     1       6.933   5.549  15.881  0.00  0.00    +0.000 C 
BRANCH  24  25
ATOM     25  N   UNL     1       6.632   5.240  14.456  0.00  0.00    +0.000 NA
ATOM     26  C   UNL     1       7.841   5.314  13.598  0.00  0.00    +0.000 C 
ATOM     27  C   UNL     1       7.493   5.019  12.136  0.00  0.00    +0.000 C 
ATOM     28  C   UNL     1       6.883   3.626  12.024  0.00  0.00    +0.000 C 
ATOM     29  C   UNL     1       5.645   3.551  12.917  0.00  0.00    +0.000 C 
ATOM     30  C   UNL     1       6.023   3.890  14.367  0.00  0.00    +0.000 C 
ENDBRANCH  24  25
ENDBRANCH  21  24
ENDBRANCH   5  21
TORSDOF 10
ENDMDL
MODEL 5
REMARK VINA RESULT:      -6.9      0.811      1.246
REMARK  Name = 
REMARK  14 active torsions:
REMARK  status: ('A' for Active; 'I' for Inactive)
REMARK    1  A    between atoms: C_1  and  C_2
REMARK    2  A    between atoms: C_2  and  N_3
REMARK    3  A    between atoms: N_3  and  C_4
REMARK    4  A    between atoms: C_5  and  O_7
REMARK    5  A    between atoms: O_7  and  C_8
REMARK    6  A    between atoms: C_10  and  O_11
REMARK    7  A    between atoms: O_11  and  C_12
REMARK    8  A    between atoms: N_14  and  C_15
REMARK    9  A    between atoms: N_14  and  C_16
REMARK   10  A    between atoms: C_16  and  C_17
REMARK   11  A    between atoms: C_19  and  C_20
REMARK   12  A    between atoms: C_20  and  O_21
REMARK   13  A    between atoms: C_20  and  C_22
REMARK   14  A    between atoms: C_22  and  N_23
REMARK                            x       y       z     vdW  Elec       q    Type
REMARK                         _______ _______ _______ _____ _____    ______ ____
ROOT
ATOM      1  C   UNL     1       3.517   5.772  19.208  0.00  0.00    +0.000 A 
ATOM      2  C   UNL     1       2.555   6.785  19.064  0.00  0.00    +0.000 A 
ATOM      3  C   UNL     1       2.694   7.773  18.088  0.00  0.00    +0.000 A 
ATOM      4  C   UNL     1       3.847   7.775  17.282  0.00  0.00    +0.000 A 
ATOM      5  C   UNL     1       4.814   6.766  17.404  0.00  0.00    +0.000 A 
ATOM      6  C   UNL     1       4.629   5.752  18.361  0.00  0.00    +0.000 A 
ENDROOT
BRANCH   1   7
ATOM      7  O   UNL     1       3.375   4.782  20.123  0.00  0.00    +0.000 OA
BRANCH   7  10
ATOM      8  N   UNL     1       2.212   2.811  19.524  0.00  0.00    +0.000 N 
ATOM      9  C   UNL     1       1.024   1.976  19.652  0.00  0.00    +0.000 C 
ATOM     10  C   UNL     1       2.291   3.969  20.244  0.00  0.00    +0.000 C 
ATOM     11  O   UNL     1       1.380   4.284  21.002  0.00  0.00    +0.000 OA
BRANCH   8  13
ATOM     12  C   UNL     1       2.896   2.795  17.132  0.00  0.00    +0.000 C 
ATOM     13  C   UNL     1       3.263   2.446  18.575  0.00  0.00    +0.000 C 
ENDBRANCH   8  13
ENDBRANCH   7  10
ENDBRANCH   1   7
BRANCH   3  14
ATOM     14  O   UNL     1       1.690   8.681  17.953  0.00  0.00    +0.000 OA
BRANCH  14  15
ATOM     15  C   UNL     1       1.725  10.015  18.249  0.00  0.00    +0.000 C 
ATOM     16  O   UNL     1       2.315  10.792  17.511  0.00  0.00    +0.000 OA
ATOM     17  N   UNL     1       1.040  10.487  19.336  0.00  0.00    +0.000 N 
ATOM     18  C   UNL     1       1.032  11.918  19.643  0.00  0.00    +0.000 C 
BRANCH  17  19
ATOM     19  C   UNL     1       0.307   9.526  20.169  0.00  0.00    +0.000 C 
ATOM     20  C   UNL     1       0.180   9.922  21.643  0.00  0.00    +0.000 C 
ENDBRANCH  17  19
ENDBRANCH  14  15
ENDBRANCH   3  14
BRANCH   5  21
ATOM     21  C   UNL     1       6.023   6.773  16.489  0.00  0.00    +0.000 C 
BRANCH  21  22
ATOM     22  O   UNL     1       7.106   7.446  17.084  0.00  0.00    +0.000 OA
ATOM     23  H   UNL     1       7.020   7.365  18.068  0.00  0.00    +0.000 HD
ENDBRANCH  21  22
BRANCH  21  24
ATOM     24  C   UNL     1       6.411   5.341  16.050  0.00  0.00    +0.000 C 
BRANCH  24  25
ATOM     25  N   UNL     1       6.339   5.147  14.576  0.00  0.00    +0.000 NA
ATOM     26  C   UNL     1       7.668   5.277  13.927  0.00  0.00    +0.000 C 
ATOM     27  C   UNL     1       7.555   5.100  12.409  0.00  0.00    +0.000 C 
ATOM     28  C   UNL     1       6.974   3.727  12.093  0.00  0.00    +0.000 C 
ATOM     29  C   UNL     1       5.610   3.594  12.772  0.00  0.00    +0.000 C 
ATOM     30  C   UNL     1       5.756   3.814  14.286  0.00  0.00    +0.000 C 
ENDBRANCH  24  25
ENDBRANCH  21  24
ENDBRANCH   5  21
TORSDOF 10
ENDMDL
MODEL 6
REMARK VINA RESULT:      -6.9      1.426      2.055
REMARK  Name = 
REMARK  14 active torsions:
REMARK  status: ('A' for Active; 'I' for Inactive)
REMARK    1  A    between atoms: C_1  and  C_2
REMARK    2  A    between atoms: C_2  and  N_3
REMARK    3  A    between atoms: N_3  and  C_4
REMARK    4  A    between atoms: C_5  and  O_7
REMARK    5  A    between atoms: O_7  and  C_8
REMARK    6  A    between atoms: C_10  and  O_11
REMARK    7  A    between atoms: O_11  and  C_12
REMARK    8  A    between atoms: N_14  and  C_15
REMARK    9  A    between atoms: N_14  and  C_16
REMARK   10  A    between atoms: C_16  and  C_17
REMARK   11  A    between atoms: C_19  and  C_20
REMARK   12  A    between atoms: C_20  and  O_21
REMARK   13  A    between atoms: C_20  and  C_22
REMARK   14  A    between atoms: C_22  and  N_23
REMARK                            x       y       z     vdW  Elec       q    Type
REMARK                         _______ _______ _______ _____ _____    ______ ____
ROOT
ATOM      1  C   UNL     1       2.837   4.949  17.901  0.00  0.00    +0.000 A 
ATOM      2  C   UNL     1       2.081   6.057  18.319  0.00  0.00    +0.000 A 
ATOM      3  C   UNL     1       2.529   7.359  18.089  0.00  0.00    +0.000 A 
ATOM      4  C   UNL     1       3.783   7.550  17.481  0.00  0.00    +0.000 A 
ATOM      5  C   UNL     1       4.548   6.455  17.048  0.00  0.00    +0.000 A 
ATOM      6  C   UNL     1       4.055   5.154  17.245  0.00  0.00    +0.000 A 
ENDROOT
BRANCH   1   7
ATOM      7  O   UNL     1       2.396   3.680  18.080  0.00  0.00    +0.000 OA
BRANCH   7  10
ATOM      8  N   UNL     1       2.660   2.796  20.258  0.00  0.00    +0.000 N 
ATOM      9  C   UNL     1       2.052   2.241  21.461  0.00  0.00    +0.000 C 
ATOM     10  C   UNL     1       1.854   3.186  19.226  0.00  0.00    +0.000 C 
ATOM     11  O   UNL     1       0.637   3.086  19.325  0.00  0.00    +0.000 OA
BRANCH   8  13
ATOM     12  C   UNL     1       4.801   1.596  20.669  0.00  0.00    +0.000 C 
ATOM     13  C   UNL     1       4.116   2.855  20.136  0.00  0.00    +0.000 C 
ENDBRANCH   8  13
ENDBRANCH   7  10
ENDBRANCH   1   7
BRANCH   3  14
ATOM     14  O   UNL     1       1.713   8.386  18.451  0.00  0.00    +0.000 OA
BRANCH  14  15
ATOM     15  C   UNL     1       1.413   8.805  19.717  0.00  0.00    +0.000 C 
ATOM     16  O   UNL     1       1.799   8.165  20.684  0.00  0.00    +0.000 OA
ATOM     17  N   UNL     1       0.738   9.983  19.899  0.00  0.00    +0.000 N 
ATOM     18  C   UNL     1       0.446  10.469  21.248  0.00  0.00    +0.000 C 
BRANCH  17  19
ATOM     19  C   UNL     1       0.333  10.745  18.711  0.00  0.00    +0.000 C 
ATOM     20  C   UNL     1      -1.081  10.442  18.207  0.00  0.00    +0.000 C 
ENDBRANCH  17  19
ENDBRANCH  14  15
ENDBRANCH   3  14
BRANCH   5  21
ATOM     21  C   UNL     1       5.875   6.698  16.356  0.00  0.00    +0.000 C 
BRANCH  21  22
ATOM     22  O   UNL     1       6.740   7.453  17.169  0.00  0.00    +0.000 OA
ATOM     23  H   UNL     1       6.716   8.394  16.860  0.00  0.00    +0.000 HD
ENDBRANCH  21  22
BRANCH  21  24
ATOM     24  C   UNL     1       6.529   5.371  15.902  0.00  0.00    +0.000 C 
BRANCH  24  25
ATOM     25  N   UNL     1       6.406   5.136  14.438  0.00  0.00    +0.000 NA
ATOM     26  C   UNL     1       7.711   5.249  13.739  0.00  0.00    +0.000 C 
ATOM     27  C   UNL     1       7.546   5.030  12.232  0.00  0.00    +0.000 C 
ATOM     28  C   UNL     1       6.958   3.647  11.975  0.00  0.00    +0.000 C 
ATOM     29  C   UNL     1       5.620   3.531  12.705  0.00  0.00    +0.000 C 
ATOM     30  C   UNL     1       5.817   3.794  14.206  0.00  0.00    +0.000 C 
ENDBRANCH  24  25
ENDBRANCH  21  24
ENDBRANCH   5  21
TORSDOF 10
ENDMDL
MODEL 7
REMARK VINA RESULT:      -6.9      1.761      7.583
REMARK  Name = 
REMARK  14 active torsions:
REMARK  status: ('A' for Active; 'I' for Inactive)
REMARK    1  A    between atoms: C_1  and  C_2
REMARK    2  A    between atoms: C_2  and  N_3
REMARK    3  A    between atoms: N_3  and  C_4
REMARK    4  A    between atoms: C_5  and  O_7
REMARK    5  A    between atoms: O_7  and  C_8
REMARK    6  A    between atoms: C_10  and  O_11
REMARK    7  A    between atoms: O_11  and  C_12
REMARK    8  A    between atoms: N_14  and  C_15
REMARK    9  A    between atoms: N_14  and  C_16
REMARK   10  A    between atoms: C_16  and  C_17
REMARK   11  A    between atoms: C_19  and  C_20
REMARK   12  A    between atoms: C_20  and  O_21
REMARK   13  A    between atoms: C_20  and  C_22
REMARK   14  A    between atoms: C_22  and  N_23
REMARK                            x       y       z     vdW  Elec       q    Type
REMARK                         _______ _______ _______ _____ _____    ______ ____
ROOT
ATOM      1  C   UNL     1       4.081   6.969  17.320  0.00  0.00    +0.000 A 
ATOM      2  C   UNL     1       3.431   5.872  17.907  0.00  0.00    +0.000 A 
ATOM      3  C   UNL     1       2.220   6.034  18.583  0.00  0.00    +0.000 A 
ATOM      4  C   UNL     1       1.683   7.327  18.718  0.00  0.00    +0.000 A 
ATOM      5  C   UNL     1       2.314   8.434  18.129  0.00  0.00    +0.000 A 
ATOM      6  C   UNL     1       3.507   8.241  17.411  0.00  0.00    +0.000 A 
ENDROOT
BRANCH   1   7
ATOM      7  O   UNL     1       5.235   6.822  16.624  0.00  0.00    +0.000 OA
BRANCH   7  10
ATOM      8  N   UNL     1       6.700   4.982  16.875  0.00  0.00    +0.000 N 
ATOM      9  C   UNL     1       7.928   4.432  17.436  0.00  0.00    +0.000 C 
ATOM     10  C   UNL     1       6.389   6.290  17.112  0.00  0.00    +0.000 C 
ATOM     11  O   UNL     1       7.147   6.992  17.773  0.00  0.00    +0.000 OA
BRANCH   8  13
ATOM     12  C   UNL     1       6.114   4.046  14.645  0.00  0.00    +0.000 C 
ATOM     13  C   UNL     1       5.783   4.115  16.136  0.00  0.00    +0.000 C 
ENDBRANCH   8  13
ENDBRANCH   7  10
ENDBRANCH   1   7
BRANCH   3  14
ATOM     14  O   UNL     1       1.606   4.919  19.064  0.00  0.00    +0.000 OA
BRANCH  14  15
ATOM     15  C   UNL     1       1.803   4.314  20.273  0.00  0.00    +0.000 C 
ATOM     16  O   UNL     1       1.869   4.986  21.292  0.00  0.00    +0.000 OA
ATOM     17  N   UNL     1       1.857   2.948  20.347  0.00  0.00    +0.000 N 
ATOM     18  C   UNL     1       2.025   2.281  21.640  0.00  0.00    +0.000 C 
BRANCH  17  19
ATOM     19  C   UNL     1       1.727   2.177  19.105  0.00  0.00    +0.000 C 
ATOM     20  C   UNL     1       3.056   1.783  18.453  0.00  0.00    +0.000 C 
ENDBRANCH  17  19
ENDBRANCH  14  15
ENDBRANCH   3  14
BRANCH   5  21
ATOM     21  C   UNL     1       1.685   9.808  18.257  0.00  0.00    +0.000 C 
BRANCH  21  22
ATOM     22  O   UNL     1       2.236  10.706  17.324  0.00  0.00    +0.000 OA
ATOM     23  H   UNL     1       3.016  10.271  16.896  0.00  0.00    +0.000 HD
ENDBRANCH  21  22
BRANCH  21  24
ATOM     24  C   UNL     1       0.143   9.739  18.142  0.00  0.00    +0.000 C 
BRANCH  24  25
ATOM     25  N   UNL     1      -0.552  10.291  19.337  0.00  0.00    +0.000 NA
ATOM     26  C   UNL     1       0.282  10.205  20.562  0.00  0.00    +0.000 C 
ATOM     27  C   UNL     1      -0.471  10.755  21.777  0.00  0.00    +0.000 C 
ATOM     28  C   UNL     1      -0.852  12.211  21.530  0.00  0.00    +0.000 C 
ATOM     29  C   UNL     1      -1.702  12.295  20.262  0.00  0.00    +0.000 C 
ATOM     30  C   UNL     1      -0.931  11.701  19.074  0.00  0.00    +0.000 C 
ENDBRANCH  24  25
ENDBRANCH  21  24
ENDBRANCH   5  21
TORSDOF 10
ENDMDL
MODEL 8
REMARK VINA RESULT:      -6.9      0.521      1.047
REMARK  Name = 
REMARK  14 active torsions:
REMARK  status: ('A' for Active; 'I' for Inactive)
REMARK    1  A    between atoms: C_1  and  C_2
REMARK    2  A    between atoms: C_2  and  N_3
REMARK    3  A    between atoms: N_3  and  C_4
REMARK    4  A    between atoms: C_5  and  O_7
REMARK    5  A    between atoms: O_7  and  C_8
REMARK    6  A    between atoms: C_10  and  O_11
REMARK    7  A    between atoms: O_11  and  C_12
REMARK    8  A    between atoms: N_14  and  C_15
REMARK    9  A    between atoms: N_14  and  C_16
REMARK   10  A    between atoms: C_16  and  C_17
REMARK   11  A    between atoms: C_19  and  C_20
REMARK   12  A    between atoms: C_20  and  O_21
REMARK   13  A    between atoms: C_20  and  C_22
REMARK   14  A    between atoms: C_22  and  N_23
REMARK                            x       y       z     vdW  Elec       q    Type
REMARK                         _______ _______ _______ _____ _____    ______ ____
ROOT
ATOM      1  C   UNL     1       3.675   5.311  19.150  0.00  0.00    +0.000 A 
ATOM      2  C   UNL     1       2.676   6.293  19.043  0.00  0.00    +0.000 A 
ATOM      3  C   UNL     1       2.801   7.347  18.137  0.00  0.00    +0.000 A 
ATOM      4  C   UNL     1       3.974   7.447  17.367  0.00  0.00    +0.000 A 
ATOM      5  C   UNL     1       4.978   6.470  17.453  0.00  0.00    +0.000 A 
ATOM      6  C   UNL     1       4.809   5.390  18.337  0.00  0.00    +0.000 A 
ENDROOT
BRANCH   1   7
ATOM      7  O   UNL     1       3.549   4.259  19.995  0.00  0.00    +0.000 OA
BRANCH   7  10
ATOM      8  N   UNL     1       3.327   2.215  18.823  0.00  0.00    +0.000 N 
ATOM      9  C   UNL     1       3.785   0.850  18.600  0.00  0.00    +0.000 C 
ATOM     10  C   UNL     1       3.973   2.990  19.745  0.00  0.00    +0.000 C 
ATOM     11  O   UNL     1       4.936   2.542  20.357  0.00  0.00    +0.000 OA
BRANCH   8  13
ATOM     12  C   UNL     1       0.847   2.403  18.873  0.00  0.00    +0.000 C 
ATOM     13  C   UNL     1       2.144   2.713  18.124  0.00  0.00    +0.000 C 
ENDBRANCH   8  13
ENDBRANCH   7  10
ENDBRANCH   1   7
BRANCH   3  14
ATOM     14  O   UNL     1       1.764   8.222  18.031  0.00  0.00    +0.000 OA
BRANCH  14  15
ATOM     15  C   UNL     1       1.776   9.564  18.286  0.00  0.00    +0.000 C 
ATOM     16  O   UNL     1       2.309  10.334  17.498  0.00  0.00    +0.000 OA
ATOM     17  N   UNL     1       1.130  10.052  19.390  0.00  0.00    +0.000 N 
ATOM     18  C   UNL     1       1.096  11.491  19.654  0.00  0.00    +0.000 C 
BRANCH  17  19
ATOM     19  C   UNL     1       0.464   9.098  20.285  0.00  0.00    +0.000 C 
ATOM     20  C   UNL     1       1.234   8.780  21.570  0.00  0.00    +0.000 C 
ENDBRANCH  17  19
ENDBRANCH  14  15
ENDBRANCH   3  14
BRANCH   5  21
ATOM     21  C   UNL     1       6.210   6.585  16.575  0.00  0.00    +0.000 C 
BRANCH  21  22
ATOM     22  O   UNL     1       6.974   7.714  16.920  0.00  0.00    +0.000 OA
ATOM     23  H   UNL     1       6.435   8.282  17.528  0.00  0.00    +0.000 HD
ENDBRANCH  21  22
BRANCH  21  24
ATOM     24  C   UNL     1       7.055   5.289  16.612  0.00  0.00    +0.000 C 
BRANCH  24  25
ATOM     25  N   UNL     1       7.189   4.646  15.276  0.00  0.00    +0.000 NA
ATOM     26  C   UNL     1       5.917   4.030  14.819  0.00  0.00    +0.000 C 
ATOM     27  C   UNL     1       6.096   3.354  13.457  0.00  0.00    +0.000 C 
ATOM     28  C   UNL     1       6.553   4.382  12.428  0.00  0.00    +0.000 C 
ATOM     29  C   UNL     1       7.856   5.022  12.908  0.00  0.00    +0.000 C 
ATOM     30  C   UNL     1       7.650   5.655  14.292  0.00  0.00    +0.000 C 
ENDBRANCH  24  25
ENDBRANCH  21  24
ENDBRANCH   5  21
TORSDOF 10
ENDMDL
MODEL 9
REMARK VINA RESULT:      -6.9      2.151      7.510
REMARK  Name = 
REMARK  14 active torsions:
REMARK  status: ('A' for Active; 'I' for Inactive)
REMARK    1  A    between atoms: C_1  and  C_2
REMARK    2  A    between atoms: C_2  and  N_3
REMARK    3  A    between atoms: N_3  and  C_4
REMARK    4  A    between atoms: C_5  and  O_7
REMARK    5  A    between atoms: O_7  and  C_8
REMARK    6  A    between atoms: C_10  and  O_11
REMARK    7  A    between atoms: O_11  and  C_12
REMARK    8  A    between atoms: N_14  and  C_15
REMARK    9  A    between atoms: N_14  and  C_16
REMARK   10  A    between atoms: C_16  and  C_17
REMARK   11  A    between atoms: C_19  and  C_20
REMARK   12  A    between atoms: C_20  and  O_21
REMARK   13  A    between atoms: C_20  and  C_22
REMARK   14  A    between atoms: C_22  and  N_23
REMARK                            x       y       z     vdW  Elec       q    Type
REMARK                         _______ _______ _______ _____ _____    ______ ____
ROOT
ATOM      1  C   UNL     1       2.741   6.418  19.436  0.00  0.00    +0.000 A 
ATOM      2  C   UNL     1       3.622   6.187  18.367  0.00  0.00    +0.000 A 
ATOM      3  C   UNL     1       3.832   7.160  17.388  0.00  0.00    +0.000 A 
ATOM      4  C   UNL     1       3.103   8.361  17.454  0.00  0.00    +0.000 A 
ATOM      5  C   UNL     1       2.225   8.613  18.520  0.00  0.00    +0.000 A 
ATOM      6  C   UNL     1       2.066   7.639  19.522  0.00  0.00    +0.000 A 
ENDROOT
BRANCH   1   7
ATOM      7  O   UNL     1       2.557   5.500  20.416  0.00  0.00    +0.000 OA
BRANCH   7  10
ATOM      8  N   UNL     1       2.297   3.170  20.100  0.00  0.00    +0.000 N 
ATOM      9  C   UNL     1       1.411   2.018  19.984  0.00  0.00    +0.000 C 
ATOM     10  C   UNL     1       1.757   4.403  20.332  0.00  0.00    +0.000 C 
ATOM     11  O   UNL     1       0.544   4.528  20.460  0.00  0.00    +0.000 OA
BRANCH   8  13
ATOM     12  C   UNL     1       4.079   2.646  18.444  0.00  0.00    +0.000 C 
ATOM     13  C   UNL     1       3.735   3.010  19.890  0.00  0.00    +0.000 C 
ENDBRANCH   8  13
ENDBRANCH   7  10
ENDBRANCH   1   7
BRANCH   3  14
ATOM     14  O   UNL     1       4.754   6.901  16.421  0.00  0.00    +0.000 OA
BRANCH  14  15
ATOM     15  C   UNL     1       5.422   5.730  16.198  0.00  0.00    +0.000 C 
ATOM     16  O   UNL     1       4.907   4.848  15.526  0.00  0.00    +0.000 OA
ATOM     17  N   UNL     1       6.699   5.576  16.670  0.00  0.00    +0.000 N 
ATOM     18  C   UNL     1       7.445   4.346  16.403  0.00  0.00    +0.000 C 
BRANCH  17  19
ATOM     19  C   UNL     1       7.297   6.679  17.432  0.00  0.00    +0.000 C 
ATOM     20  C   UNL     1       7.825   6.288  18.816  0.00  0.00    +0.000 C 
ENDBRANCH  17  19
ENDBRANCH  14  15
ENDBRANCH   3  14
BRANCH   5  21
ATOM     21  C   UNL     1       1.489   9.937  18.585  0.00  0.00    +0.000 C 
BRANCH  21  22
ATOM     22  O   UNL     1       1.917  10.805  17.564  0.00  0.00    +0.000 OA
ATOM     23  H   UNL     1       1.339  10.663  16.771  0.00  0.00    +0.000 HD
ENDBRANCH  21  22
BRANCH  21  24
ATOM     24  C   UNL     1      -0.046   9.734  18.558  0.00  0.00    +0.000 C 
BRANCH  24  25
ATOM     25  N   UNL     1      -0.731  10.340  19.732  0.00  0.00    +0.000 NA
ATOM     26  C   UNL     1       0.169  10.461  20.907  0.00  0.00    +0.000 C 
ATOM     27  C   UNL     1      -0.573  11.061  22.105  0.00  0.00    +0.000 C 
ATOM     28  C   UNL     1      -1.109  12.441  21.739  0.00  0.00    +0.000 C 
ATOM     29  C   UNL     1      -2.026  12.313  20.523  0.00  0.00    +0.000 C 
ATOM     30  C   UNL     1      -1.261  11.673  19.355  0.00  0.00    +0.000 C 
ENDBRANCH  24  25
ENDBRANCH  21  24
ENDBRANCH   5  21
TORSDOF 10
ENDMDL
