MODEL 1
REMARK VINA RESULT:      -7.6      0.000      0.000
REMARK  Name = 
REMARK  2 active torsions:
REMARK  status: ('A' for Active; 'I' for Inactive)
REMARK    1  A    between atoms: C_1  and  C_2
REMARK    2  A    between atoms: C_4  and  C_5
REMARK                            x       y       z     vdW  Elec       q    Type
REMARK                         _______ _______ _______ _____ _____    ______ ____
ROOT
ATOM      1  C   UNL     1       6.589   5.405  19.436  0.00  0.00    +0.000 C 
ATOM      2  C   UNL     1       5.819   4.857  18.265  0.00  0.00    +0.000 A 
ATOM      3  C   UNL     1       6.365   4.978  16.982  0.00  0.00    +0.000 A 
ATOM      4  C   UNL     1       5.687   4.450  15.888  0.00  0.00    +0.000 A 
ATOM      5  N   UNL     1       4.479   3.851  16.025  0.00  0.00    +0.000 NA
ATOM      6  C   UNL     1       3.944   3.725  17.249  0.00  0.00    +0.000 A 
ATOM      7  C   UNL     1       2.723   3.071  17.367  0.00  0.00    +0.000 A 
ATOM      8  C   UNL     1       2.105   2.874  18.606  0.00  0.00    +0.000 A 
ATOM      9  C   UNL     1       2.717   3.355  19.753  0.00  0.00    +0.000 A 
ATOM     10 BR   UNL     1       1.903   3.093  21.438  0.00  0.00    +0.000 Br
ATOM     11  C   UNL     1       3.938   4.021  19.668  0.00  0.00    +0.000 A 
ATOM     12  C   UNL     1       4.571   4.211  18.417  0.00  0.00    +0.000 A 
ENDROOT
BRANCH   4  13
ATOM     13  C   UNL     1       6.242   4.462  14.526  0.00  0.00    +0.000 A 
ATOM     14  C   UNL     1       5.763   3.614  13.518  0.00  0.00    +0.000 A 
ATOM     15  C   UNL     1       6.336   3.625  12.246  0.00  0.00    +0.000 A 
ATOM     16  C   UNL     1       7.387   4.493  12.006  0.00  0.00    +0.000 A 
ATOM     17  N   UNL     1       7.885   5.333  12.935  0.00  0.00    +0.000 NA
ATOM     18  C   UNL     1       7.308   5.290  14.162  0.00  0.00    +0.000 A 
ENDBRANCH   4  13
TORSDOF 1
ENDMDL
MODEL 2
REMARK VINA RESULT:      -7.6      3.150      6.438
REMARK  Name = 
REMARK  2 active torsions:
REMARK  status: ('A' for Active; 'I' for Inactive)
REMARK    1  A    between atoms: C_1  and  C_2
REMARK    2  A    between atoms: C_4  and  C_5
REMARK                            x       y       z     vdW  Elec       q    Type
REMARK                         _______ _______ _______ _____ _____    ______ ____
ROOT
ATOM      1  C   UNL     1       7.673   6.068  18.638  0.00  0.00    +0.000 C 
ATOM      2  C   UNL     1       6.504   5.228  18.198  0.00  0.00    +0.000 A 
ATOM      3  C   UNL     1       5.575   4.810  19.157  0.00  0.00    +0.000 A 
ATOM      4  C   UNL     1       4.469   4.061  18.770  0.00  0.00    +0.000 A 
ATOM      5  N   UNL     1       4.284   3.685  17.481  0.00  0.00    +0.000 NA
ATOM      6  C   UNL     1       5.165   4.081  16.549  0.00  0.00    +0.000 A 
ATOM      7  C   UNL     1       4.932   3.716  15.228  0.00  0.00    +0.000 A 
ATOM      8  C   UNL     1       5.785   4.105  14.191  0.00  0.00    +0.000 A 
ATOM      9  C   UNL     1       6.905   4.867  14.483  0.00  0.00    +0.000 A 
ATOM     10 BR   UNL     1       8.067   5.409  13.095  0.00  0.00    +0.000 Br
ATOM     11  C   UNL     1       7.171   5.243  15.799  0.00  0.00    +0.000 A 
ATOM     12  C   UNL     1       6.304   4.861  16.849  0.00  0.00    +0.000 A 
ENDROOT
BRANCH   4  13
ATOM     13  C   UNL     1       3.408   3.663  19.708  0.00  0.00    +0.000 A 
ATOM     14  C   UNL     1       2.089   4.119  19.579  0.00  0.00    +0.000 A 
ATOM     15  C   UNL     1       1.114   3.752  20.507  0.00  0.00    +0.000 A 
ATOM     16  C   UNL     1       1.483   2.929  21.557  0.00  0.00    +0.000 A 
ATOM     17  N   UNL     1       2.734   2.458  21.728  0.00  0.00    +0.000 NA
ATOM     18  C   UNL     1       3.657   2.841  20.810  0.00  0.00    +0.000 A 
ENDBRANCH   4  13
TORSDOF 1
ENDMDL
MODEL 3
REMARK VINA RESULT:      -7.5      1.293      1.410
REMARK  Name = 
REMARK  2 active torsions:
REMARK  status: ('A' for Active; 'I' for Inactive)
REMARK    1  A    between atoms: C_1  and  C_2
REMARK    2  A    between atoms: C_4  and  C_5
REMARK                            x       y       z     vdW  Elec       q    Type
REMARK                         _______ _______ _______ _____ _____    ______ ____
ROOT
ATOM      1  C   UNL     1       3.279   7.065  18.290  0.00  0.00    +0.000 C 
ATOM      2  C   UNL     1       3.745   5.780  17.659  0.00  0.00    +0.000 A 
ATOM      3  C   UNL     1       4.525   5.843  16.499  0.00  0.00    +0.000 A 
ATOM      4  C   UNL     1       4.994   4.670  15.916  0.00  0.00    +0.000 A 
ATOM      5  N   UNL     1       4.681   3.453  16.424  0.00  0.00    +0.000 NA
ATOM      6  C   UNL     1       3.938   3.377  17.537  0.00  0.00    +0.000 A 
ATOM      7  C   UNL     1       3.663   2.118  18.060  0.00  0.00    +0.000 A 
ATOM      8  C   UNL     1       2.916   1.948  19.230  0.00  0.00    +0.000 A 
ATOM      9  C   UNL     1       2.420   3.064  19.886  0.00  0.00    +0.000 A 
ATOM     10 BR   UNL     1       1.414   2.857  21.472  0.00  0.00    +0.000 Br
ATOM     11  C   UNL     1       2.670   4.340  19.383  0.00  0.00    +0.000 A 
ATOM     12  C   UNL     1       3.436   4.515  18.207  0.00  0.00    +0.000 A 
ENDROOT
BRANCH   4  13
ATOM     13  C   UNL     1       5.890   4.664  14.750  0.00  0.00    +0.000 A 
ATOM     14  C   UNL     1       5.646   3.862  13.626  0.00  0.00    +0.000 A 
ATOM     15  C   UNL     1       6.535   3.852  12.551  0.00  0.00    +0.000 A 
ATOM     16  C   UNL     1       7.662   4.653  12.623  0.00  0.00    +0.000 A 
ATOM     17  N   UNL     1       7.944   5.446  13.675  0.00  0.00    +0.000 NA
ATOM     18  C   UNL     1       7.062   5.425  14.705  0.00  0.00    +0.000 A 
ENDBRANCH   4  13
TORSDOF 1
ENDMDL
MODEL 4
REMARK VINA RESULT:      -7.2      0.701      1.147
REMARK  Name = 
REMARK  2 active torsions:
REMARK  status: ('A' for Active; 'I' for Inactive)
REMARK    1  A    between atoms: C_1  and  C_2
REMARK    2  A    between atoms: C_4  and  C_5
REMARK                            x       y       z     vdW  Elec       q    Type
REMARK                         _______ _______ _______ _____ _____    ______ ____
ROOT
ATOM      1  C   UNL     1       6.822   5.466  19.339  0.00  0.00    +0.000 C 
ATOM      2  C   UNL     1       6.016   4.928  18.186  0.00  0.00    +0.000 A 
ATOM      3  C   UNL     1       6.555   4.995  16.897  0.00  0.00    +0.000 A 
ATOM      4  C   UNL     1       5.844   4.475  15.821  0.00  0.00    +0.000 A 
ATOM      5  N   UNL     1       4.612   3.935  15.981  0.00  0.00    +0.000 NA
ATOM      6  C   UNL     1       4.083   3.860  17.212  0.00  0.00    +0.000 A 
ATOM      7  C   UNL     1       2.835   3.265  17.356  0.00  0.00    +0.000 A 
ATOM      8  C   UNL     1       2.220   3.125  18.604  0.00  0.00    +0.000 A 
ATOM      9  C   UNL     1       2.864   3.602  19.734  0.00  0.00    +0.000 A 
ATOM     10 BR   UNL     1       2.055   3.416  21.432  0.00  0.00    +0.000 Br
ATOM     11  C   UNL     1       4.113   4.210  19.624  0.00  0.00    +0.000 A 
ATOM     12  C   UNL     1       4.743   4.343  18.364  0.00  0.00    +0.000 A 
ENDROOT
BRANCH   4  13
ATOM     13  C   UNL     1       6.386   4.432  14.454  0.00  0.00    +0.000 A 
ATOM     14  C   UNL     1       7.434   5.266  14.041  0.00  0.00    +0.000 A 
ATOM     15  C   UNL     1       7.901   5.225  12.726  0.00  0.00    +0.000 A 
ATOM     16  C   UNL     1       7.304   4.342  11.844  0.00  0.00    +0.000 A 
ATOM     17  N   UNL     1       6.298   3.514  12.187  0.00  0.00    +0.000 NA
ATOM     18  C   UNL     1       5.865   3.586  13.471  0.00  0.00    +0.000 A 
ENDBRANCH   4  13
TORSDOF 1
ENDMDL
MODEL 5
REMARK VINA RESULT:      -7.2      3.167      6.412
REMARK  Name = 
REMARK  2 active torsions:
REMARK  status: ('A' for Active; 'I' for Inactive)
REMARK    1  A    between atoms: C_1  and  C_2
REMARK    2  A    between atoms: C_4  and  C_5
REMARK                            x       y       z     vdW  Elec       q    Type
REMARK                         _______ _______ _______ _____ _____    ______ ____
ROOT
ATOM      1  C   UNL     1       7.693   6.365  18.402  0.00  0.00    +0.000 C 
ATOM      2  C   UNL     1       6.538   5.482  18.012  0.00  0.00    +0.000 A 
ATOM      3  C   UNL     1       5.611   5.110  18.992  0.00  0.00    +0.000 A 
ATOM      4  C   UNL     1       4.517   4.323  18.649  0.00  0.00    +0.000 A 
ATOM      5  N   UNL     1       4.343   3.866  17.385  0.00  0.00    +0.000 NA
ATOM      6  C   UNL     1       5.221   4.216  16.433  0.00  0.00    +0.000 A 
ATOM      7  C   UNL     1       4.998   3.767  15.136  0.00  0.00    +0.000 A 
ATOM      8  C   UNL     1       5.849   4.104  14.079  0.00  0.00    +0.000 A 
ATOM      9  C   UNL     1       6.957   4.898  14.327  0.00  0.00    +0.000 A 
ATOM     10 BR   UNL     1       8.116   5.371  12.912  0.00  0.00    +0.000 Br
ATOM     11  C   UNL     1       7.214   5.358  15.618  0.00  0.00    +0.000 A 
ATOM     12  C   UNL     1       6.348   5.029  16.687  0.00  0.00    +0.000 A 
ENDROOT
BRANCH   4  13
ATOM     13  C   UNL     1       3.459   3.968  19.607  0.00  0.00    +0.000 A 
ATOM     14  C   UNL     1       3.558   2.851  20.448  0.00  0.00    +0.000 A 
ATOM     15  C   UNL     1       2.519   2.522  21.320  0.00  0.00    +0.000 A 
ATOM     16  C   UNL     1       1.393   3.326  21.333  0.00  0.00    +0.000 A 
ATOM     17  N   UNL     1       1.246   4.414  20.551  0.00  0.00    +0.000 NA
ATOM     18  C   UNL     1       2.272   4.699  19.711  0.00  0.00    +0.000 A 
ENDBRANCH   4  13
TORSDOF 1
ENDMDL
MODEL 6
REMARK VINA RESULT:      -7.1      3.363      3.964
REMARK  Name = 
REMARK  2 active torsions:
REMARK  status: ('A' for Active; 'I' for Inactive)
REMARK    1  A    between atoms: C_1  and  C_2
REMARK    2  A    between atoms: C_4  and  C_5
REMARK                            x       y       z     vdW  Elec       q    Type
REMARK                         _______ _______ _______ _____ _____    ______ ____
ROOT
ATOM      1  C   UNL     1       2.761   4.531  20.776  0.00  0.00    +0.000 C 
ATOM      2  C   UNL     1       3.127   5.453  19.644  0.00  0.00    +0.000 A 
ATOM      3  C   UNL     1       4.055   5.016  18.692  0.00  0.00    +0.000 A 
ATOM      4  C   UNL     1       4.384   5.838  17.618  0.00  0.00    +0.000 A 
ATOM      5  N   UNL     1       3.856   7.079  17.488  0.00  0.00    +0.000 NA
ATOM      6  C   UNL     1       2.962   7.510  18.391  0.00  0.00    +0.000 A 
ATOM      7  C   UNL     1       2.405   8.771  18.213  0.00  0.00    +0.000 A 
ATOM      8  C   UNL     1       1.449   9.290  19.092  0.00  0.00    +0.000 A 
ATOM      9  C   UNL     1       1.050   8.533  20.183  0.00  0.00    +0.000 A 
ATOM     10 BR   UNL     1      -0.245   9.212  21.379  0.00  0.00    +0.000 Br
ATOM     11  C   UNL     1       1.596   7.268  20.394  0.00  0.00    +0.000 A 
ATOM     12  C   UNL     1       2.554   6.736  19.500  0.00  0.00    +0.000 A 
ENDROOT
BRANCH   4  13
ATOM     13  C   UNL     1       5.283   5.410  16.535  0.00  0.00    +0.000 A 
ATOM     14  C   UNL     1       4.926   4.407  15.622  0.00  0.00    +0.000 A 
ATOM     15  C   UNL     1       5.817   4.000  14.628  0.00  0.00    +0.000 A 
ATOM     16  C   UNL     1       7.058   4.609  14.567  0.00  0.00    +0.000 A 
ATOM     17  N   UNL     1       7.452   5.580  15.414  0.00  0.00    +0.000 NA
ATOM     18  C   UNL     1       6.563   5.946  16.372  0.00  0.00    +0.000 A 
ENDBRANCH   4  13
TORSDOF 1
ENDMDL
MODEL 7
REMARK VINA RESULT:      -7.1      5.418      7.983
REMARK  Name = 
REMARK  2 active torsions:
REMARK  status: ('A' for Active; 'I' for Inactive)
REMARK    1  A    between atoms: C_1  and  C_2
REMARK    2  A    between atoms: C_4  and  C_5
REMARK                            x       y       z     vdW  Elec       q    Type
REMARK                         _______ _______ _______ _____ _____    ______ ____
ROOT
ATOM      1  C   UNL     1       3.566   7.217  17.425  0.00  0.00    +0.000 C 
ATOM      2  C   UNL     1       2.766   6.972  18.676  0.00  0.00    +0.000 A 
ATOM      3  C   UNL     1       2.185   8.064  19.331  0.00  0.00    +0.000 A 
ATOM      4  C   UNL     1       1.414   7.859  20.470  0.00  0.00    +0.000 A 
ATOM      5  N   UNL     1       1.239   6.621  20.993  0.00  0.00    +0.000 NA
ATOM      6  C   UNL     1       1.787   5.564  20.375  0.00  0.00    +0.000 A 
ATOM      7  C   UNL     1       1.560   4.301  20.909  0.00  0.00    +0.000 A 
ATOM      8  C   UNL     1       2.072   3.143  20.317  0.00  0.00    +0.000 A 
ATOM      9  C   UNL     1       2.841   3.252  19.169  0.00  0.00    +0.000 A 
ATOM     10 BR   UNL     1       3.537   1.699  18.348  0.00  0.00    +0.000 Br
ATOM     11  C   UNL     1       3.094   4.504  18.612  0.00  0.00    +0.000 A 
ATOM     12  C   UNL     1       2.567   5.676  19.203  0.00  0.00    +0.000 A 
ENDROOT
BRANCH   4  13
ATOM     13  C   UNL     1       0.703   8.948  21.157  0.00  0.00    +0.000 A 
ATOM     14  C   UNL     1      -0.036   9.914  20.458  0.00  0.00    +0.000 A 
ATOM     15  C   UNL     1      -0.669  10.955  21.137  0.00  0.00    +0.000 A 
ATOM     16  C   UNL     1      -0.549  11.010  22.515  0.00  0.00    +0.000 A 
ATOM     17  N   UNL     1       0.143  10.107  23.238  0.00  0.00    +0.000 NA
ATOM     18  C   UNL     1       0.752   9.113  22.544  0.00  0.00    +0.000 A 
ENDBRANCH   4  13
TORSDOF 1
ENDMDL
MODEL 8
REMARK VINA RESULT:      -7.0      5.587      8.368
REMARK  Name = 
REMARK  2 active torsions:
REMARK  status: ('A' for Active; 'I' for Inactive)
REMARK    1  A    between atoms: C_1  and  C_2
REMARK    2  A    between atoms: C_4  and  C_5
REMARK                            x       y       z     vdW  Elec       q    Type
REMARK                         _______ _______ _______ _____ _____    ______ ____
ROOT
ATOM      1  C   UNL     1       1.772   4.235  20.963  0.00  0.00    +0.000 C 
ATOM      2  C   UNL     1       1.853   5.637  20.422  0.00  0.00    +0.000 A 
ATOM      3  C   UNL     1       1.176   6.660  21.095  0.00  0.00    +0.000 A 
ATOM      4  C   UNL     1       1.263   7.969  20.634  0.00  0.00    +0.000 A 
ATOM      5  N   UNL     1       1.961   8.280  19.515  0.00  0.00    +0.000 NA
ATOM      6  C   UNL     1       2.619   7.311  18.860  0.00  0.00    +0.000 A 
ATOM      7  C   UNL     1       3.360   7.662  17.738  0.00  0.00    +0.000 A 
ATOM      8  C   UNL     1       4.095   6.721  17.011  0.00  0.00    +0.000 A 
ATOM      9  C   UNL     1       4.077   5.393  17.408  0.00  0.00    +0.000 A 
ATOM     10 BR   UNL     1       5.068   4.106  16.443  0.00  0.00    +0.000 Br
ATOM     11  C   UNL     1       3.337   5.007  18.524  0.00  0.00    +0.000 A 
ATOM     12  C   UNL     1       2.603   5.959  19.269  0.00  0.00    +0.000 A 
ENDROOT
BRANCH   4  13
ATOM     13  C   UNL     1       0.651   9.105  21.340  0.00  0.00    +0.000 A 
ATOM     14  C   UNL     1      -0.214   8.928  22.429  0.00  0.00    +0.000 A 
ATOM     15  C   UNL     1      -0.807  10.025  23.054  0.00  0.00    +0.000 A 
ATOM     16  C   UNL     1      -0.519  11.290  22.572  0.00  0.00    +0.000 A 
ATOM     17  N   UNL     1       0.309  11.520  21.534  0.00  0.00    +0.000 NA
ATOM     18  C   UNL     1       0.861  10.429  20.946  0.00  0.00    +0.000 A 
ENDBRANCH   4  13
TORSDOF 1
ENDMDL
MODEL 9
REMARK VINA RESULT:      -7.0      4.080      4.746
REMARK  Name = 
REMARK  2 active torsions:
REMARK  status: ('A' for Active; 'I' for Inactive)
REMARK    1  A    between atoms: C_1  and  C_2
REMARK    2  A    between atoms: C_4  and  C_5
REMARK                            x       y       z     vdW  Elec       q    Type
REMARK                         _______ _______ _______ _____ _____    ______ ____
ROOT
ATOM      1  C   UNL     1       1.872   5.510  20.909  0.00  0.00    +0.000 C 
ATOM      2  C   UNL     1       2.410   6.243  19.710  0.00  0.00    +0.000 A 
ATOM      3  C   UNL     1       3.301   5.580  18.858  0.00  0.00    +0.000 A 
ATOM      4  C   UNL     1       3.786   6.226  17.725  0.00  0.00    +0.000 A 
ATOM      5  N   UNL     1       3.449   7.507  17.441  0.00  0.00    +0.000 NA
ATOM      6  C   UNL     1       2.593   8.155  18.247  0.00  0.00    +0.000 A 
ATOM      7  C   UNL     1       2.232   9.455  17.912  0.00  0.00    +0.000 A 
ATOM      8  C   UNL     1       1.329  10.194  18.682  0.00  0.00    +0.000 A 
ATOM      9  C   UNL     1       0.784   9.624  19.822  0.00  0.00    +0.000 A 
ATOM     10 BR   UNL     1      -0.444  10.603  20.872  0.00  0.00    +0.000 Br
ATOM     11  C   UNL     1       1.131   8.325  20.189  0.00  0.00    +0.000 A 
ATOM     12  C   UNL     1       2.035   7.571  19.406  0.00  0.00    +0.000 A 
ENDROOT
BRANCH   4  13
ATOM     13  C   UNL     1       4.654   5.561  16.740  0.00  0.00    +0.000 A 
ATOM     14  C   UNL     1       4.888   4.179  16.765  0.00  0.00    +0.000 A 
ATOM     15  C   UNL     1       5.745   3.586  15.838  0.00  0.00    +0.000 A 
ATOM     16  C   UNL     1       6.356   4.395  14.896  0.00  0.00    +0.000 A 
ATOM     17  N   UNL     1       6.164   5.726  14.822  0.00  0.00    +0.000 NA
ATOM     18  C   UNL     1       5.330   6.270  15.743  0.00  0.00    +0.000 A 
ENDBRANCH   4  13
TORSDOF 1
ENDMDL
