MODEL 1
REMARK VINA RESULT:      -7.9      0.000      0.000
REMARK  Name = 
REMARK  8 active torsions:
REMARK  status: ('A' for Active; 'I' for Inactive)
REMARK    1  A    between atoms: C_1  and  C_2
REMARK    2  A    between atoms: C_2  and  C_3
REMARK    3  A    between atoms: C_2  and  C_4
REMARK    4  A    between atoms: C_9  and  O_10
REMARK    5  A    between atoms: O_10  and  C_11
REMARK    6  A    between atoms: C_11  and  C_12
REMARK    7  A    between atoms: C_16  and  C_17
REMARK    8  A    between atoms: C_17  and  O_19
REMARK                            x       y       z     vdW  Elec       q    Type
REMARK                         _______ _______ _______ _____ _____    ______ ____
ROOT
ATOM      1  C   UNL     1       3.667   3.192  17.717  0.00  0.00    +0.000 C 
ENDROOT
BRANCH   1   2
ATOM      2  C   UNL     1       4.911   4.012  17.461  0.00  0.00    +0.000 A 
ATOM      3  C   UNL     1       5.386   4.129  16.144  0.00  0.00    +0.000 A 
ATOM      4  C   UNL     1       6.595   4.768  15.874  0.00  0.00    +0.000 A 
ATOM      5  C   UNL     1       7.344   5.300  16.921  0.00  0.00    +0.000 A 
ATOM      6  C   UNL     1       6.880   5.205  18.239  0.00  0.00    +0.000 A 
ATOM      7  C   UNL     1       5.673   4.545  18.509  0.00  0.00    +0.000 A 
BRANCH   6   8
ATOM      8  C   UNL     1       7.740   5.749  19.320  0.00  0.00    +0.000 C 
ATOM      9  O   UNL     1       7.868   5.200  20.401  0.00  0.00    +0.000 OA
BRANCH   8  10
ATOM     10  O   UNL     1       8.394   6.881  18.986  0.00  0.00    +0.000 OA
ATOM     11  H   UNL     1       7.966   7.416  18.293  0.00  0.00    +0.000 HD
ENDBRANCH   8  10
ENDBRANCH   6   8
ENDBRANCH   1   2
BRANCH   1  12
ATOM     12  O   UNL     1       2.477   3.967  17.626  0.00  0.00    +0.000 OA
BRANCH  12  18
ATOM     13  C   UNL     1       1.803   4.861  19.877  0.00  0.00    +0.000 A 
ATOM     14  C   UNL     1       1.677   6.060  20.621  0.00  0.00    +0.000 A 
ATOM     15  C   UNL     1       1.987   7.306  20.078  0.00  0.00    +0.000 A 
ATOM     16  C   UNL     1       2.421   7.390  18.765  0.00  0.00    +0.000 A 
ATOM     17  C   UNL     1       2.557   6.228  18.010  0.00  0.00    +0.000 A 
ATOM     18  C   UNL     1       2.278   4.959  18.553  0.00  0.00    +0.000 A 
BRANCH  13  20
ATOM     19  C   UNL     1       0.630   2.632  19.640  0.00  0.00    +0.000 C 
ATOM     20  C   UNL     1       1.393   3.571  20.583  0.00  0.00    +0.000 C 
ATOM     21  C   UNL     1       2.574   2.849  21.237  0.00  0.00    +0.000 C 
ENDBRANCH  13  20
ENDBRANCH  12  18
ENDBRANCH   1  12
TORSDOF 6
ENDMDL
MODEL 2
REMARK VINA RESULT:      -7.6      1.895      6.100
REMARK  Name = 
REMARK  8 active torsions:
REMARK  status: ('A' for Active; 'I' for Inactive)
REMARK    1  A    between atoms: C_1  and  C_2
REMARK    2  A    between atoms: C_2  and  C_3
REMARK    3  A    between atoms: C_2  and  C_4
REMARK    4  A    between atoms: C_9  and  O_10
REMARK    5  A    between atoms: O_10  and  C_11
REMARK    6  A    between atoms: C_11  and  C_12
REMARK    7  A    between atoms: C_16  and  C_17
REMARK    8  A    between atoms: C_17  and  O_19
REMARK                            x       y       z     vdW  Elec       q    Type
REMARK                         _______ _______ _______ _____ _____    ______ ____
ROOT
ATOM      1  C   UNL     1       3.406   7.022  17.272  0.00  0.00    +0.000 C 
ENDROOT
BRANCH   1   2
ATOM      2  C   UNL     1       2.691   6.109  18.243  0.00  0.00    +0.000 A 
ATOM      3  C   UNL     1       2.549   6.520  19.579  0.00  0.00    +0.000 A 
ATOM      4  C   UNL     1       2.010   5.662  20.536  0.00  0.00    +0.000 A 
ATOM      5  C   UNL     1       1.605   4.382  20.168  0.00  0.00    +0.000 A 
ATOM      6  C   UNL     1       1.727   3.960  18.837  0.00  0.00    +0.000 A 
ATOM      7  C   UNL     1       2.286   4.817  17.880  0.00  0.00    +0.000 A 
BRANCH   6   8
ATOM      8  C   UNL     1       1.321   2.569  18.509  0.00  0.00    +0.000 C 
ATOM      9  O   UNL     1       0.195   2.147  18.706  0.00  0.00    +0.000 OA
BRANCH   8  10
ATOM     10  O   UNL     1       2.297   1.831  17.940  0.00  0.00    +0.000 OA
ATOM     11  H   UNL     1       2.547   2.102  17.038  0.00  0.00    +0.000 HD
ENDBRANCH   8  10
ENDBRANCH   6   8
ENDBRANCH   1   2
BRANCH   1  12
ATOM     12  O   UNL     1       4.814   7.036  17.474  0.00  0.00    +0.000 OA
BRANCH  12  18
ATOM     13  C   UNL     1       6.830   5.589  17.072  0.00  0.00    +0.000 A 
ATOM     14  C   UNL     1       7.417   4.713  16.126  0.00  0.00    +0.000 A 
ATOM     15  C   UNL     1       6.809   4.425  14.904  0.00  0.00    +0.000 A 
ATOM     16  C   UNL     1       5.598   5.018  14.587  0.00  0.00    +0.000 A 
ATOM     17  C   UNL     1       4.995   5.881  15.499  0.00  0.00    +0.000 A 
ATOM     18  C   UNL     1       5.581   6.158  16.749  0.00  0.00    +0.000 A 
BRANCH  13  20
ATOM     19  C   UNL     1       8.100   7.300  18.435  0.00  0.00    +0.000 C 
ATOM     20  C   UNL     1       7.622   5.845  18.351  0.00  0.00    +0.000 C 
ATOM     21  C   UNL     1       6.856   5.447  19.616  0.00  0.00    +0.000 C 
ENDBRANCH  13  20
ENDBRANCH  12  18
ENDBRANCH   1  12
TORSDOF 6
ENDMDL
MODEL 3
REMARK VINA RESULT:      -7.6      1.997      3.627
REMARK  Name = 
REMARK  8 active torsions:
REMARK  status: ('A' for Active; 'I' for Inactive)
REMARK    1  A    between atoms: C_1  and  C_2
REMARK    2  A    between atoms: C_2  and  C_3
REMARK    3  A    between atoms: C_2  and  C_4
REMARK    4  A    between atoms: C_9  and  O_10
REMARK    5  A    between atoms: O_10  and  C_11
REMARK    6  A    between atoms: C_11  and  C_12
REMARK    7  A    between atoms: C_16  and  C_17
REMARK    8  A    between atoms: C_17  and  O_19
REMARK                            x       y       z     vdW  Elec       q    Type
REMARK                         _______ _______ _______ _____ _____    ______ ____
ROOT
ATOM      1  C   UNL     1       3.362   3.121  17.360  0.00  0.00    +0.000 C 
ENDROOT
BRANCH   1   2
ATOM      2  C   UNL     1       4.760   3.643  17.116  0.00  0.00    +0.000 A 
ATOM      3  C   UNL     1       5.532   4.053  18.216  0.00  0.00    +0.000 A 
ATOM      4  C   UNL     1       6.775   4.656  18.032  0.00  0.00    +0.000 A 
ATOM      5  C   UNL     1       7.262   4.855  16.742  0.00  0.00    +0.000 A 
ATOM      6  C   UNL     1       6.513   4.441  15.634  0.00  0.00    +0.000 A 
ATOM      7  C   UNL     1       5.254   3.852  15.821  0.00  0.00    +0.000 A 
BRANCH   6   8
ATOM      8  C   UNL     1       7.059   4.719  14.281  0.00  0.00    +0.000 C 
ATOM      9  O   UNL     1       6.629   4.184  13.274  0.00  0.00    +0.000 OA
BRANCH   8  10
ATOM     10  O   UNL     1       8.045   5.640  14.264  0.00  0.00    +0.000 OA
ATOM     11  H   UNL     1       8.869   5.371  14.709  0.00  0.00    +0.000 HD
ENDBRANCH   8  10
ENDBRANCH   6   8
ENDBRANCH   1   2
BRANCH   1  12
ATOM     12  O   UNL     1       2.379   4.148  17.299  0.00  0.00    +0.000 OA
BRANCH  12  18
ATOM     13  C   UNL     1       2.343   6.306  18.589  0.00  0.00    +0.000 A 
ATOM     14  C   UNL     1       2.074   6.848  19.870  0.00  0.00    +0.000 A 
ATOM     15  C   UNL     1       1.675   6.052  20.943  0.00  0.00    +0.000 A 
ATOM     16  C   UNL     1       1.546   4.684  20.769  0.00  0.00    +0.000 A 
ATOM     17  C   UNL     1       1.801   4.123  19.520  0.00  0.00    +0.000 A 
ATOM     18  C   UNL     1       2.175   4.916  18.418  0.00  0.00    +0.000 A 
BRANCH  13  20
ATOM     19  C   UNL     1       2.309   8.709  17.798  0.00  0.00    +0.000 C 
ATOM     20  C   UNL     1       2.808   7.285  17.516  0.00  0.00    +0.000 C 
ATOM     21  C   UNL     1       4.325   7.268  17.309  0.00  0.00    +0.000 C 
ENDBRANCH  13  20
ENDBRANCH  12  18
ENDBRANCH   1  12
TORSDOF 6
ENDMDL
MODEL 4
REMARK VINA RESULT:      -7.6      2.269      5.609
REMARK  Name = 
REMARK  8 active torsions:
REMARK  status: ('A' for Active; 'I' for Inactive)
REMARK    1  A    between atoms: C_1  and  C_2
REMARK    2  A    between atoms: C_2  and  C_3
REMARK    3  A    between atoms: C_2  and  C_4
REMARK    4  A    between atoms: C_9  and  O_10
REMARK    5  A    between atoms: O_10  and  C_11
REMARK    6  A    between atoms: C_11  and  C_12
REMARK    7  A    between atoms: C_16  and  C_17
REMARK    8  A    between atoms: C_17  and  O_19
REMARK                            x       y       z     vdW  Elec       q    Type
REMARK                         _______ _______ _______ _____ _____    ______ ____
ROOT
ATOM      1  C   UNL     1       3.676   6.791  18.084  0.00  0.00    +0.000 C 
ENDROOT
BRANCH   1   2
ATOM      2  C   UNL     1       3.169   5.398  18.386  0.00  0.00    +0.000 A 
ATOM      3  C   UNL     1       1.976   4.966  17.782  0.00  0.00    +0.000 A 
ATOM      4  C   UNL     1       1.405   3.743  18.124  0.00  0.00    +0.000 A 
ATOM      5  C   UNL     1       2.021   2.933  19.076  0.00  0.00    +0.000 A 
ATOM      6  C   UNL     1       3.218   3.342  19.679  0.00  0.00    +0.000 A 
ATOM      7  C   UNL     1       3.781   4.582  19.347  0.00  0.00    +0.000 A 
BRANCH   6   8
ATOM      8  C   UNL     1       3.808   2.462  20.720  0.00  0.00    +0.000 C 
ATOM      9  O   UNL     1       4.883   1.906  20.580  0.00  0.00    +0.000 OA
BRANCH   8  10
ATOM     10  O   UNL     1       3.067   2.365  21.843  0.00  0.00    +0.000 OA
ATOM     11  H   UNL     1       2.383   1.671  21.828  0.00  0.00    +0.000 HD
ENDBRANCH   8  10
ENDBRANCH   6   8
ENDBRANCH   1   2
BRANCH   1  12
ATOM     12  O   UNL     1       4.277   6.884  16.798  0.00  0.00    +0.000 OA
BRANCH  12  18
ATOM     13  C   UNL     1       6.556   5.855  17.064  0.00  0.00    +0.000 A 
ATOM     14  C   UNL     1       7.410   4.857  16.533  0.00  0.00    +0.000 A 
ATOM     15  C   UNL     1       7.028   4.046  15.465  0.00  0.00    +0.000 A 
ATOM     16  C   UNL     1       5.782   4.219  14.886  0.00  0.00    +0.000 A 
ATOM     17  C   UNL     1       4.920   5.192  15.388  0.00  0.00    +0.000 A 
ATOM     18  C   UNL     1       5.277   5.998  16.485  0.00  0.00    +0.000 A 
BRANCH  13  20
ATOM     19  C   UNL     1       7.964   5.851  19.166  0.00  0.00    +0.000 C 
ATOM     20  C   UNL     1       7.115   6.696  18.208  0.00  0.00    +0.000 C 
ATOM     21  C   UNL     1       7.894   7.921  17.721  0.00  0.00    +0.000 C 
ENDBRANCH  13  20
ENDBRANCH  12  18
ENDBRANCH   1  12
TORSDOF 6
ENDMDL
MODEL 5
REMARK VINA RESULT:      -7.6      1.953      2.827
REMARK  Name = 
REMARK  8 active torsions:
REMARK  status: ('A' for Active; 'I' for Inactive)
REMARK    1  A    between atoms: C_1  and  C_2
REMARK    2  A    between atoms: C_2  and  C_3
REMARK    3  A    between atoms: C_2  and  C_4
REMARK    4  A    between atoms: C_9  and  O_10
REMARK    5  A    between atoms: O_10  and  C_11
REMARK    6  A    between atoms: C_11  and  C_12
REMARK    7  A    between atoms: C_16  and  C_17
REMARK    8  A    between atoms: C_17  and  O_19
REMARK                            x       y       z     vdW  Elec       q    Type
REMARK                         _______ _______ _______ _____ _____    ______ ____
ROOT
ATOM      1  C   UNL     1       3.644   3.326  17.330  0.00  0.00    +0.000 C 
ENDROOT
BRANCH   1   2
ATOM      2  C   UNL     1       5.007   3.893  17.002  0.00  0.00    +0.000 A 
ATOM      3  C   UNL     1       5.789   4.423  18.042  0.00  0.00    +0.000 A 
ATOM      4  C   UNL     1       6.995   5.067  17.773  0.00  0.00    +0.000 A 
ATOM      5  C   UNL     1       7.435   5.188  16.457  0.00  0.00    +0.000 A 
ATOM      6  C   UNL     1       6.676   4.654  15.408  0.00  0.00    +0.000 A 
ATOM      7  C   UNL     1       5.454   4.022  15.680  0.00  0.00    +0.000 A 
BRANCH   6   8
ATOM      8  C   UNL     1       7.170   4.850  14.021  0.00  0.00    +0.000 C 
ATOM      9  O   UNL     1       8.047   5.648  13.741  0.00  0.00    +0.000 OA
BRANCH   8  10
ATOM     10  O   UNL     1       6.589   4.042  13.110  0.00  0.00    +0.000 OA
ATOM     11  H   UNL     1       6.454   3.122  13.401  0.00  0.00    +0.000 HD
ENDBRANCH   8  10
ENDBRANCH   6   8
ENDBRANCH   1   2
BRANCH   1  12
ATOM     12  O   UNL     1       2.623   4.317  17.304  0.00  0.00    +0.000 OA
BRANCH  12  18
ATOM     13  C   UNL     1       1.923   4.504  19.711  0.00  0.00    +0.000 A 
ATOM     14  C   UNL     1       1.702   5.441  20.750  0.00  0.00    +0.000 A 
ATOM     15  C   UNL     1       1.879   6.812  20.563  0.00  0.00    +0.000 A 
ATOM     16  C   UNL     1       2.269   7.287  19.322  0.00  0.00    +0.000 A 
ATOM     17  C   UNL     1       2.497   6.389  18.282  0.00  0.00    +0.000 A 
ATOM     18  C   UNL     1       2.354   5.000  18.463  0.00  0.00    +0.000 A 
BRANCH  13  20
ATOM     19  C   UNL     1       1.372   2.843  21.538  0.00  0.00    +0.000 C 
ATOM     20  C   UNL     1       1.656   3.039  20.043  0.00  0.00    +0.000 C 
ATOM     21  C   UNL     1       0.541   2.428  19.189  0.00  0.00    +0.000 C 
ENDBRANCH  13  20
ENDBRANCH  12  18
ENDBRANCH   1  12
TORSDOF 6
ENDMDL
MODEL 6
REMARK VINA RESULT:      -7.6      1.817      2.512
REMARK  Name = 
REMARK  8 active torsions:
REMARK  status: ('A' for Active; 'I' for Inactive)
REMARK    1  A    between atoms: C_1  and  C_2
REMARK    2  A    between atoms: C_2  and  C_3
REMARK    3  A    between atoms: C_2  and  C_4
REMARK    4  A    between atoms: C_9  and  O_10
REMARK    5  A    between atoms: O_10  and  C_11
REMARK    6  A    between atoms: C_11  and  C_12
REMARK    7  A    between atoms: C_16  and  C_17
REMARK    8  A    between atoms: C_17  and  O_19
REMARK                            x       y       z     vdW  Elec       q    Type
REMARK                         _______ _______ _______ _____ _____    ______ ____
ROOT
ATOM      1  C   UNL     1       3.480   3.207  17.780  0.00  0.00    +0.000 C 
ENDROOT
BRANCH   1   2
ATOM      2  C   UNL     1       4.828   3.789  17.418  0.00  0.00    +0.000 A 
ATOM      3  C   UNL     1       5.609   4.369  18.432  0.00  0.00    +0.000 A 
ATOM      4  C   UNL     1       6.799   5.028  18.128  0.00  0.00    +0.000 A 
ATOM      5  C   UNL     1       7.224   5.112  16.804  0.00  0.00    +0.000 A 
ATOM      6  C   UNL     1       6.465   4.528  15.782  0.00  0.00    +0.000 A 
ATOM      7  C   UNL     1       5.259   3.882  16.088  0.00  0.00    +0.000 A 
BRANCH   6   8
ATOM      8  C   UNL     1       6.941   4.687  14.384  0.00  0.00    +0.000 C 
ATOM      9  O   UNL     1       6.461   4.069  13.449  0.00  0.00    +0.000 OA
BRANCH   8  10
ATOM     10  O   UNL     1       7.922   5.602  14.237  0.00  0.00    +0.000 OA
ATOM     11  H   UNL     1       8.459   5.505  13.430  0.00  0.00    +0.000 HD
ENDBRANCH   8  10
ENDBRANCH   6   8
ENDBRANCH   1   2
BRANCH   1  12
ATOM     12  O   UNL     1       2.420   4.138  17.600  0.00  0.00    +0.000 OA
BRANCH  12  18
ATOM     13  C   UNL     1       1.787   4.984  19.881  0.00  0.00    +0.000 A 
ATOM     14  C   UNL     1       1.682   6.167  20.654  0.00  0.00    +0.000 A 
ATOM     15  C   UNL     1       1.992   7.423  20.135  0.00  0.00    +0.000 A 
ATOM     16  C   UNL     1       2.407   7.535  18.817  0.00  0.00    +0.000 A 
ATOM     17  C   UNL     1       2.523   6.389  18.034  0.00  0.00    +0.000 A 
ATOM     18  C   UNL     1       2.243   5.110  18.552  0.00  0.00    +0.000 A 
BRANCH  13  20
ATOM     19  C   UNL     1       0.565   2.785  19.622  0.00  0.00    +0.000 C 
ATOM     20  C   UNL     1       1.379   3.682  20.563  0.00  0.00    +0.000 C 
ATOM     21  C   UNL     1       2.569   2.919  21.152  0.00  0.00    +0.000 C 
ENDBRANCH  13  20
ENDBRANCH  12  18
ENDBRANCH   1  12
TORSDOF 6
ENDMDL
MODEL 7
REMARK VINA RESULT:      -7.6      0.939      2.549
REMARK  Name = 
REMARK  8 active torsions:
REMARK  status: ('A' for Active; 'I' for Inactive)
REMARK    1  A    between atoms: C_1  and  C_2
REMARK    2  A    between atoms: C_2  and  C_3
REMARK    3  A    between atoms: C_2  and  C_4
REMARK    4  A    between atoms: C_9  and  O_10
REMARK    5  A    between atoms: O_10  and  C_11
REMARK    6  A    between atoms: C_11  and  C_12
REMARK    7  A    between atoms: C_16  and  C_17
REMARK    8  A    between atoms: C_17  and  O_19
REMARK                            x       y       z     vdW  Elec       q    Type
REMARK                         _______ _______ _______ _____ _____    ______ ____
ROOT
ATOM      1  C   UNL     1       3.896   3.683  16.947  0.00  0.00    +0.000 C 
ENDROOT
BRANCH   1   2
ATOM      2  C   UNL     1       4.939   4.773  17.051  0.00  0.00    +0.000 A 
ATOM      3  C   UNL     1       5.173   5.595  15.936  0.00  0.00    +0.000 A 
ATOM      4  C   UNL     1       6.207   6.530  15.941  0.00  0.00    +0.000 A 
ATOM      5  C   UNL     1       7.021   6.654  17.065  0.00  0.00    +0.000 A 
ATOM      6  C   UNL     1       6.795   5.851  18.191  0.00  0.00    +0.000 A 
ATOM      7  C   UNL     1       5.765   4.900  18.176  0.00  0.00    +0.000 A 
BRANCH   6   8
ATOM      8  C   UNL     1       7.721   5.993  19.343  0.00  0.00    +0.000 C 
ATOM      9  O   UNL     1       7.708   5.234  20.297  0.00  0.00    +0.000 OA
BRANCH   8  10
ATOM     10  O   UNL     1       8.598   7.011  19.222  0.00  0.00    +0.000 OA
ATOM     11  H   UNL     1       8.860   7.432  20.061  0.00  0.00    +0.000 HD
ENDBRANCH   8  10
ENDBRANCH   6   8
ENDBRANCH   1   2
BRANCH   1  12
ATOM     12  O   UNL     1       2.591   4.145  17.276  0.00  0.00    +0.000 OA
BRANCH  12  18
ATOM     13  C   UNL     1       2.126   5.054  19.574  0.00  0.00    +0.000 A 
ATOM     14  C   UNL     1       1.672   4.678  20.862  0.00  0.00    +0.000 A 
ATOM     15  C   UNL     1       1.305   3.368  21.167  0.00  0.00    +0.000 A 
ATOM     16  C   UNL     1       1.396   2.388  20.192  0.00  0.00    +0.000 A 
ATOM     17  C   UNL     1       1.837   2.728  18.915  0.00  0.00    +0.000 A 
ATOM     18  C   UNL     1       2.181   4.052  18.582  0.00  0.00    +0.000 A 
BRANCH  13  20
ATOM     19  C   UNL     1       2.212   7.010  17.973  0.00  0.00    +0.000 C 
ATOM     20  C   UNL     1       2.530   6.513  19.388  0.00  0.00    +0.000 C 
ATOM     21  C   UNL     1       1.920   7.439  20.444  0.00  0.00    +0.000 C 
ENDBRANCH  13  20
ENDBRANCH  12  18
ENDBRANCH   1  12
TORSDOF 6
ENDMDL
MODEL 8
REMARK VINA RESULT:      -7.5      1.948      5.659
REMARK  Name = 
REMARK  8 active torsions:
REMARK  status: ('A' for Active; 'I' for Inactive)
REMARK    1  A    between atoms: C_1  and  C_2
REMARK    2  A    between atoms: C_2  and  C_3
REMARK    3  A    between atoms: C_2  and  C_4
REMARK    4  A    between atoms: C_9  and  O_10
REMARK    5  A    between atoms: O_10  and  C_11
REMARK    6  A    between atoms: C_11  and  C_12
REMARK    7  A    between atoms: C_16  and  C_17
REMARK    8  A    between atoms: C_17  and  O_19
REMARK                            x       y       z     vdW  Elec       q    Type
REMARK                         _______ _______ _______ _____ _____    ______ ____
ROOT
ATOM      1  C   UNL     1       2.838   7.175  17.377  0.00  0.00    +0.000 C 
ENDROOT
BRANCH   1   2
ATOM      2  C   UNL     1       2.341   6.138  18.359  0.00  0.00    +0.000 A 
ATOM      3  C   UNL     1       2.363   6.440  19.731  0.00  0.00    +0.000 A 
ATOM      4  C   UNL     1       2.033   5.475  20.681  0.00  0.00    +0.000 A 
ATOM      5  C   UNL     1       1.676   4.193  20.268  0.00  0.00    +0.000 A 
ATOM      6  C   UNL     1       1.636   3.878  18.904  0.00  0.00    +0.000 A 
ATOM      7  C   UNL     1       1.986   4.845  17.952  0.00  0.00    +0.000 A 
BRANCH   6   8
ATOM      8  C   UNL     1       1.293   2.484  18.523  0.00  0.00    +0.000 C 
ATOM      9  O   UNL     1       0.218   1.974  18.786  0.00  0.00    +0.000 OA
BRANCH   8  10
ATOM     10  O   UNL     1       2.260   1.849  17.828  0.00  0.00    +0.000 OA
ATOM     11  H   UNL     1       3.005   2.412  17.549  0.00  0.00    +0.000 HD
ENDBRANCH   8  10
ENDBRANCH   6   8
ENDBRANCH   1   2
BRANCH   1  12
ATOM     12  O   UNL     1       4.253   7.320  17.409  0.00  0.00    +0.000 OA
BRANCH  12  18
ATOM     13  C   UNL     1       5.781   5.333  17.602  0.00  0.00    +0.000 A 
ATOM     14  C   UNL     1       6.502   4.388  16.832  0.00  0.00    +0.000 A 
ATOM     15  C   UNL     1       6.491   4.403  15.438  0.00  0.00    +0.000 A 
ATOM     16  C   UNL     1       5.766   5.377  14.771  0.00  0.00    +0.000 A 
ATOM     17  C   UNL     1       5.045   6.319  15.502  0.00  0.00    +0.000 A 
ATOM     18  C   UNL     1       5.021   6.298  16.909  0.00  0.00    +0.000 A 
BRANCH  13  20
ATOM     19  C   UNL     1       5.327   3.905  19.640  0.00  0.00    +0.000 C 
ATOM     20  C   UNL     1       5.912   5.224  19.118  0.00  0.00    +0.000 C 
ATOM     21  C   UNL     1       7.350   5.416  19.608  0.00  0.00    +0.000 C 
ENDBRANCH  13  20
ENDBRANCH  12  18
ENDBRANCH   1  12
TORSDOF 6
ENDMDL
MODEL 9
REMARK VINA RESULT:      -7.5      3.184      4.804
REMARK  Name = 
REMARK  8 active torsions:
REMARK  status: ('A' for Active; 'I' for Inactive)
REMARK    1  A    between atoms: C_1  and  C_2
REMARK    2  A    between atoms: C_2  and  C_3
REMARK    3  A    between atoms: C_2  and  C_4
REMARK    4  A    between atoms: C_9  and  O_10
REMARK    5  A    between atoms: O_10  and  C_11
REMARK    6  A    between atoms: C_11  and  C_12
REMARK    7  A    between atoms: C_16  and  C_17
REMARK    8  A    between atoms: C_17  and  O_19
REMARK                            x       y       z     vdW  Elec       q    Type
REMARK                         _______ _______ _______ _____ _____    ______ ____
ROOT
ATOM      1  C   UNL     1       6.153   5.151  15.962  0.00  0.00    +0.000 C 
ENDROOT
BRANCH   1   2
ATOM      2  C   UNL     1       6.531   4.739  14.556  0.00  0.00    +0.000 A 
ATOM      3  C   UNL     1       7.585   5.410  13.914  0.00  0.00    +0.000 A 
ATOM      4  C   UNL     1       7.888   5.152  12.579  0.00  0.00    +0.000 A 
ATOM      5  C   UNL     1       7.140   4.216  11.869  0.00  0.00    +0.000 A 
ATOM      6  C   UNL     1       6.094   3.527  12.496  0.00  0.00    +0.000 A 
ATOM      7  C   UNL     1       5.779   3.802  13.835  0.00  0.00    +0.000 A 
BRANCH   6   8
ATOM      8  C   UNL     1       5.301   2.573  11.680  0.00  0.00    +0.000 C 
ATOM      9  O   UNL     1       4.213   2.855  11.208  0.00  0.00    +0.000 OA
BRANCH   8  10
ATOM     10  O   UNL     1       5.907   1.385  11.478  0.00  0.00    +0.000 OA
ATOM     11  H   UNL     1       6.100   0.877  12.286  0.00  0.00    +0.000 HD
ENDBRANCH   8  10
ENDBRANCH   6   8
ENDBRANCH   1   2
BRANCH   1  12
ATOM     12  O   UNL     1       5.016   4.447  16.448  0.00  0.00    +0.000 OA
BRANCH  12  18
ATOM     13  C   UNL     1       3.067   4.630  18.025  0.00  0.00    +0.000 A 
ATOM     14  C   UNL     1       2.264   5.569  18.718  0.00  0.00    +0.000 A 
ATOM     15  C   UNL     1       2.470   6.944  18.611  0.00  0.00    +0.000 A 
ATOM     16  C   UNL     1       3.481   7.422  17.794  0.00  0.00    +0.000 A 
ATOM     17  C   UNL     1       4.289   6.523  17.102  0.00  0.00    +0.000 A 
ATOM     18  C   UNL     1       4.114   5.131  17.223  0.00  0.00    +0.000 A 
BRANCH  13  20
ATOM     19  C   UNL     1       3.611   2.479  19.240  0.00  0.00    +0.000 C 
ATOM     20  C   UNL     1       2.707   3.159  18.203  0.00  0.00    +0.000 C 
ATOM     21  C   UNL     1       1.229   2.943  18.540  0.00  0.00    +0.000 C 
ENDBRANCH  13  20
ENDBRANCH  12  18
ENDBRANCH   1  12
TORSDOF 6
ENDMDL
