MODEL 1
REMARK VINA RESULT:      -7.7      0.000      0.000
REMARK  Name = 
REMARK  6 active torsions:
REMARK  status: ('A' for Active; 'I' for Inactive)
REMARK    1  A    between atoms: C_2  and  C_14
REMARK    2  A    between atoms: N_3  and  N_4
REMARK    3  A    between atoms: N_4  and  C_5
REMARK    4  A    between atoms: C_5  and  N_7
REMARK    5  A    between atoms: N_7  and  C_8
REMARK    6  A    between atoms: C_19  and  O_20
REMARK                            x       y       z     vdW  Elec       q    Type
REMARK                         _______ _______ _______ _____ _____    ______ ____
ROOT
ATOM      1  O   UNL     1       7.370   6.135  16.136  0.00  0.00    +0.000 OA
ATOM      2  C   UNL     1       7.088   4.989  15.797  0.00  0.00    +0.000 C 
ATOM      3  N   UNL     1       6.904   3.964  16.706  0.00  0.00    +0.000 N 
ATOM      4  H   UNL     1       6.487   3.087  16.390  0.00  0.00    +0.000 HD
ENDROOT
BRANCH   2   5
ATOM      5  C   UNL     1       6.902   4.629  14.357  0.00  0.00    +0.000 A 
ATOM      6  C   UNL     1       5.860   3.745  14.035  0.00  0.00    +0.000 A 
ATOM      7  C   UNL     1       5.632   3.373  12.708  0.00  0.00    +0.000 A 
ATOM      8  C   UNL     1       6.446   3.873  11.693  0.00  0.00    +0.000 A 
ATOM      9  C   UNL     1       7.495   4.741  12.000  0.00  0.00    +0.000 A 
ATOM     10  C   UNL     1       7.723   5.112  13.324  0.00  0.00    +0.000 A 
BRANCH  10  11
ATOM     11  O   UNL     1       8.769   5.952  13.600  0.00  0.00    +0.000 OA
ATOM     12  H   UNL     1       8.474   6.878  13.536  0.00  0.00    +0.000 HD
ENDBRANCH  10  11
ENDBRANCH   2   5
BRANCH   3  13
ATOM     13  N   UNL     1       6.727   4.299  18.041  0.00  0.00    +0.000 N 
ATOM     14  H   UNL     1       7.579   4.470  18.574  0.00  0.00    +0.000 HD
BRANCH  13  15
ATOM     15  C   UNL     1       5.488   4.347  18.636  0.00  0.00    +0.000 C 
ATOM     16  S   UNL     1       4.733   5.733  19.186  0.00  0.00    +0.000 S 
BRANCH  15  17
ATOM     17  N   UNL     1       4.841   3.139  18.728  0.00  0.00    +0.000 N 
ATOM     18  H   UNL     1       5.352   2.335  18.378  0.00  0.00    +0.000 HD
BRANCH  17  19
ATOM     19  C   UNL     1       3.490   2.948  19.088  0.00  0.00    +0.000 A 
ATOM     20  C   UNL     1       2.463   2.901  18.142  0.00  0.00    +0.000 A 
ATOM     21  C   UNL     1       1.145   2.742  18.554  0.00  0.00    +0.000 A 
ATOM     22  C   UNL     1       0.897   2.620  19.910  0.00  0.00    +0.000 A 
ATOM     23  N   UNL     1       1.866   2.605  20.852  0.00  0.00    +0.000 NA
ATOM     24  C   UNL     1       3.142   2.754  20.418  0.00  0.00    +0.000 A 
ENDBRANCH  17  19
ENDBRANCH  15  17
ENDBRANCH  13  15
ENDBRANCH   3  13
TORSDOF 6
ENDMDL
MODEL 2
REMARK VINA RESULT:      -7.6      0.766      1.127
REMARK  Name = 
REMARK  6 active torsions:
REMARK  status: ('A' for Active; 'I' for Inactive)
REMARK    1  A    between atoms: C_2  and  C_14
REMARK    2  A    between atoms: N_3  and  N_4
REMARK    3  A    between atoms: N_4  and  C_5
REMARK    4  A    between atoms: C_5  and  N_7
REMARK    5  A    between atoms: N_7  and  C_8
REMARK    6  A    between atoms: C_19  and  O_20
REMARK                            x       y       z     vdW  Elec       q    Type
REMARK                         _______ _______ _______ _____ _____    ______ ____
ROOT
ATOM      1  O   UNL     1       6.719   6.252  16.070  0.00  0.00    +0.000 OA
ATOM      2  C   UNL     1       6.857   5.075  15.747  0.00  0.00    +0.000 C 
ATOM      3  N   UNL     1       7.081   4.068  16.668  0.00  0.00    +0.000 N 
ATOM      4  H   UNL     1       6.997   3.095  16.371  0.00  0.00    +0.000 HD
ENDROOT
BRANCH   2   5
ATOM      5  C   UNL     1       6.773   4.647  14.316  0.00  0.00    +0.000 A 
ATOM      6  C   UNL     1       5.751   3.752  13.963  0.00  0.00    +0.000 A 
ATOM      7  C   UNL     1       5.615   3.318  12.642  0.00  0.00    +0.000 A 
ATOM      8  C   UNL     1       6.502   3.768  11.665  0.00  0.00    +0.000 A 
ATOM      9  C   UNL     1       7.532   4.647  12.005  0.00  0.00    +0.000 A 
ATOM     10  C   UNL     1       7.667   5.079  13.323  0.00  0.00    +0.000 A 
BRANCH  10  11
ATOM     11  O   UNL     1       8.696   5.929  13.633  0.00  0.00    +0.000 OA
ATOM     12  H   UNL     1       8.937   5.827  14.571  0.00  0.00    +0.000 HD
ENDBRANCH  10  11
ENDBRANCH   2   5
BRANCH   3  13
ATOM     13  N   UNL     1       6.833   4.340  18.006  0.00  0.00    +0.000 N 
ATOM     14  H   UNL     1       7.656   4.473  18.593  0.00  0.00    +0.000 HD
BRANCH  13  15
ATOM     15  C   UNL     1       5.564   4.376  18.533  0.00  0.00    +0.000 C 
ATOM     16  S   UNL     1       4.807   5.739  19.137  0.00  0.00    +0.000 S 
BRANCH  15  17
ATOM     17  N   UNL     1       4.889   3.181  18.504  0.00  0.00    +0.000 N 
ATOM     18  H   UNL     1       5.407   2.388  18.141  0.00  0.00    +0.000 HD
BRANCH  17  19
ATOM     19  C   UNL     1       3.511   3.002  18.756  0.00  0.00    +0.000 A 
ATOM     20  C   UNL     1       3.021   2.650  20.016  0.00  0.00    +0.000 A 
ATOM     21  C   UNL     1       1.657   2.455  20.201  0.00  0.00    +0.000 A 
ATOM     22  C   UNL     1       0.820   2.636  19.115  0.00  0.00    +0.000 A 
ATOM     23  N   UNL     1       1.248   3.030  17.895  0.00  0.00    +0.000 NA
ATOM     24  C   UNL     1       2.582   3.220  17.747  0.00  0.00    +0.000 A 
ENDBRANCH  17  19
ENDBRANCH  15  17
ENDBRANCH  13  15
ENDBRANCH   3  13
TORSDOF 6
ENDMDL
MODEL 3
REMARK VINA RESULT:      -7.4      2.394      7.121
REMARK  Name = 
REMARK  6 active torsions:
REMARK  status: ('A' for Active; 'I' for Inactive)
REMARK    1  A    between atoms: C_2  and  C_14
REMARK    2  A    between atoms: N_3  and  N_4
REMARK    3  A    between atoms: N_4  and  C_5
REMARK    4  A    between atoms: C_5  and  N_7
REMARK    5  A    between atoms: N_7  and  C_8
REMARK    6  A    between atoms: C_19  and  O_20
REMARK                            x       y       z     vdW  Elec       q    Type
REMARK                         _______ _______ _______ _____ _____    ______ ____
ROOT
ATOM      1  O   UNL     1       4.190   2.984  17.208  0.00  0.00    +0.000 OA
ATOM      2  C   UNL     1       4.437   3.285  18.373  0.00  0.00    +0.000 C 
ATOM      3  N   UNL     1       5.684   3.713  18.788  0.00  0.00    +0.000 N 
ATOM      4  H   UNL     1       5.785   4.129  19.715  0.00  0.00    +0.000 HD
ENDROOT
BRANCH   2   5
ATOM      5  C   UNL     1       3.380   3.224  19.431  0.00  0.00    +0.000 A 
ATOM      6  C   UNL     1       2.155   3.855  19.166  0.00  0.00    +0.000 A 
ATOM      7  C   UNL     1       1.126   3.830  20.111  0.00  0.00    +0.000 A 
ATOM      8  C   UNL     1       1.316   3.183  21.331  0.00  0.00    +0.000 A 
ATOM      9  C   UNL     1       2.534   2.565  21.615  0.00  0.00    +0.000 A 
ATOM     10  C   UNL     1       3.560   2.590  20.672  0.00  0.00    +0.000 A 
BRANCH  10  11
ATOM     11  O   UNL     1       4.752   1.990  20.981  0.00  0.00    +0.000 OA
ATOM     12  H   UNL     1       4.864   1.958  21.948  0.00  0.00    +0.000 HD
ENDBRANCH  10  11
ENDBRANCH   2   5
BRANCH   3  13
ATOM     13  N   UNL     1       6.593   4.111  17.818  0.00  0.00    +0.000 N 
ATOM     14  H   UNL     1       7.333   3.444  17.600  0.00  0.00    +0.000 HD
BRANCH  13  15
ATOM     15  C   UNL     1       6.545   5.347  17.218  0.00  0.00    +0.000 C 
ATOM     16  S   UNL     1       7.338   6.715  17.759  0.00  0.00    +0.000 S 
BRANCH  15  17
ATOM     17  N   UNL     1       5.805   5.403  16.062  0.00  0.00    +0.000 N 
ATOM     18  H   UNL     1       4.829   5.656  16.173  0.00  0.00    +0.000 HD
BRANCH  17  19
ATOM     19  C   UNL     1       6.229   4.973  14.786  0.00  0.00    +0.000 A 
ATOM     20  C   UNL     1       5.540   4.001  14.058  0.00  0.00    +0.000 A 
ATOM     21  C   UNL     1       6.019   3.591  12.819  0.00  0.00    +0.000 A 
ATOM     22  C   UNL     1       7.172   4.184  12.338  0.00  0.00    +0.000 A 
ATOM     23  N   UNL     1       7.836   5.167  12.986  0.00  0.00    +0.000 NA
ATOM     24  C   UNL     1       7.341   5.550  14.188  0.00  0.00    +0.000 A 
ENDBRANCH  17  19
ENDBRANCH  15  17
ENDBRANCH  13  15
ENDBRANCH   3  13
TORSDOF 6
ENDMDL
MODEL 4
REMARK VINA RESULT:      -7.3      3.385      4.238
REMARK  Name = 
REMARK  6 active torsions:
REMARK  status: ('A' for Active; 'I' for Inactive)
REMARK    1  A    between atoms: C_2  and  C_14
REMARK    2  A    between atoms: N_3  and  N_4
REMARK    3  A    between atoms: N_4  and  C_5
REMARK    4  A    between atoms: C_5  and  N_7
REMARK    5  A    between atoms: N_7  and  C_8
REMARK    6  A    between atoms: C_19  and  O_20
REMARK                            x       y       z     vdW  Elec       q    Type
REMARK                         _______ _______ _______ _____ _____    ______ ____
ROOT
ATOM      1  O   UNL     1       5.683   5.122  19.681  0.00  0.00    +0.000 OA
ATOM      2  C   UNL     1       5.260   4.376  18.802  0.00  0.00    +0.000 C 
ATOM      3  N   UNL     1       4.305   3.406  19.040  0.00  0.00    +0.000 N 
ATOM      4  H   UNL     1       3.853   2.947  18.248  0.00  0.00    +0.000 HD
ENDROOT
BRANCH   2   5
ATOM      5  C   UNL     1       5.747   4.484  17.391  0.00  0.00    +0.000 A 
ATOM      6  C   UNL     1       4.785   4.496  16.369  0.00  0.00    +0.000 A 
ATOM      7  C   UNL     1       5.174   4.600  15.032  0.00  0.00    +0.000 A 
ATOM      8  C   UNL     1       6.526   4.684  14.703  0.00  0.00    +0.000 A 
ATOM      9  C   UNL     1       7.495   4.657  15.708  0.00  0.00    +0.000 A 
ATOM     10  C   UNL     1       7.106   4.554  17.042  0.00  0.00    +0.000 A 
BRANCH  10  11
ATOM     11  O   UNL     1       8.076   4.514  18.008  0.00  0.00    +0.000 OA
ATOM     12  H   UNL     1       8.648   3.738  17.870  0.00  0.00    +0.000 HD
ENDBRANCH  10  11
ENDBRANCH   2   5
BRANCH   3  13
ATOM     13  N   UNL     1       3.579   3.480  20.221  0.00  0.00    +0.000 N 
ATOM     14  H   UNL     1       3.920   2.905  20.990  0.00  0.00    +0.000 HD
BRANCH  13  15
ATOM     15  C   UNL     1       2.437   4.235  20.344  0.00  0.00    +0.000 C 
ATOM     16  S   UNL     1       0.878   3.673  20.125  0.00  0.00    +0.000 S 
BRANCH  15  17
ATOM     17  N   UNL     1       2.641   5.541  20.716  0.00  0.00    +0.000 N 
ATOM     18  H   UNL     1       2.935   5.688  21.675  0.00  0.00    +0.000 HD
BRANCH  17  19
ATOM     19  C   UNL     1       2.310   6.682  19.952  0.00  0.00    +0.000 A 
ATOM     20  C   UNL     1       2.600   6.780  18.590  0.00  0.00    +0.000 A 
ATOM     21  C   UNL     1       2.280   7.940  17.892  0.00  0.00    +0.000 A 
ATOM     22  C   UNL     1       1.660   8.965  18.584  0.00  0.00    +0.000 A 
ATOM     23  N   UNL     1       1.312   8.887  19.888  0.00  0.00    +0.000 NA
ATOM     24  C   UNL     1       1.630   7.741  20.539  0.00  0.00    +0.000 A 
ENDBRANCH  17  19
ENDBRANCH  15  17
ENDBRANCH  13  15
ENDBRANCH   3  13
TORSDOF 6
ENDMDL
MODEL 5
REMARK VINA RESULT:      -7.3      2.364      7.052
REMARK  Name = 
REMARK  6 active torsions:
REMARK  status: ('A' for Active; 'I' for Inactive)
REMARK    1  A    between atoms: C_2  and  C_14
REMARK    2  A    between atoms: N_3  and  N_4
REMARK    3  A    between atoms: N_4  and  C_5
REMARK    4  A    between atoms: C_5  and  N_7
REMARK    5  A    between atoms: N_7  and  C_8
REMARK    6  A    between atoms: C_19  and  O_20
REMARK                            x       y       z     vdW  Elec       q    Type
REMARK                         _______ _______ _______ _____ _____    ______ ____
ROOT
ATOM      1  O   UNL     1       4.235   3.216  16.963  0.00  0.00    +0.000 OA
ATOM      2  C   UNL     1       4.526   3.484  18.125  0.00  0.00    +0.000 C 
ATOM      3  N   UNL     1       5.793   3.884  18.506  0.00  0.00    +0.000 N 
ATOM      4  H   UNL     1       5.932   4.276  19.439  0.00  0.00    +0.000 HD
ENDROOT
BRANCH   2   5
ATOM      5  C   UNL     1       3.505   3.415  19.217  0.00  0.00    +0.000 A 
ATOM      6  C   UNL     1       2.323   4.154  19.053  0.00  0.00    +0.000 A 
ATOM      7  C   UNL     1       1.329   4.127  20.034  0.00  0.00    +0.000 A 
ATOM      8  C   UNL     1       1.510   3.368  21.189  0.00  0.00    +0.000 A 
ATOM      9  C   UNL     1       2.686   2.640  21.373  0.00  0.00    +0.000 A 
ATOM     10  C   UNL     1       3.677   2.667  20.394  0.00  0.00    +0.000 A 
BRANCH  10  11
ATOM     11  O   UNL     1       4.829   1.956  20.605  0.00  0.00    +0.000 OA
ATOM     12  H   UNL     1       5.386   1.985  19.807  0.00  0.00    +0.000 HD
ENDBRANCH  10  11
ENDBRANCH   2   5
BRANCH   3  13
ATOM     13  N   UNL     1       6.675   4.291  17.516  0.00  0.00    +0.000 N 
ATOM     14  H   UNL     1       7.385   3.612  17.244  0.00  0.00    +0.000 HD
BRANCH  13  15
ATOM     15  C   UNL     1       6.640   5.550  16.963  0.00  0.00    +0.000 C 
ATOM     16  S   UNL     1       7.401   6.901  17.588  0.00  0.00    +0.000 S 
BRANCH  15  17
ATOM     17  N   UNL     1       5.946   5.647  15.783  0.00  0.00    +0.000 N 
ATOM     18  H   UNL     1       5.026   6.068  15.843  0.00  0.00    +0.000 HD
BRANCH  17  19
ATOM     19  C   UNL     1       6.316   5.060  14.553  0.00  0.00    +0.000 A 
ATOM     20  C   UNL     1       7.473   5.431  13.865  0.00  0.00    +0.000 A 
ATOM     21  C   UNL     1       7.774   4.842  12.642  0.00  0.00    +0.000 A 
ATOM     22  C   UNL     1       6.908   3.882  12.151  0.00  0.00    +0.000 A 
ATOM     23  N   UNL     1       5.809   3.455  12.813  0.00  0.00    +0.000 NA
ATOM     24  C   UNL     1       5.547   4.042  14.006  0.00  0.00    +0.000 A 
ENDBRANCH  17  19
ENDBRANCH  15  17
ENDBRANCH  13  15
ENDBRANCH   3  13
TORSDOF 6
ENDMDL
MODEL 6
REMARK VINA RESULT:      -7.2      3.188      6.854
REMARK  Name = 
REMARK  6 active torsions:
REMARK  status: ('A' for Active; 'I' for Inactive)
REMARK    1  A    between atoms: C_2  and  C_14
REMARK    2  A    between atoms: N_3  and  N_4
REMARK    3  A    between atoms: N_4  and  C_5
REMARK    4  A    between atoms: C_5  and  N_7
REMARK    5  A    between atoms: N_7  and  C_8
REMARK    6  A    between atoms: C_19  and  O_20
REMARK                            x       y       z     vdW  Elec       q    Type
REMARK                         _______ _______ _______ _____ _____    ______ ____
ROOT
ATOM      1  O   UNL     1       2.850   5.781  17.623  0.00  0.00    +0.000 OA
ATOM      2  C   UNL     1       3.149   4.607  17.822  0.00  0.00    +0.000 C 
ATOM      3  N   UNL     1       3.836   3.843  16.897  0.00  0.00    +0.000 N 
ATOM      4  H   UNL     1       4.224   2.943  17.185  0.00  0.00    +0.000 HD
ENDROOT
BRANCH   2   5
ATOM      5  C   UNL     1       2.801   3.924  19.107  0.00  0.00    +0.000 A 
ATOM      6  C   UNL     1       1.508   4.117  19.619  0.00  0.00    +0.000 A 
ATOM      7  C   UNL     1       1.120   3.503  20.812  0.00  0.00    +0.000 A 
ATOM      8  C   UNL     1       2.020   2.697  21.507  0.00  0.00    +0.000 A 
ATOM      9  C   UNL     1       3.314   2.508  21.018  0.00  0.00    +0.000 A 
ATOM     10  C   UNL     1       3.701   3.122  19.828  0.00  0.00    +0.000 A 
BRANCH  10  11
ATOM     11  O   UNL     1       4.981   2.933  19.378  0.00  0.00    +0.000 OA
ATOM     12  H   UNL     1       5.017   2.145  18.806  0.00  0.00    +0.000 HD
ENDBRANCH  10  11
ENDBRANCH   2   5
BRANCH   3  13
ATOM     13  N   UNL     1       4.474   4.498  15.854  0.00  0.00    +0.000 N 
ATOM     14  H   UNL     1       3.958   5.268  15.428  0.00  0.00    +0.000 HD
BRANCH  13  15
ATOM     15  C   UNL     1       5.703   4.111  15.375  0.00  0.00    +0.000 C 
ATOM     16  S   UNL     1       6.049   3.746  13.781  0.00  0.00    +0.000 S 
BRANCH  15  17
ATOM     17  N   UNL     1       6.706   4.074  16.313  0.00  0.00    +0.000 N 
ATOM     18  H   UNL     1       7.043   3.151  16.565  0.00  0.00    +0.000 HD
BRANCH  17  19
ATOM     19  C   UNL     1       7.169   5.169  17.074  0.00  0.00    +0.000 A 
ATOM     20  C   UNL     1       7.543   5.044  18.414  0.00  0.00    +0.000 A 
ATOM     21  C   UNL     1       7.963   6.162  19.125  0.00  0.00    +0.000 A 
ATOM     22  C   UNL     1       8.011   7.376  18.462  0.00  0.00    +0.000 A 
ATOM     23  N   UNL     1       7.712   7.527  17.153  0.00  0.00    +0.000 NA
ATOM     24  C   UNL     1       7.313   6.418  16.484  0.00  0.00    +0.000 A 
ENDBRANCH  17  19
ENDBRANCH  15  17
ENDBRANCH  13  15
ENDBRANCH   3  13
TORSDOF 6
ENDMDL
MODEL 7
REMARK VINA RESULT:      -7.2      2.505      7.101
REMARK  Name = 
REMARK  6 active torsions:
REMARK  status: ('A' for Active; 'I' for Inactive)
REMARK    1  A    between atoms: C_2  and  C_14
REMARK    2  A    between atoms: N_3  and  N_4
REMARK    3  A    between atoms: N_4  and  C_5
REMARK    4  A    between atoms: C_5  and  N_7
REMARK    5  A    between atoms: N_7  and  C_8
REMARK    6  A    between atoms: C_19  and  O_20
REMARK                            x       y       z     vdW  Elec       q    Type
REMARK                         _______ _______ _______ _____ _____    ______ ____
ROOT
ATOM      1  O   UNL     1       3.871   3.570  16.763  0.00  0.00    +0.000 OA
ATOM      2  C   UNL     1       4.231   3.595  17.937  0.00  0.00    +0.000 C 
ATOM      3  N   UNL     1       5.557   3.702  18.311  0.00  0.00    +0.000 N 
ATOM      4  H   UNL     1       5.785   3.911  19.285  0.00  0.00    +0.000 HD
ENDROOT
BRANCH   2   5
ATOM      5  C   UNL     1       3.239   3.530  19.055  0.00  0.00    +0.000 A 
ATOM      6  C   UNL     1       3.182   4.618  19.941  0.00  0.00    +0.000 A 
ATOM      7  C   UNL     1       2.274   4.620  21.003  0.00  0.00    +0.000 A 
ATOM      8  C   UNL     1       1.421   3.535  21.193  0.00  0.00    +0.000 A 
ATOM      9  C   UNL     1       1.476   2.440  20.329  0.00  0.00    +0.000 A 
ATOM     10  C   UNL     1       2.383   2.438  19.270  0.00  0.00    +0.000 A 
BRANCH  10  11
ATOM     11  O   UNL     1       2.428   1.344  18.447  0.00  0.00    +0.000 OA
ATOM     12  H   UNL     1       2.855   1.583  17.604  0.00  0.00    +0.000 HD
ENDBRANCH  10  11
ENDBRANCH   2   5
BRANCH   3  13
ATOM     13  N   UNL     1       6.476   4.103  17.351  0.00  0.00    +0.000 N 
ATOM     14  H   UNL     1       7.097   3.376  16.997  0.00  0.00    +0.000 HD
BRANCH  13  15
ATOM     15  C   UNL     1       6.591   5.408  16.934  0.00  0.00    +0.000 C 
ATOM     16  S   UNL     1       7.406   6.617  17.752  0.00  0.00    +0.000 S 
BRANCH  15  17
ATOM     17  N   UNL     1       6.007   5.684  15.722  0.00  0.00    +0.000 N 
ATOM     18  H   UNL     1       5.209   6.309  15.746  0.00  0.00    +0.000 HD
BRANCH  17  19
ATOM     19  C   UNL     1       6.299   5.044  14.497  0.00  0.00    +0.000 A 
ATOM     20  C   UNL     1       5.450   4.092  13.930  0.00  0.00    +0.000 A 
ATOM     21  C   UNL     1       5.802   3.470  12.737  0.00  0.00    +0.000 A 
ATOM     22  C   UNL     1       6.994   3.836  12.139  0.00  0.00    +0.000 A 
ATOM     23  N   UNL     1       7.816   4.792  12.627  0.00  0.00    +0.000 NA
ATOM     24  C   UNL     1       7.442   5.386  13.786  0.00  0.00    +0.000 A 
ENDBRANCH  17  19
ENDBRANCH  15  17
ENDBRANCH  13  15
ENDBRANCH   3  13
TORSDOF 6
ENDMDL
MODEL 8
REMARK VINA RESULT:      -7.2      2.384      7.056
REMARK  Name = 
REMARK  6 active torsions:
REMARK  status: ('A' for Active; 'I' for Inactive)
REMARK    1  A    between atoms: C_2  and  C_14
REMARK    2  A    between atoms: N_3  and  N_4
REMARK    3  A    between atoms: N_4  and  C_5
REMARK    4  A    between atoms: C_5  and  N_7
REMARK    5  A    between atoms: N_7  and  C_8
REMARK    6  A    between atoms: C_19  and  O_20
REMARK                            x       y       z     vdW  Elec       q    Type
REMARK                         _______ _______ _______ _____ _____    ______ ____
ROOT
ATOM      1  O   UNL     1       4.495   3.018  17.149  0.00  0.00    +0.000 OA
ATOM      2  C   UNL     1       4.520   3.535  18.262  0.00  0.00    +0.000 C 
ATOM      3  N   UNL     1       5.672   4.062  18.816  0.00  0.00    +0.000 N 
ATOM      4  H   UNL     1       5.601   4.645  19.652  0.00  0.00    +0.000 HD
ENDROOT
BRANCH   2   5
ATOM      5  C   UNL     1       3.283   3.645  19.096  0.00  0.00    +0.000 A 
ATOM      6  C   UNL     1       3.131   4.794  19.888  0.00  0.00    +0.000 A 
ATOM      7  C   UNL     1       1.995   4.959  20.686  0.00  0.00    +0.000 A 
ATOM      8  C   UNL     1       1.007   3.976  20.704  0.00  0.00    +0.000 A 
ATOM      9  C   UNL     1       1.152   2.822  19.933  0.00  0.00    +0.000 A 
ATOM     10  C   UNL     1       2.285   2.657  19.139  0.00  0.00    +0.000 A 
BRANCH  10  11
ATOM     11  O   UNL     1       2.411   1.508  18.404  0.00  0.00    +0.000 OA
ATOM     12  H   UNL     1       2.789   0.802  18.958  0.00  0.00    +0.000 HD
ENDBRANCH  10  11
ENDBRANCH   2   5
BRANCH   3  13
ATOM     13  N   UNL     1       6.752   4.297  17.977  0.00  0.00    +0.000 N 
ATOM     14  H   UNL     1       7.583   3.733  18.153  0.00  0.00    +0.000 HD
BRANCH  13  15
ATOM     15  C   UNL     1       6.737   5.264  17.000  0.00  0.00    +0.000 C 
ATOM     16  S   UNL     1       5.798   6.647  17.024  0.00  0.00    +0.000 S 
BRANCH  15  17
ATOM     17  N   UNL     1       7.609   5.054  15.961  0.00  0.00    +0.000 N 
ATOM     18  H   UNL     1       8.582   5.274  16.148  0.00  0.00    +0.000 HD
BRANCH  17  19
ATOM     19  C   UNL     1       7.253   4.741  14.631  0.00  0.00    +0.000 A 
ATOM     20  C   UNL     1       7.903   5.304  13.531  0.00  0.00    +0.000 A 
ATOM     21  C   UNL     1       7.491   4.985  12.242  0.00  0.00    +0.000 A 
ATOM     22  C   UNL     1       6.444   4.092  12.096  0.00  0.00    +0.000 A 
ATOM     23  N   UNL     1       5.827   3.482  13.133  0.00  0.00    +0.000 NA
ATOM     24  C   UNL     1       6.256   3.808  14.376  0.00  0.00    +0.000 A 
ENDBRANCH  17  19
ENDBRANCH  15  17
ENDBRANCH  13  15
ENDBRANCH   3  13
TORSDOF 6
ENDMDL
MODEL 9
REMARK VINA RESULT:      -7.2      2.362      7.001
REMARK  Name = 
REMARK  6 active torsions:
REMARK  status: ('A' for Active; 'I' for Inactive)
REMARK    1  A    between atoms: C_2  and  C_14
REMARK    2  A    between atoms: N_3  and  N_4
REMARK    3  A    between atoms: N_4  and  C_5
REMARK    4  A    between atoms: C_5  and  N_7
REMARK    5  A    between atoms: N_7  and  C_8
REMARK    6  A    between atoms: C_19  and  O_20
REMARK                            x       y       z     vdW  Elec       q    Type
REMARK                         _______ _______ _______ _____ _____    ______ ____
ROOT
ATOM      1  O   UNL     1       4.225   3.061  17.097  0.00  0.00    +0.000 OA
ATOM      2  C   UNL     1       4.447   3.469  18.234  0.00  0.00    +0.000 C 
ATOM      3  N   UNL     1       5.682   3.946  18.630  0.00  0.00    +0.000 N 
ATOM      4  H   UNL     1       5.762   4.446  19.516  0.00  0.00    +0.000 HD
ENDROOT
BRANCH   2   5
ATOM      5  C   UNL     1       3.371   3.495  19.273  0.00  0.00    +0.000 A 
ATOM      6  C   UNL     1       2.600   2.334  19.443  0.00  0.00    +0.000 A 
ATOM      7  C   UNL     1       1.584   2.293  20.401  0.00  0.00    +0.000 A 
ATOM      8  C   UNL     1       1.323   3.412  21.190  0.00  0.00    +0.000 A 
ATOM      9  C   UNL     1       2.071   4.578  21.022  0.00  0.00    +0.000 A 
ATOM     10  C   UNL     1       3.085   4.619  20.066  0.00  0.00    +0.000 A 
BRANCH  10  11
ATOM     11  O   UNL     1       3.794   5.780  19.910  0.00  0.00    +0.000 OA
ATOM     12  H   UNL     1       4.748   5.586  19.899  0.00  0.00    +0.000 HD
ENDBRANCH  10  11
ENDBRANCH   2   5
BRANCH   3  13
ATOM     13  N   UNL     1       6.606   4.262  17.644  0.00  0.00    +0.000 N 
ATOM     14  H   UNL     1       7.332   3.567  17.474  0.00  0.00    +0.000 HD
BRANCH  13  15
ATOM     15  C   UNL     1       6.590   5.460  16.969  0.00  0.00    +0.000 C 
ATOM     16  S   UNL     1       7.432   6.833  17.416  0.00  0.00    +0.000 S 
BRANCH  15  17
ATOM     17  N   UNL     1       5.840   5.468  15.819  0.00  0.00    +0.000 N 
ATOM     18  H   UNL     1       4.874   5.762  15.922  0.00  0.00    +0.000 HD
BRANCH  17  19
ATOM     19  C   UNL     1       6.232   4.940  14.570  0.00  0.00    +0.000 A 
ATOM     20  C   UNL     1       5.478   3.978  13.894  0.00  0.00    +0.000 A 
ATOM     21  C   UNL     1       5.927   3.469  12.680  0.00  0.00    +0.000 A 
ATOM     22  C   UNL     1       7.118   3.955  12.172  0.00  0.00    +0.000 A 
ATOM     23  N   UNL     1       7.848   4.925  12.767  0.00  0.00    +0.000 NA
ATOM     24  C   UNL     1       7.381   5.407  13.944  0.00  0.00    +0.000 A 
ENDBRANCH  17  19
ENDBRANCH  15  17
ENDBRANCH  13  15
ENDBRANCH   3  13
TORSDOF 6
ENDMDL
