MODEL 1
REMARK VINA RESULT:      -7.0      0.000      0.000
REMARK  Name = 
REMARK  6 active torsions:
REMARK  status: ('A' for Active; 'I' for Inactive)
REMARK    1  A    between atoms: C_1  and  C_2
REMARK    2  A    between atoms: C_2  and  N_3
REMARK    3  A    between atoms: C_7  and  C_8
REMARK    4  A    between atoms: C_15  and  C_16
REMARK    5  A    between atoms: N_18  and  C_19
REMARK    6  A    between atoms: C_22  and  C_23
REMARK                            x       y       z     vdW  Elec       q    Type
REMARK                         _______ _______ _______ _____ _____    ______ ____
ROOT
ATOM      1  C   UNL     1      -2.096  12.160  19.961  0.00  0.00    +0.000 C 
ATOM      2  C   UNL     1      -3.083  11.853  18.828  0.00  0.00    +0.000 C 
ATOM      3  C   UNL     1      -2.439  10.745  18.028  0.00  0.00    +0.000 C 
ATOM      4  O   UNL     1      -2.859   9.622  17.887  0.00  0.00    +0.000 OA
ATOM      5  N   UNL     1      -1.177  11.110  17.467  0.00  0.00    +0.000 N 
ATOM      6  C   UNL     1      -0.302  11.634  18.384  0.00  0.00    +0.000 A 
ATOM      7  C   UNL     1      -0.749  12.611  19.304  0.00  0.00    +0.000 A 
ATOM      8  C   UNL     1       0.569  12.899  19.792  0.00  0.00    +0.000 A 
ATOM      9  C   UNL     1       1.716  13.586  19.022  0.00  0.00    +0.000 C 
ATOM     10  N   UNL     1       0.929  11.707  20.302  0.00  0.00    +0.000 NA
ATOM     11  N   UNL     1       0.571  10.896  19.248  0.00  0.00    +0.000 N 
ATOM     12  H   UNL     1      -1.201  11.534  16.543  0.00  0.00    +0.000 HD
ENDROOT
BRANCH  11  13
ATOM     13  C   UNL     1       1.048   9.577  19.158  0.00  0.00    +0.000 A 
ATOM     14  C   UNL     1       1.075   8.800  20.325  0.00  0.00    +0.000 A 
ATOM     15  C   UNL     1       1.784   7.607  20.343  0.00  0.00    +0.000 A 
ATOM     16  C   UNL     1       2.473   7.194  19.201  0.00  0.00    +0.000 A 
ATOM     17  C   UNL     1       3.468   6.077  19.279  0.00  0.00    +0.000 C 
ATOM     18  C   UNL     1       2.311   7.897  17.999  0.00  0.00    +0.000 A 
ATOM     19  C   UNL     1       1.587   9.087  17.969  0.00  0.00    +0.000 A 
ENDBRANCH  11  13
BRANCH   1  24
ATOM     20  N   UNL     1      -2.452  12.968  22.343  0.00  0.00    +0.000 N 
ATOM     21  C   UNL     1      -3.418  13.647  23.036  0.00  0.00    +0.000 A 
ATOM     22  N   UNL     1      -4.408  14.004  22.258  0.00  0.00    +0.000 NA
ATOM     23  C   UNL     1      -4.065  13.573  20.999  0.00  0.00    +0.000 A 
ATOM     24  C   UNL     1      -2.839  12.936  20.999  0.00  0.00    +0.000 A 
BRANCH  20  26
ATOM     25  C   UNL     1      -1.245  10.896  23.106  0.00  0.00    +0.000 C 
ATOM     26  C   UNL     1      -1.262  12.418  22.983  0.00  0.00    +0.000 C 
ENDBRANCH  20  26
ENDBRANCH   1  24
TORSDOF 3
ENDMDL
MODEL 2
REMARK VINA RESULT:      -6.9      7.036      9.381
REMARK  Name = 
REMARK  6 active torsions:
REMARK  status: ('A' for Active; 'I' for Inactive)
REMARK    1  A    between atoms: C_1  and  C_2
REMARK    2  A    between atoms: C_2  and  N_3
REMARK    3  A    between atoms: C_7  and  C_8
REMARK    4  A    between atoms: C_15  and  C_16
REMARK    5  A    between atoms: N_18  and  C_19
REMARK    6  A    between atoms: C_22  and  C_23
REMARK                            x       y       z     vdW  Elec       q    Type
REMARK                         _______ _______ _______ _____ _____    ______ ____
ROOT
ATOM      1  C   UNL     1       3.786   5.003  19.366  0.00  0.00    +0.000 C 
ATOM      2  C   UNL     1       2.886   6.230  19.176  0.00  0.00    +0.000 C 
ATOM      3  C   UNL     1       3.271   6.802  17.832  0.00  0.00    +0.000 C 
ATOM      4  O   UNL     1       2.566   6.882  16.855  0.00  0.00    +0.000 OA
ATOM      5  N   UNL     1       4.640   7.205  17.757  0.00  0.00    +0.000 N 
ATOM      6  C   UNL     1       5.519   6.229  18.153  0.00  0.00    +0.000 A 
ATOM      7  C   UNL     1       5.270   5.497  19.337  0.00  0.00    +0.000 A 
ATOM      8  C   UNL     1       6.551   4.852  19.327  0.00  0.00    +0.000 A 
ATOM      9  C   UNL     1       7.926   5.512  19.560  0.00  0.00    +0.000 C 
ATOM     10  N   UNL     1       6.495   4.168  18.168  0.00  0.00    +0.000 NA
ATOM     11  N   UNL     1       6.040   5.170  17.340  0.00  0.00    +0.000 N 
ATOM     12  H   UNL     1       4.842   8.162  18.034  0.00  0.00    +0.000 HD
ENDROOT
BRANCH  11  13
ATOM     13  C   UNL     1       6.126   5.046  15.943  0.00  0.00    +0.000 A 
ATOM     14  C   UNL     1       5.061   4.436  15.265  0.00  0.00    +0.000 A 
ATOM     15  C   UNL     1       5.219   4.046  13.942  0.00  0.00    +0.000 A 
ATOM     16  C   UNL     1       6.440   4.256  13.300  0.00  0.00    +0.000 A 
ATOM     17  C   UNL     1       6.730   3.594  11.987  0.00  0.00    +0.000 C 
ATOM     18  C   UNL     1       7.441   5.005  13.935  0.00  0.00    +0.000 A 
ATOM     19  C   UNL     1       7.283   5.413  15.258  0.00  0.00    +0.000 A 
ENDBRANCH  11  13
BRANCH   1  24
ATOM     20  N   UNL     1       3.351   2.790  20.536  0.00  0.00    +0.000 N 
ATOM     21  C   UNL     1       2.562   2.337  21.559  0.00  0.00    +0.000 A 
ATOM     22  N   UNL     1       1.872   3.307  22.102  0.00  0.00    +0.000 NA
ATOM     23  C   UNL     1       2.244   4.448  21.433  0.00  0.00    +0.000 A 
ATOM     24  C   UNL     1       3.184   4.176  20.456  0.00  0.00    +0.000 A 
BRANCH  20  26
ATOM     25  C   UNL     1       3.601   1.527  18.375  0.00  0.00    +0.000 C 
ATOM     26  C   UNL     1       4.187   1.905  19.733  0.00  0.00    +0.000 C 
ENDBRANCH  20  26
ENDBRANCH   1  24
TORSDOF 3
ENDMDL
MODEL 3
REMARK VINA RESULT:      -6.8      2.416      6.488
REMARK  Name = 
REMARK  6 active torsions:
REMARK  status: ('A' for Active; 'I' for Inactive)
REMARK    1  A    between atoms: C_1  and  C_2
REMARK    2  A    between atoms: C_2  and  N_3
REMARK    3  A    between atoms: C_7  and  C_8
REMARK    4  A    between atoms: C_15  and  C_16
REMARK    5  A    between atoms: N_18  and  C_19
REMARK    6  A    between atoms: C_22  and  C_23
REMARK                            x       y       z     vdW  Elec       q    Type
REMARK                         _______ _______ _______ _____ _____    ______ ____
ROOT
ATOM      1  C   UNL     1      -0.404  10.495  19.148  0.00  0.00    +0.000 C 
ATOM      2  C   UNL     1       0.422  11.777  19.309  0.00  0.00    +0.000 C 
ATOM      3  C   UNL     1      -0.586  12.904  19.297  0.00  0.00    +0.000 C 
ATOM      4  O   UNL     1      -0.828  13.662  20.204  0.00  0.00    +0.000 OA
ATOM      5  N   UNL     1      -1.340  12.978  18.086  0.00  0.00    +0.000 N 
ATOM      6  C   UNL     1      -1.920  11.787  17.730  0.00  0.00    +0.000 A 
ATOM      7  C   UNL     1      -1.165  10.592  17.784  0.00  0.00    +0.000 A 
ATOM      8  C   UNL     1      -2.172   9.807  17.130  0.00  0.00    +0.000 A 
ATOM      9  C   UNL     1      -2.623   9.915  15.658  0.00  0.00    +0.000 C 
ATOM     10  N   UNL     1      -3.198   9.917  17.994  0.00  0.00    +0.000 NA
ATOM     11  N   UNL     1      -3.178  11.279  18.194  0.00  0.00    +0.000 N 
ATOM     12  H   UNL     1      -0.943  13.549  17.344  0.00  0.00    +0.000 HD
ENDROOT
BRANCH  11  13
ATOM     13  C   UNL     1      -4.273  11.940  18.775  0.00  0.00    +0.000 A 
ATOM     14  C   UNL     1      -4.126  12.455  20.071  0.00  0.00    +0.000 A 
ATOM     15  C   UNL     1      -5.247  12.863  20.782  0.00  0.00    +0.000 A 
ATOM     16  C   UNL     1      -6.512  12.748  20.204  0.00  0.00    +0.000 A 
ATOM     17  C   UNL     1      -7.744  12.906  21.043  0.00  0.00    +0.000 C 
ATOM     18  C   UNL     1      -6.631  12.381  18.857  0.00  0.00    +0.000 A 
ATOM     19  C   UNL     1      -5.509  11.985  18.132  0.00  0.00    +0.000 A 
ENDBRANCH  11  13
BRANCH   1  24
ATOM     20  N   UNL     1       0.391   8.755  20.821  0.00  0.00    +0.000 N 
ATOM     21  C   UNL     1       1.411   7.847  20.912  0.00  0.00    +0.000 A 
ATOM     22  N   UNL     1       2.157   7.851  19.836  0.00  0.00    +0.000 NA
ATOM     23  C   UNL     1       1.589   8.775  18.993  0.00  0.00    +0.000 A 
ATOM     24  C   UNL     1       0.467   9.352  19.558  0.00  0.00    +0.000 A 
BRANCH  20  26
ATOM     25  C   UNL     1      -0.212  10.148  22.827  0.00  0.00    +0.000 C 
ATOM     26  C   UNL     1      -0.561   8.984  21.902  0.00  0.00    +0.000 C 
ENDBRANCH  20  26
ENDBRANCH   1  24
TORSDOF 3
ENDMDL
MODEL 4
REMARK VINA RESULT:      -6.8      0.707      1.205
REMARK  Name = 
REMARK  6 active torsions:
REMARK  status: ('A' for Active; 'I' for Inactive)
REMARK    1  A    between atoms: C_1  and  C_2
REMARK    2  A    between atoms: C_2  and  N_3
REMARK    3  A    between atoms: C_7  and  C_8
REMARK    4  A    between atoms: C_15  and  C_16
REMARK    5  A    between atoms: N_18  and  C_19
REMARK    6  A    between atoms: C_22  and  C_23
REMARK                            x       y       z     vdW  Elec       q    Type
REMARK                         _______ _______ _______ _____ _____    ______ ____
ROOT
ATOM      1  C   UNL     1      -2.480  12.204  19.945  0.00  0.00    +0.000 C 
ATOM      2  C   UNL     1      -3.365  11.714  18.793  0.00  0.00    +0.000 C 
ATOM      3  C   UNL     1      -2.493  10.775  17.993  0.00  0.00    +0.000 C 
ATOM      4  O   UNL     1      -2.667   9.591  17.833  0.00  0.00    +0.000 OA
ATOM      5  N   UNL     1      -1.326  11.402  17.457  0.00  0.00    +0.000 N 
ATOM      6  C   UNL     1      -0.594  12.084  18.394  0.00  0.00    +0.000 A 
ATOM      7  C   UNL     1      -1.248  12.935  19.316  0.00  0.00    +0.000 A 
ATOM      8  C   UNL     1      -0.026  13.485  19.830  0.00  0.00    +0.000 A 
ATOM      9  C   UNL     1       0.963  14.405  19.086  0.00  0.00    +0.000 C 
ATOM     10  N   UNL     1       0.567  12.387  20.334  0.00  0.00    +0.000 NA
ATOM     11  N   UNL     1       0.401  11.533  19.266  0.00  0.00    +0.000 N 
ATOM     12  H   UNL     1      -1.425  11.825  16.537  0.00  0.00    +0.000 HD
ENDROOT
BRANCH  11  13
ATOM     13  C   UNL     1       1.144  10.344  19.170  0.00  0.00    +0.000 A 
ATOM     14  C   UNL     1       1.839  10.090  17.979  0.00  0.00    +0.000 A 
ATOM     15  C   UNL     1       2.350   8.822  17.735  0.00  0.00    +0.000 A 
ATOM     16  C   UNL     1       2.160   7.808  18.675  0.00  0.00    +0.000 A 
ATOM     17  C   UNL     1       2.442   6.380  18.316  0.00  0.00    +0.000 C 
ATOM     18  C   UNL     1       1.604   8.112  19.926  0.00  0.00    +0.000 A 
ATOM     19  C   UNL     1       1.102   9.386  20.183  0.00  0.00    +0.000 A 
ENDBRANCH  11  13
BRANCH   1  24
ATOM     20  N   UNL     1      -3.031  12.892  22.328  0.00  0.00    +0.000 N 
ATOM     21  C   UNL     1      -4.128  13.344  23.012  0.00  0.00    +0.000 A 
ATOM     22  N   UNL     1      -5.160  13.494  22.221  0.00  0.00    +0.000 NA
ATOM     23  C   UNL     1      -4.718  13.158  20.965  0.00  0.00    +0.000 A 
ATOM     24  C   UNL     1      -3.384  12.795  20.978  0.00  0.00    +0.000 A 
BRANCH  20  26
ATOM     25  C   UNL     1      -1.443  11.113  23.130  0.00  0.00    +0.000 C 
ATOM     26  C   UNL     1      -1.760  12.599  22.981  0.00  0.00    +0.000 C 
ENDBRANCH  20  26
ENDBRANCH   1  24
TORSDOF 3
ENDMDL
MODEL 5
REMARK VINA RESULT:      -6.7      2.472      6.628
REMARK  Name = 
REMARK  6 active torsions:
REMARK  status: ('A' for Active; 'I' for Inactive)
REMARK    1  A    between atoms: C_1  and  C_2
REMARK    2  A    between atoms: C_2  and  N_3
REMARK    3  A    between atoms: C_7  and  C_8
REMARK    4  A    between atoms: C_15  and  C_16
REMARK    5  A    between atoms: N_18  and  C_19
REMARK    6  A    between atoms: C_22  and  C_23
REMARK                            x       y       z     vdW  Elec       q    Type
REMARK                         _______ _______ _______ _____ _____    ______ ____
ROOT
ATOM      1  C   UNL     1      -0.354  10.458  19.001  0.00  0.00    +0.000 C 
ATOM      2  C   UNL     1       0.486  11.738  19.099  0.00  0.00    +0.000 C 
ATOM      3  C   UNL     1      -0.511  12.872  19.060  0.00  0.00    +0.000 C 
ATOM      4  O   UNL     1      -0.732  13.667  19.941  0.00  0.00    +0.000 OA
ATOM      5  N   UNL     1      -1.284  12.908  17.859  0.00  0.00    +0.000 N 
ATOM      6  C   UNL     1      -1.882  11.710  17.559  0.00  0.00    +0.000 A 
ATOM      7  C   UNL     1      -1.137  10.510  17.647  0.00  0.00    +0.000 A 
ATOM      8  C   UNL     1      -2.162   9.711  17.039  0.00  0.00    +0.000 A 
ATOM      9  C   UNL     1      -2.635   9.768  15.572  0.00  0.00    +0.000 C 
ATOM     10  N   UNL     1      -3.172   9.864  17.915  0.00  0.00    +0.000 NA
ATOM     11  N   UNL     1      -3.136  11.233  18.062  0.00  0.00    +0.000 N 
ATOM     12  H   UNL     1      -0.895  13.446  17.089  0.00  0.00    +0.000 HD
ENDROOT
BRANCH  11  13
ATOM     13  C   UNL     1      -4.216  11.926  18.635  0.00  0.00    +0.000 A 
ATOM     14  C   UNL     1      -5.358  12.139  17.850  0.00  0.00    +0.000 A 
ATOM     15  C   UNL     1      -6.323  13.045  18.269  0.00  0.00    +0.000 A 
ATOM     16  C   UNL     1      -6.145  13.742  19.464  0.00  0.00    +0.000 A 
ATOM     17  C   UNL     1      -7.014  14.919  19.791  0.00  0.00    +0.000 C 
ATOM     18  C   UNL     1      -5.081  13.407  20.314  0.00  0.00    +0.000 A 
ATOM     19  C   UNL     1      -4.116  12.488  19.907  0.00  0.00    +0.000 A 
ENDBRANCH  11  13
BRANCH   1  24
ATOM     20  N   UNL     1       0.432   8.757  20.717  0.00  0.00    +0.000 N 
ATOM     21  C   UNL     1       1.450   7.849  20.832  0.00  0.00    +0.000 A 
ATOM     22  N   UNL     1       2.198   7.825  19.758  0.00  0.00    +0.000 NA
ATOM     23  C   UNL     1       1.634   8.729  18.891  0.00  0.00    +0.000 A 
ATOM     24  C   UNL     1       0.513   9.323  19.440  0.00  0.00    +0.000 A 
BRANCH  20  26
ATOM     25  C   UNL     1       0.079   9.651  23.042  0.00  0.00    +0.000 C 
ATOM     26  C   UNL     1      -0.521   9.015  21.790  0.00  0.00    +0.000 C 
ENDBRANCH  20  26
ENDBRANCH   1  24
TORSDOF 3
ENDMDL
MODEL 6
REMARK VINA RESULT:      -6.7      2.539      6.840
REMARK  Name = 
REMARK  6 active torsions:
REMARK  status: ('A' for Active; 'I' for Inactive)
REMARK    1  A    between atoms: C_1  and  C_2
REMARK    2  A    between atoms: C_2  and  N_3
REMARK    3  A    between atoms: C_7  and  C_8
REMARK    4  A    between atoms: C_15  and  C_16
REMARK    5  A    between atoms: N_18  and  C_19
REMARK    6  A    between atoms: C_22  and  C_23
REMARK                            x       y       z     vdW  Elec       q    Type
REMARK                         _______ _______ _______ _____ _____    ______ ____
ROOT
ATOM      1  C   UNL     1      -0.631  10.688  19.479  0.00  0.00    +0.000 C 
ATOM      2  C   UNL     1       0.121  12.017  19.618  0.00  0.00    +0.000 C 
ATOM      3  C   UNL     1      -0.907  13.088  19.337  0.00  0.00    +0.000 C 
ATOM      4  O   UNL     1      -1.305  13.924  20.112  0.00  0.00    +0.000 OA
ATOM      5  N   UNL     1      -1.474  13.002  18.029  0.00  0.00    +0.000 N 
ATOM      6  C   UNL     1      -1.959  11.755  17.725  0.00  0.00    +0.000 A 
ATOM      7  C   UNL     1      -1.184  10.608  18.017  0.00  0.00    +0.000 A 
ATOM      8  C   UNL     1      -2.057   9.715  17.313  0.00  0.00    +0.000 A 
ATOM      9  C   UNL     1      -2.287   9.649  15.789  0.00  0.00    +0.000 C 
ATOM     10  N   UNL     1      -3.203   9.865  18.003  0.00  0.00    +0.000 NA
ATOM     11  N   UNL     1      -3.255  11.240  18.055  0.00  0.00    +0.000 N 
ATOM     12  H   UNL     1      -0.989  13.511  17.294  0.00  0.00    +0.000 HD
ENDROOT
BRANCH  11  13
ATOM     13  C   UNL     1      -4.444  11.906  18.395  0.00  0.00    +0.000 A 
ATOM     14  C   UNL     1      -5.402  12.107  17.391  0.00  0.00    +0.000 A 
ATOM     15  C   UNL     1      -6.453  12.989  17.607  0.00  0.00    +0.000 A 
ATOM     16  C   UNL     1      -6.542  13.675  18.820  0.00  0.00    +0.000 A 
ATOM     17  C   UNL     1      -7.484  14.831  18.968  0.00  0.00    +0.000 C 
ATOM     18  C   UNL     1      -5.671  13.349  19.869  0.00  0.00    +0.000 A 
ATOM     19  C   UNL     1      -4.624  12.454  19.665  0.00  0.00    +0.000 A 
ENDBRANCH  11  13
BRANCH   1  24
ATOM     20  N   UNL     1       1.240   8.970  19.470  0.00  0.00    +0.000 N 
ATOM     21  C   UNL     1       1.698   7.983  20.301  0.00  0.00    +0.000 A 
ATOM     22  N   UNL     1       1.009   7.932  21.413  0.00  0.00    +0.000 NA
ATOM     23  C   UNL     1       0.083   8.944  21.324  0.00  0.00    +0.000 A 
ATOM     24  C   UNL     1       0.204   9.635  20.133  0.00  0.00    +0.000 A 
BRANCH  20  26
ATOM     25  C   UNL     1       2.802   8.156  17.673  0.00  0.00    +0.000 C 
ATOM     26  C   UNL     1       1.804   9.210  18.146  0.00  0.00    +0.000 C 
ENDBRANCH  20  26
ENDBRANCH   1  24
TORSDOF 3
ENDMDL
MODEL 7
REMARK VINA RESULT:      -6.5      1.813      3.244
REMARK  Name = 
REMARK  6 active torsions:
REMARK  status: ('A' for Active; 'I' for Inactive)
REMARK    1  A    between atoms: C_1  and  C_2
REMARK    2  A    between atoms: C_2  and  N_3
REMARK    3  A    between atoms: C_7  and  C_8
REMARK    4  A    between atoms: C_15  and  C_16
REMARK    5  A    between atoms: N_18  and  C_19
REMARK    6  A    between atoms: C_22  and  C_23
REMARK                            x       y       z     vdW  Elec       q    Type
REMARK                         _______ _______ _______ _____ _____    ______ ____
ROOT
ATOM      1  C   UNL     1      -1.313  11.965  20.446  0.00  0.00    +0.000 C 
ATOM      2  C   UNL     1      -0.486  13.175  19.996  0.00  0.00    +0.000 C 
ATOM      3  C   UNL     1       0.808  12.600  19.469  0.00  0.00    +0.000 C 
ATOM      4  O   UNL     1       1.212  12.661  18.333  0.00  0.00    +0.000 OA
ATOM      5  N   UNL     1       1.543  11.865  20.449  0.00  0.00    +0.000 N 
ATOM      6  C   UNL     1       0.798  10.908  21.087  0.00  0.00    +0.000 A 
ATOM      7  C   UNL     1      -0.498  11.224  21.559  0.00  0.00    +0.000 A 
ATOM      8  C   UNL     1      -0.650   9.988  22.271  0.00  0.00    +0.000 A 
ATOM      9  C   UNL     1       0.122   9.540  23.528  0.00  0.00    +0.000 C 
ATOM     10  N   UNL     1      -0.571   9.093  21.268  0.00  0.00    +0.000 NA
ATOM     11  N   UNL     1       0.549   9.573  20.628  0.00  0.00    +0.000 N 
ATOM     12  H   UNL     1       2.204  12.399  21.008  0.00  0.00    +0.000 HD
ENDROOT
BRANCH  11  13
ATOM     13  C   UNL     1       1.240   8.784  19.692  0.00  0.00    +0.000 A 
ATOM     14  C   UNL     1       1.836   7.596  20.139  0.00  0.00    +0.000 A 
ATOM     15  C   UNL     1       2.749   6.936  19.328  0.00  0.00    +0.000 A 
ATOM     16  C   UNL     1       3.073   7.465  18.078  0.00  0.00    +0.000 A 
ATOM     17  C   UNL     1       4.252   6.940  17.316  0.00  0.00    +0.000 C 
ATOM     18  C   UNL     1       2.358   8.563  17.580  0.00  0.00    +0.000 A 
ATOM     19  C   UNL     1       1.428   9.222  18.382  0.00  0.00    +0.000 A 
ENDBRANCH  11  13
BRANCH   1  24
ATOM     20  N   UNL     1      -3.682  12.263  19.578  0.00  0.00    +0.000 N 
ATOM     21  C   UNL     1      -4.820  12.910  19.977  0.00  0.00    +0.000 A 
ATOM     22  N   UNL     1      -4.656  13.508  21.130  0.00  0.00    +0.000 NA
ATOM     23  C   UNL     1      -3.371  13.217  21.520  0.00  0.00    +0.000 A 
ATOM     24  C   UNL     1      -2.728  12.422  20.589  0.00  0.00    +0.000 A 
BRANCH  20  26
ATOM     25  C   UNL     1      -4.918  11.126  17.704  0.00  0.00    +0.000 C 
ATOM     26  C   UNL     1      -3.582  11.555  18.307  0.00  0.00    +0.000 C 
ENDBRANCH  20  26
ENDBRANCH   1  24
TORSDOF 3
ENDMDL
MODEL 8
REMARK VINA RESULT:      -6.5      2.492      6.748
REMARK  Name = 
REMARK  6 active torsions:
REMARK  status: ('A' for Active; 'I' for Inactive)
REMARK    1  A    between atoms: C_1  and  C_2
REMARK    2  A    between atoms: C_2  and  N_3
REMARK    3  A    between atoms: C_7  and  C_8
REMARK    4  A    between atoms: C_15  and  C_16
REMARK    5  A    between atoms: N_18  and  C_19
REMARK    6  A    between atoms: C_22  and  C_23
REMARK                            x       y       z     vdW  Elec       q    Type
REMARK                         _______ _______ _______ _____ _____    ______ ____
ROOT
ATOM      1  C   UNL     1      -0.457  10.650  19.451  0.00  0.00    +0.000 C 
ATOM      2  C   UNL     1       0.356  11.948  19.527  0.00  0.00    +0.000 C 
ATOM      3  C   UNL     1      -0.648  13.059  19.328  0.00  0.00    +0.000 C 
ATOM      4  O   UNL     1      -0.950  13.909  20.130  0.00  0.00    +0.000 OA
ATOM      5  N   UNL     1      -1.320  12.997  18.068  0.00  0.00    +0.000 N 
ATOM      6  C   UNL     1      -1.877  11.772  17.806  0.00  0.00    +0.000 A 
ATOM      7  C   UNL     1      -1.127  10.594  18.037  0.00  0.00    +0.000 A 
ATOM      8  C   UNL     1      -2.088   9.737  17.406  0.00  0.00    +0.000 A 
ATOM      9  C   UNL     1      -2.441   9.684  15.905  0.00  0.00    +0.000 C 
ATOM     10  N   UNL     1      -3.169   9.932  18.185  0.00  0.00    +0.000 NA
ATOM     11  N   UNL     1      -3.162  11.308  18.238  0.00  0.00    +0.000 N 
ATOM     12  H   UNL     1      -0.876  13.489  17.297  0.00  0.00    +0.000 HD
ENDROOT
BRANCH  11  13
ATOM     13  C   UNL     1      -4.293  12.019  18.672  0.00  0.00    +0.000 A 
ATOM     14  C   UNL     1      -4.239  12.654  19.921  0.00  0.00    +0.000 A 
ATOM     15  C   UNL     1      -5.407  13.126  20.505  0.00  0.00    +0.000 A 
ATOM     16  C   UNL     1      -6.627  12.957  19.848  0.00  0.00    +0.000 A 
ATOM     17  C   UNL     1      -7.916  13.192  20.575  0.00  0.00    +0.000 C 
ATOM     18  C   UNL     1      -6.648  12.464  18.536  0.00  0.00    +0.000 A 
ATOM     19  C   UNL     1      -5.478  12.002  17.937  0.00  0.00    +0.000 A 
ENDBRANCH  11  13
BRANCH   1  24
ATOM     20  N   UNL     1       1.323   8.844  19.290  0.00  0.00    +0.000 N 
ATOM     21  C   UNL     1       1.809   7.843  20.088  0.00  0.00    +0.000 A 
ATOM     22  N   UNL     1       1.225   7.835  21.259  0.00  0.00    +0.000 NA
ATOM     23  C   UNL     1       0.344   8.889  21.243  0.00  0.00    +0.000 A 
ATOM     24  C   UNL     1       0.385   9.563  20.037  0.00  0.00    +0.000 A 
BRANCH  20  26
ATOM     25  C   UNL     1       2.924   8.146  17.479  0.00  0.00    +0.000 C 
ATOM     26  C   UNL     1       1.771   9.046  17.917  0.00  0.00    +0.000 C 
ENDBRANCH  20  26
ENDBRANCH   1  24
TORSDOF 3
ENDMDL
MODEL 9
REMARK VINA RESULT:      -6.5      2.683      6.994
REMARK  Name = 
REMARK  6 active torsions:
REMARK  status: ('A' for Active; 'I' for Inactive)
REMARK    1  A    between atoms: C_1  and  C_2
REMARK    2  A    between atoms: C_2  and  N_3
REMARK    3  A    between atoms: C_7  and  C_8
REMARK    4  A    between atoms: C_15  and  C_16
REMARK    5  A    between atoms: N_18  and  C_19
REMARK    6  A    between atoms: C_22  and  C_23
REMARK                            x       y       z     vdW  Elec       q    Type
REMARK                         _______ _______ _______ _____ _____    ______ ____
ROOT
ATOM      1  C   UNL     1       1.595   7.801  19.655  0.00  0.00    +0.000 C 
ATOM      2  C   UNL     1       1.439   7.708  21.178  0.00  0.00    +0.000 C 
ATOM      3  C   UNL     1       0.252   8.582  21.511  0.00  0.00    +0.000 C 
ATOM      4  O   UNL     1      -0.798   8.219  21.985  0.00  0.00    +0.000 OA
ATOM      5  N   UNL     1       0.431   9.949  21.138  0.00  0.00    +0.000 N 
ATOM      6  C   UNL     1       0.818  10.113  19.832  0.00  0.00    +0.000 A 
ATOM      7  C   UNL     1       1.847   9.303  19.297  0.00  0.00    +0.000 A 
ATOM      8  C   UNL     1       1.938  10.051  18.076  0.00  0.00    +0.000 A 
ATOM      9  C   UNL     1       2.453  11.495  17.907  0.00  0.00    +0.000 C 
ATOM     10  N   UNL     1       0.704   9.879  17.567  0.00  0.00    +0.000 NA
ATOM     11  N   UNL     1      -0.042  10.167  18.687  0.00  0.00    +0.000 N 
ATOM     12  H   UNL     1       0.857  10.553  21.835  0.00  0.00    +0.000 HD
ENDROOT
BRANCH  11  13
ATOM     13  C   UNL     1      -1.416  10.445  18.588  0.00  0.00    +0.000 A 
ATOM     14  C   UNL     1      -2.183   9.688  17.691  0.00  0.00    +0.000 A 
ATOM     15  C   UNL     1      -3.465  10.103  17.358  0.00  0.00    +0.000 A 
ATOM     16  C   UNL     1      -3.978  11.277  17.912  0.00  0.00    +0.000 A 
ATOM     17  C   UNL     1      -5.226  11.894  17.357  0.00  0.00    +0.000 C 
ATOM     18  C   UNL     1      -3.266  11.938  18.923  0.00  0.00    +0.000 A 
ATOM     19  C   UNL     1      -1.985  11.518  19.273  0.00  0.00    +0.000 A 
ENDBRANCH  11  13
BRANCH   1  24
ATOM     20  N   UNL     1       2.283   5.355  19.684  0.00  0.00    +0.000 N 
ATOM     21  C   UNL     1       3.328   4.604  19.215  0.00  0.00    +0.000 A 
ATOM     22  N   UNL     1       4.183   5.333  18.544  0.00  0.00    +0.000 NA
ATOM     23  C   UNL     1       3.667   6.607  18.544  0.00  0.00    +0.000 A 
ATOM     24  C   UNL     1       2.467   6.665  19.228  0.00  0.00    +0.000 A 
BRANCH  20  26
ATOM     25  C   UNL     1       1.174   3.270  20.550  0.00  0.00    +0.000 C 
ATOM     26  C   UNL     1       1.213   4.796  20.501  0.00  0.00    +0.000 C 
ENDBRANCH  20  26
ENDBRANCH   1  24
TORSDOF 3
ENDMDL
