MODEL 1
REMARK VINA RESULT:      -7.9      0.000      0.000
REMARK  Name = 
REMARK  8 active torsions:
REMARK  status: ('A' for Active; 'I' for Inactive)
REMARK    1  A    between atoms: C_3  and  C_4
REMARK    2  A    between atoms: C_4  and  N_5
REMARK    3  A    between atoms: C_12  and  N_13
REMARK    4  A    between atoms: C_17  and  C_18
REMARK    5  A    between atoms: C_21  and  N_22
REMARK    6  A    between atoms: N_22  and  C_23
REMARK    7  A    between atoms: C_23  and  C_24
REMARK    8  A    between atoms: C_24  and  C_25
REMARK                            x       y       z     vdW  Elec       q    Type
REMARK                         _______ _______ _______ _____ _____    ______ ____
ROOT
ATOM      1  N   UNL     1       1.738   9.247  17.759  0.00  0.00    +0.000 N 
ATOM      2  C   UNL     1       2.522   8.113  17.983  0.00  0.00    +0.000 A 
ATOM      3  N   UNL     1       3.458   7.856  17.064  0.00  0.00    +0.000 NA
ATOM      4  C   UNL     1       4.300   6.834  17.333  0.00  0.00    +0.000 A 
ATOM      5  C   UNL     1       4.253   6.044  18.467  0.00  0.00    +0.000 A 
ATOM      6  C   UNL     1       3.159   6.326  19.288  0.00  0.00    +0.000 A 
ATOM      7  N   UNL     1       2.323   7.353  19.058  0.00  0.00    +0.000 NA
ATOM      8  H   UNL     1       2.004   9.638  16.869  0.00  0.00    +0.000 HD
ENDROOT
BRANCH   1  13
ATOM      9  C   UNL     1      -0.694  10.894  20.085  0.00  0.00    +0.000 A 
ATOM     10  C   UNL     1      -0.026  12.095  20.333  0.00  0.00    +0.000 A 
ATOM     11  C   UNL     1       1.204  12.355  19.718  0.00  0.00    +0.000 A 
ATOM     12  C   UNL     1       1.754  11.370  18.880  0.00  0.00    +0.000 A 
ATOM     13  C   UNL     1       1.115  10.139  18.640  0.00  0.00    +0.000 A 
ATOM     14  C   UNL     1      -0.136   9.937  19.231  0.00  0.00    +0.000 A 
BRANCH  11  15
ATOM     15  C   UNL     1       1.887  13.698  19.819  0.00  0.00    +0.000 C 
BRANCH  15  16
ATOM     16  N   UNL     1       1.919  14.583  18.658  0.00  0.00    +0.000 NA
ATOM     17  C   UNL     1       3.203  14.780  17.979  0.00  0.00    +0.000 C 
ATOM     18  C   UNL     1       4.000  16.007  18.458  0.00  0.00    +0.000 C 
ATOM     19  O   UNL     1       3.200  17.197  18.453  0.00  0.00    +0.000 OA
ATOM     20  C   UNL     1       2.027  17.028  19.258  0.00  0.00    +0.000 C 
ATOM     21  C   UNL     1       1.183  15.843  18.777  0.00  0.00    +0.000 C 
ENDBRANCH  15  16
ENDBRANCH  11  15
ENDBRANCH   1  13
BRANCH   5  22
ATOM     22  C   UNL     1       5.260   4.978  18.822  0.00  0.00    +0.000 C 
ATOM     23  C   UNL     1       6.465   4.572  18.014  0.00  0.00    +0.000 C 
ATOM     24  C   UNL     1       6.640   5.506  19.169  0.00  0.00    +0.000 C 
ENDBRANCH   5  22
BRANCH   6  25
ATOM     25  N   UNL     1       2.943   5.528  20.438  0.00  0.00    +0.000 N 
ATOM     26  H   UNL     1       3.287   6.031  21.250  0.00  0.00    +0.000 HD
BRANCH  25  27
ATOM     27  C   UNL     1       1.557   5.064  20.553  0.00  0.00    +0.000 C 
BRANCH  27  28
ATOM     28  C   UNL     1       1.466   3.587  20.938  0.00  0.00    +0.000 C 
BRANCH  28  29
ATOM     29  C   UNL     1       1.962   2.747  19.811  0.00  0.00    +0.000 A 
ATOM     30  C   UNL     1       1.313   2.353  18.660  0.00  0.00    +0.000 A 
ATOM     31  N   UNL     1       2.267   1.726  17.907  0.00  0.00    +0.000 N 
ATOM     32  C   UNL     1       3.433   1.748  18.617  0.00  0.00    +0.000 A 
ATOM     33  N   UNL     1       3.276   2.342  19.777  0.00  0.00    +0.000 NA
ATOM     34  H   UNL     1       2.148   1.343  16.979  0.00  0.00    +0.000 HD
ENDBRANCH  28  29
ENDBRANCH  27  28
ENDBRANCH  25  27
ENDBRANCH   6  25
TORSDOF 8
ENDMDL
MODEL 2
REMARK VINA RESULT:      -7.7      1.329      1.553
REMARK  Name = 
REMARK  8 active torsions:
REMARK  status: ('A' for Active; 'I' for Inactive)
REMARK    1  A    between atoms: C_3  and  C_4
REMARK    2  A    between atoms: C_4  and  N_5
REMARK    3  A    between atoms: C_12  and  N_13
REMARK    4  A    between atoms: C_17  and  C_18
REMARK    5  A    between atoms: C_21  and  N_22
REMARK    6  A    between atoms: N_22  and  C_23
REMARK    7  A    between atoms: C_23  and  C_24
REMARK    8  A    between atoms: C_24  and  C_25
REMARK                            x       y       z     vdW  Elec       q    Type
REMARK                         _______ _______ _______ _____ _____    ______ ____
ROOT
ATOM      1  N   UNL     1       1.734   8.969  18.024  0.00  0.00    +0.000 N 
ATOM      2  C   UNL     1       2.588   7.872  18.159  0.00  0.00    +0.000 A 
ATOM      3  N   UNL     1       3.526   7.739  17.216  0.00  0.00    +0.000 NA
ATOM      4  C   UNL     1       4.431   6.753  17.403  0.00  0.00    +0.000 A 
ATOM      5  C   UNL     1       4.446   5.882  18.477  0.00  0.00    +0.000 A 
ATOM      6  C   UNL     1       3.348   6.038  19.326  0.00  0.00    +0.000 A 
ATOM      7  N   UNL     1       2.448   7.026  19.177  0.00  0.00    +0.000 NA
ATOM      8  H   UNL     1       1.965   9.439  17.163  0.00  0.00    +0.000 HD
ENDROOT
BRANCH   1  13
ATOM      9  C   UNL     1      -0.159  10.129  21.041  0.00  0.00    +0.000 A 
ATOM     10  C   UNL     1      -0.312  11.483  20.733  0.00  0.00    +0.000 A 
ATOM     11  C   UNL     1       0.193  11.991  19.530  0.00  0.00    +0.000 A 
ATOM     12  C   UNL     1       0.876  11.116  18.669  0.00  0.00    +0.000 A 
ATOM     13  C   UNL     1       1.070   9.756  18.972  0.00  0.00    +0.000 A 
ATOM     14  C   UNL     1       0.508   9.273  20.158  0.00  0.00    +0.000 A 
BRANCH  11  15
ATOM     15  C   UNL     1      -0.086  13.403  19.073  0.00  0.00    +0.000 C 
BRANCH  15  16
ATOM     16  N   UNL     1       0.714  14.506  19.597  0.00  0.00    +0.000 NA
ATOM     17  C   UNL     1       2.163  14.312  19.706  0.00  0.00    +0.000 C 
ATOM     18  C   UNL     1       2.640  13.815  21.083  0.00  0.00    +0.000 C 
ATOM     19  O   UNL     1       2.123  14.622  22.150  0.00  0.00    +0.000 OA
ATOM     20  C   UNL     1       0.692  14.662  22.112  0.00  0.00    +0.000 C 
ATOM     21  C   UNL     1       0.182  15.200  20.770  0.00  0.00    +0.000 C 
ENDBRANCH  15  16
ENDBRANCH  11  15
ENDBRANCH   1  13
BRANCH   5  22
ATOM     22  C   UNL     1       5.520   4.858  18.746  0.00  0.00    +0.000 C 
ATOM     23  C   UNL     1       6.799   4.668  17.972  0.00  0.00    +0.000 C 
ATOM     24  C   UNL     1       6.828   5.433  19.257  0.00  0.00    +0.000 C 
ENDBRANCH   5  22
BRANCH   6  25
ATOM     25  N   UNL     1       3.194   5.147  20.416  0.00  0.00    +0.000 N 
ATOM     26  H   UNL     1       3.793   5.458  21.174  0.00  0.00    +0.000 HD
BRANCH  25  27
ATOM     27  C   UNL     1       1.791   4.949  20.792  0.00  0.00    +0.000 C 
BRANCH  27  28
ATOM     28  C   UNL     1       1.437   3.472  20.969  0.00  0.00    +0.000 C 
BRANCH  28  29
ATOM     29  C   UNL     1       1.953   2.693  19.807  0.00  0.00    +0.000 A 
ATOM     30  C   UNL     1       1.327   2.369  18.622  0.00  0.00    +0.000 A 
ATOM     31  N   UNL     1       2.294   1.780  17.855  0.00  0.00    +0.000 N 
ATOM     32  C   UNL     1       3.444   1.754  18.590  0.00  0.00    +0.000 A 
ATOM     33  N   UNL     1       3.266   2.283  19.777  0.00  0.00    +0.000 NA
ATOM     34  H   UNL     1       2.194   1.451  16.905  0.00  0.00    +0.000 HD
ENDBRANCH  28  29
ENDBRANCH  27  28
ENDBRANCH  25  27
ENDBRANCH   6  25
TORSDOF 8
ENDMDL
MODEL 3
REMARK VINA RESULT:      -7.7      2.674      3.198
REMARK  Name = 
REMARK  8 active torsions:
REMARK  status: ('A' for Active; 'I' for Inactive)
REMARK    1  A    between atoms: C_3  and  C_4
REMARK    2  A    between atoms: C_4  and  N_5
REMARK    3  A    between atoms: C_12  and  N_13
REMARK    4  A    between atoms: C_17  and  C_18
REMARK    5  A    between atoms: C_21  and  N_22
REMARK    6  A    between atoms: N_22  and  C_23
REMARK    7  A    between atoms: C_23  and  C_24
REMARK    8  A    between atoms: C_24  and  C_25
REMARK                            x       y       z     vdW  Elec       q    Type
REMARK                         _______ _______ _______ _____ _____    ______ ____
ROOT
ATOM      1  N   UNL     1       1.194   8.970  19.156  0.00  0.00    +0.000 N 
ATOM      2  C   UNL     1       2.109   7.941  18.921  0.00  0.00    +0.000 A 
ATOM      3  N   UNL     1       2.877   8.076  17.834  0.00  0.00    +0.000 NA
ATOM      4  C   UNL     1       3.846   7.149  17.665  0.00  0.00    +0.000 A 
ATOM      5  C   UNL     1       4.085   6.085  18.515  0.00  0.00    +0.000 A 
ATOM      6  C   UNL     1       3.142   5.979  19.541  0.00  0.00    +0.000 A 
ATOM      7  N   UNL     1       2.186   6.901  19.747  0.00  0.00    +0.000 NA
ATOM      8  H   UNL     1       1.252   9.620  18.387  0.00  0.00    +0.000 HD
ENDROOT
BRANCH   1  13
ATOM      9  C   UNL     1      -0.298   9.342  22.572  0.00  0.00    +0.000 A 
ATOM     10  C   UNL     1      -0.453  10.729  22.626  0.00  0.00    +0.000 A 
ATOM     11  C   UNL     1      -0.083  11.520  21.532  0.00  0.00    +0.000 A 
ATOM     12  C   UNL     1       0.472  10.888  20.406  0.00  0.00    +0.000 A 
ATOM     13  C   UNL     1       0.667   9.496  20.342  0.00  0.00    +0.000 A 
ATOM     14  C   UNL     1       0.238   8.733  21.432  0.00  0.00    +0.000 A 
BRANCH  11  15
ATOM     15  C   UNL     1      -0.380  12.999  21.471  0.00  0.00    +0.000 C 
BRANCH  15  16
ATOM     16  N   UNL     1      -1.485  13.483  20.647  0.00  0.00    +0.000 NA
ATOM     17  C   UNL     1      -1.839  14.902  20.737  0.00  0.00    +0.000 C 
ATOM     18  C   UNL     1      -2.957  15.220  21.747  0.00  0.00    +0.000 C 
ATOM     19  O   UNL     1      -4.109  14.389  21.547  0.00  0.00    +0.000 OA
ATOM     20  C   UNL     1      -3.757  13.003  21.623  0.00  0.00    +0.000 C 
ATOM     21  C   UNL     1      -2.680  12.639  20.596  0.00  0.00    +0.000 C 
ENDBRANCH  15  16
ENDBRANCH  11  15
ENDBRANCH   1  13
BRANCH   5  22
ATOM     22  C   UNL     1       5.235   5.118  18.389  0.00  0.00    +0.000 C 
ATOM     23  C   UNL     1       6.540   5.358  17.676  0.00  0.00    +0.000 C 
ATOM     24  C   UNL     1       6.480   5.513  19.163  0.00  0.00    +0.000 C 
ENDBRANCH   5  22
BRANCH   6  25
ATOM     25  N   UNL     1       3.220   4.879  20.430  0.00  0.00    +0.000 N 
ATOM     26  H   UNL     1       3.970   5.051  21.090  0.00  0.00    +0.000 HD
BRANCH  25  27
ATOM     27  C   UNL     1       1.929   4.557  21.046  0.00  0.00    +0.000 C 
BRANCH  27  28
ATOM     28  C   UNL     1       1.649   3.054  21.063  0.00  0.00    +0.000 C 
BRANCH  28  29
ATOM     29  C   UNL     1       2.082   2.452  19.770  0.00  0.00    +0.000 A 
ATOM     30  C   UNL     1       1.362   2.252  18.612  0.00  0.00    +0.000 A 
ATOM     31  N   UNL     1       2.274   1.808  17.694  0.00  0.00    +0.000 N 
ATOM     32  C   UNL     1       3.486   1.741  18.317  0.00  0.00    +0.000 A 
ATOM     33  N   UNL     1       3.400   2.107  19.574  0.00  0.00    +0.000 NA
ATOM     34  H   UNL     1       2.097   1.597  16.721  0.00  0.00    +0.000 HD
ENDBRANCH  28  29
ENDBRANCH  27  28
ENDBRANCH  25  27
ENDBRANCH   6  25
TORSDOF 8
ENDMDL
MODEL 4
REMARK VINA RESULT:      -7.6      1.012      1.187
REMARK  Name = 
REMARK  8 active torsions:
REMARK  status: ('A' for Active; 'I' for Inactive)
REMARK    1  A    between atoms: C_3  and  C_4
REMARK    2  A    between atoms: C_4  and  N_5
REMARK    3  A    between atoms: C_12  and  N_13
REMARK    4  A    between atoms: C_17  and  C_18
REMARK    5  A    between atoms: C_21  and  N_22
REMARK    6  A    between atoms: N_22  and  C_23
REMARK    7  A    between atoms: C_23  and  C_24
REMARK    8  A    between atoms: C_24  and  C_25
REMARK                            x       y       z     vdW  Elec       q    Type
REMARK                         _______ _______ _______ _____ _____    ______ ____
ROOT
ATOM      1  N   UNL     1       1.614   8.949  17.473  0.00  0.00    +0.000 N 
ATOM      2  C   UNL     1       2.493   7.912  17.793  0.00  0.00    +0.000 A 
ATOM      3  N   UNL     1       3.533   7.749  16.968  0.00  0.00    +0.000 NA
ATOM      4  C   UNL     1       4.453   6.829  17.335  0.00  0.00    +0.000 A 
ATOM      5  C   UNL     1       4.387   6.053  18.478  0.00  0.00    +0.000 A 
ATOM      6  C   UNL     1       3.197   6.222  19.190  0.00  0.00    +0.000 A 
ATOM      7  N   UNL     1       2.279   7.148  18.861  0.00  0.00    +0.000 NA
ATOM      8  H   UNL     1       1.918   9.357  16.602  0.00  0.00    +0.000 HD
ENDROOT
BRANCH   1  13
ATOM      9  C   UNL     1      -1.290  10.731  19.028  0.00  0.00    +0.000 A 
ATOM     10  C   UNL     1      -0.618  11.575  19.915  0.00  0.00    +0.000 A 
ATOM     11  C   UNL     1       0.781  11.561  19.976  0.00  0.00    +0.000 A 
ATOM     12  C   UNL     1       1.476  10.659  19.151  0.00  0.00    +0.000 A 
ATOM     13  C   UNL     1       0.819   9.778  18.273  0.00  0.00    +0.000 A 
ATOM     14  C   UNL     1      -0.575   9.857  18.203  0.00  0.00    +0.000 A 
BRANCH  11  15
ATOM     15  C   UNL     1       1.562  12.563  20.791  0.00  0.00    +0.000 C 
BRANCH  15  16
ATOM     16  N   UNL     1       1.736  13.924  20.293  0.00  0.00    +0.000 NA
ATOM     17  C   UNL     1       1.857  14.116  18.846  0.00  0.00    +0.000 C 
ATOM     18  C   UNL     1       3.304  14.149  18.323  0.00  0.00    +0.000 C 
ATOM     19  O   UNL     1       4.116  15.074  19.059  0.00  0.00    +0.000 OA
ATOM     20  C   UNL     1       4.106  14.763  20.457  0.00  0.00    +0.000 C 
ATOM     21  C   UNL     1       2.681  14.771  21.022  0.00  0.00    +0.000 C 
ENDBRANCH  15  16
ENDBRANCH  11  15
ENDBRANCH   1  13
BRANCH   5  22
ATOM     22  C   UNL     1       5.466   5.109  18.947  0.00  0.00    +0.000 C 
ATOM     23  C   UNL     1       6.650   4.626  18.149  0.00  0.00    +0.000 C 
ATOM     24  C   UNL     1       6.832   5.749  19.120  0.00  0.00    +0.000 C 
ENDBRANCH   5  22
BRANCH   6  25
ATOM     25  N   UNL     1       2.963   5.418  20.333  0.00  0.00    +0.000 N 
ATOM     26  H   UNL     1       3.407   5.858  21.132  0.00  0.00    +0.000 HD
BRANCH  25  27
ATOM     27  C   UNL     1       1.544   5.103  20.522  0.00  0.00    +0.000 C 
BRANCH  27  28
ATOM     28  C   UNL     1       1.312   3.626  20.841  0.00  0.00    +0.000 C 
BRANCH  28  29
ATOM     29  C   UNL     1       1.904   2.784  19.763  0.00  0.00    +0.000 A 
ATOM     30  C   UNL     1       1.347   2.364  18.574  0.00  0.00    +0.000 A 
ATOM     31  N   UNL     1       2.365   1.750  17.897  0.00  0.00    +0.000 N 
ATOM     32  C   UNL     1       3.476   1.805  18.687  0.00  0.00    +0.000 A 
ATOM     33  N   UNL     1       3.226   2.408  19.826  0.00  0.00    +0.000 NA
ATOM     34  H   UNL     1       2.319   1.354  16.968  0.00  0.00    +0.000 HD
ENDBRANCH  28  29
ENDBRANCH  27  28
ENDBRANCH  25  27
ENDBRANCH   6  25
TORSDOF 8
ENDMDL
MODEL 5
REMARK VINA RESULT:      -7.6      3.371      4.318
REMARK  Name = 
REMARK  8 active torsions:
REMARK  status: ('A' for Active; 'I' for Inactive)
REMARK    1  A    between atoms: C_3  and  C_4
REMARK    2  A    between atoms: C_4  and  N_5
REMARK    3  A    between atoms: C_12  and  N_13
REMARK    4  A    between atoms: C_17  and  C_18
REMARK    5  A    between atoms: C_21  and  N_22
REMARK    6  A    between atoms: N_22  and  C_23
REMARK    7  A    between atoms: C_23  and  C_24
REMARK    8  A    between atoms: C_24  and  C_25
REMARK                            x       y       z     vdW  Elec       q    Type
REMARK                         _______ _______ _______ _____ _____    ______ ____
ROOT
ATOM      1  N   UNL     1       0.744   9.673  19.355  0.00  0.00    +0.000 N 
ATOM      2  C   UNL     1       1.612   8.719  18.819  0.00  0.00    +0.000 A 
ATOM      3  N   UNL     1       2.329   9.109  17.759  0.00  0.00    +0.000 NA
ATOM      4  C   UNL     1       3.257   8.236  17.309  0.00  0.00    +0.000 A 
ATOM      5  C   UNL     1       3.503   6.988  17.851  0.00  0.00    +0.000 A 
ATOM      6  C   UNL     1       2.609   6.644  18.867  0.00  0.00    +0.000 A 
ATOM      7  N   UNL     1       1.695   7.502  19.352  0.00  0.00    +0.000 NA
ATOM      8  H   UNL     1       0.785  10.494  18.773  0.00  0.00    +0.000 HD
ENDROOT
BRANCH   1  13
ATOM      9  C   UNL     1      -0.000   9.312  23.009  0.00  0.00    +0.000 A 
ATOM     10  C   UNL     1      -0.767  10.459  23.221  0.00  0.00    +0.000 A 
ATOM     11  C   UNL     1      -1.046  11.325  22.157  0.00  0.00    +0.000 A 
ATOM     12  C   UNL     1      -0.509  11.025  20.893  0.00  0.00    +0.000 A 
ATOM     13  C   UNL     1       0.293   9.892  20.663  0.00  0.00    +0.000 A 
ATOM     14  C   UNL     1       0.506   9.024  21.737  0.00  0.00    +0.000 A 
BRANCH  11  15
ATOM     15  C   UNL     1      -2.002  12.486  22.292  0.00  0.00    +0.000 C 
BRANCH  15  16
ATOM     16  N   UNL     1      -3.417  12.233  22.549  0.00  0.00    +0.000 NA
ATOM     17  C   UNL     1      -4.392  12.732  21.575  0.00  0.00    +0.000 C 
ATOM     18  C   UNL     1      -4.973  14.119  21.905  0.00  0.00    +0.000 C 
ATOM     19  O   UNL     1      -5.472  14.182  23.248  0.00  0.00    +0.000 OA
ATOM     20  C   UNL     1      -4.448  13.842  24.190  0.00  0.00    +0.000 C 
ATOM     21  C   UNL     1      -3.880  12.444  23.921  0.00  0.00    +0.000 C 
ENDBRANCH  15  16
ENDBRANCH  11  15
ENDBRANCH   1  13
BRANCH   5  22
ATOM     22  C   UNL     1       4.614   6.062  17.422  0.00  0.00    +0.000 C 
ATOM     23  C   UNL     1       5.493   6.211  16.207  0.00  0.00    +0.000 C 
ATOM     24  C   UNL     1       6.008   6.650  17.541  0.00  0.00    +0.000 C 
ENDBRANCH   5  22
BRANCH   6  25
ATOM     25  N   UNL     1       2.694   5.354  19.446  0.00  0.00    +0.000 N 
ATOM     26  H   UNL     1       3.674   5.113  19.553  0.00  0.00    +0.000 HD
BRANCH  25  27
ATOM     27  C   UNL     1       1.900   5.230  20.672  0.00  0.00    +0.000 C 
BRANCH  27  28
ATOM     28  C   UNL     1       1.636   3.773  21.051  0.00  0.00    +0.000 C 
BRANCH  28  29
ATOM     29  C   UNL     1       2.034   2.884  19.922  0.00  0.00    +0.000 A 
ATOM     30  C   UNL     1       1.275   2.404  18.876  0.00  0.00    +0.000 A 
ATOM     31  N   UNL     1       2.161   1.764  18.053  0.00  0.00    +0.000 N 
ATOM     32  C   UNL     1       3.398   1.864  18.623  0.00  0.00    +0.000 A 
ATOM     33  N   UNL     1       3.350   2.519  19.759  0.00  0.00    +0.000 NA
ATOM     34  H   UNL     1       1.954   1.325  17.167  0.00  0.00    +0.000 HD
ENDBRANCH  28  29
ENDBRANCH  27  28
ENDBRANCH  25  27
ENDBRANCH   6  25
TORSDOF 8
ENDMDL
MODEL 6
REMARK VINA RESULT:      -7.5      3.318      5.026
REMARK  Name = 
REMARK  8 active torsions:
REMARK  status: ('A' for Active; 'I' for Inactive)
REMARK    1  A    between atoms: C_3  and  C_4
REMARK    2  A    between atoms: C_4  and  N_5
REMARK    3  A    between atoms: C_12  and  N_13
REMARK    4  A    between atoms: C_17  and  C_18
REMARK    5  A    between atoms: C_21  and  N_22
REMARK    6  A    between atoms: N_22  and  C_23
REMARK    7  A    between atoms: C_23  and  C_24
REMARK    8  A    between atoms: C_24  and  C_25
REMARK                            x       y       z     vdW  Elec       q    Type
REMARK                         _______ _______ _______ _____ _____    ______ ____
ROOT
ATOM      1  N   UNL     1       1.562   7.593  21.117  0.00  0.00    +0.000 N 
ATOM      2  C   UNL     1       2.139   6.570  20.362  0.00  0.00    +0.000 A 
ATOM      3  N   UNL     1       2.063   5.341  20.884  0.00  0.00    +0.000 NA
ATOM      4  C   UNL     1       2.510   4.330  20.106  0.00  0.00    +0.000 A 
ATOM      5  C   UNL     1       3.039   4.478  18.837  0.00  0.00    +0.000 A 
ATOM      6  C   UNL     1       3.182   5.813  18.454  0.00  0.00    +0.000 A 
ATOM      7  N   UNL     1       2.724   6.836  19.196  0.00  0.00    +0.000 NA
ATOM      8  H   UNL     1       1.236   7.195  21.984  0.00  0.00    +0.000 HD
ENDROOT
BRANCH   1  13
ATOM      9  C   UNL     1       0.422  10.606  19.206  0.00  0.00    +0.000 A 
ATOM     10  C   UNL     1      -0.308  11.268  20.196  0.00  0.00    +0.000 A 
ATOM     11  C   UNL     1      -0.399  10.724  21.483  0.00  0.00    +0.000 A 
ATOM     12  C   UNL     1       0.230   9.493  21.735  0.00  0.00    +0.000 A 
ATOM     13  C   UNL     1       0.945   8.794  20.745  0.00  0.00    +0.000 A 
ATOM     14  C   UNL     1       1.057   9.392  19.486  0.00  0.00    +0.000 A 
BRANCH  11  15
ATOM     15  C   UNL     1      -1.033  11.473  22.630  0.00  0.00    +0.000 C 
BRANCH  15  16
ATOM     16  N   UNL     1      -1.856  12.649  22.361  0.00  0.00    +0.000 NA
ATOM     17  C   UNL     1      -1.346  13.956  22.783  0.00  0.00    +0.000 C 
ATOM     18  C   UNL     1      -1.824  14.412  24.173  0.00  0.00    +0.000 C 
ATOM     19  O   UNL     1      -3.250  14.323  24.303  0.00  0.00    +0.000 OA
ATOM     20  C   UNL     1      -3.704  12.991  24.039  0.00  0.00    +0.000 C 
ATOM     21  C   UNL     1      -3.287  12.522  22.641  0.00  0.00    +0.000 C 
ENDBRANCH  15  16
ENDBRANCH  11  15
ENDBRANCH   1  13
BRANCH   5  22
ATOM     22  C   UNL     1       3.431   3.342  17.925  0.00  0.00    +0.000 C 
ATOM     23  C   UNL     1       3.643   1.903  18.318  0.00  0.00    +0.000 C 
ATOM     24  C   UNL     1       2.342   2.308  17.701  0.00  0.00    +0.000 C 
ENDBRANCH   5  22
BRANCH   6  25
ATOM     25  N   UNL     1       3.797   6.106  17.211  0.00  0.00    +0.000 N 
ATOM     26  H   UNL     1       3.070   6.297  16.529  0.00  0.00    +0.000 HD
BRANCH  25  27
ATOM     27  C   UNL     1       4.820   7.150  17.318  0.00  0.00    +0.000 C 
BRANCH  27  28
ATOM     28  C   UNL     1       6.239   6.588  17.230  0.00  0.00    +0.000 C 
BRANCH  28  29
ATOM     29  C   UNL     1       6.284   5.505  16.206  0.00  0.00    +0.000 A 
ATOM     30  C   UNL     1       6.761   4.216  16.315  0.00  0.00    +0.000 A 
ATOM     31  N   UNL     1       6.425   3.608  15.136  0.00  0.00    +0.000 N 
ATOM     32  C   UNL     1       5.782   4.533  14.365  0.00  0.00    +0.000 A 
ATOM     33  N   UNL     1       5.696   5.691  14.976  0.00  0.00    +0.000 NA
ATOM     34  H   UNL     1       6.589   2.643  14.886  0.00  0.00    +0.000 HD
ENDBRANCH  28  29
ENDBRANCH  27  28
ENDBRANCH  25  27
ENDBRANCH   6  25
TORSDOF 8
ENDMDL
MODEL 7
REMARK VINA RESULT:      -7.5      3.263      4.022
REMARK  Name = 
REMARK  8 active torsions:
REMARK  status: ('A' for Active; 'I' for Inactive)
REMARK    1  A    between atoms: C_3  and  C_4
REMARK    2  A    between atoms: C_4  and  N_5
REMARK    3  A    between atoms: C_12  and  N_13
REMARK    4  A    between atoms: C_17  and  C_18
REMARK    5  A    between atoms: C_21  and  N_22
REMARK    6  A    between atoms: N_22  and  C_23
REMARK    7  A    between atoms: C_23  and  C_24
REMARK    8  A    between atoms: C_24  and  C_25
REMARK                            x       y       z     vdW  Elec       q    Type
REMARK                         _______ _______ _______ _____ _____    ______ ____
ROOT
ATOM      1  N   UNL     1       1.482   8.937  17.982  0.00  0.00    +0.000 N 
ATOM      2  C   UNL     1       2.377   7.878  18.148  0.00  0.00    +0.000 A 
ATOM      3  N   UNL     1       3.341   7.774  17.227  0.00  0.00    +0.000 NA
ATOM      4  C   UNL     1       4.281   6.828  17.446  0.00  0.00    +0.000 A 
ATOM      5  C   UNL     1       4.307   5.970  18.530  0.00  0.00    +0.000 A 
ATOM      6  C   UNL     1       3.185   6.089  19.352  0.00  0.00    +0.000 A 
ATOM      7  N   UNL     1       2.250   7.037  19.173  0.00  0.00    +0.000 NA
ATOM      8  H   UNL     1       1.713   9.407  17.121  0.00  0.00    +0.000 HD
ENDROOT
BRANCH   1  13
ATOM      9  C   UNL     1       0.187  10.470  21.145  0.00  0.00    +0.000 A 
ATOM     10  C   UNL     1      -0.838  11.269  20.633  0.00  0.00    +0.000 A 
ATOM     11  C   UNL     1      -1.101  11.278  19.258  0.00  0.00    +0.000 A 
ATOM     12  C   UNL     1      -0.292  10.494  18.417  0.00  0.00    +0.000 A 
ATOM     13  C   UNL     1       0.765   9.706  18.907  0.00  0.00    +0.000 A 
ATOM     14  C   UNL     1       0.965   9.683  20.290  0.00  0.00    +0.000 A 
BRANCH  11  15
ATOM     15  C   UNL     1      -2.295  11.992  18.671  0.00  0.00    +0.000 C 
BRANCH  15  16
ATOM     16  N   UNL     1      -3.630  11.423  18.834  0.00  0.00    +0.000 NA
ATOM     17  C   UNL     1      -4.315  10.924  17.639  0.00  0.00    +0.000 C 
ATOM     18  C   UNL     1      -5.249  11.944  16.962  0.00  0.00    +0.000 C 
ATOM     19  O   UNL     1      -6.161  12.534  17.898  0.00  0.00    +0.000 OA
ATOM     20  C   UNL     1      -5.454  13.156  18.978  0.00  0.00    +0.000 C 
ATOM     21  C   UNL     1      -4.550  12.155  19.706  0.00  0.00    +0.000 C 
ENDBRANCH  15  16
ENDBRANCH  11  15
ENDBRANCH   1  13
BRANCH   5  22
ATOM     22  C   UNL     1       5.416   4.993  18.834  0.00  0.00    +0.000 C 
ATOM     23  C   UNL     1       6.626   4.710  17.982  0.00  0.00    +0.000 C 
ATOM     24  C   UNL     1       6.754   5.635  19.150  0.00  0.00    +0.000 C 
ENDBRANCH   5  22
BRANCH   6  25
ATOM     25  N   UNL     1       3.044   5.204  20.449  0.00  0.00    +0.000 N 
ATOM     26  H   UNL     1       3.446   5.642  21.271  0.00  0.00    +0.000 HD
BRANCH  25  27
ATOM     27  C   UNL     1       1.666   4.734  20.624  0.00  0.00    +0.000 C 
BRANCH  27  28
ATOM     28  C   UNL     1       1.365   3.485  19.797  0.00  0.00    +0.000 C 
BRANCH  28  29
ATOM     29  C   UNL     1       2.598   2.653  19.684  0.00  0.00    +0.000 A 
ATOM     30  C   UNL     1       3.168   2.081  18.567  0.00  0.00    +0.000 A 
ATOM     31  N   UNL     1       4.357   1.559  18.999  0.00  0.00    +0.000 N 
ATOM     32  C   UNL     1       4.458   1.815  20.336  0.00  0.00    +0.000 A 
ATOM     33  N   UNL     1       3.404   2.459  20.781  0.00  0.00    +0.000 NA
ATOM     34  H   UNL     1       5.054   1.096  18.432  0.00  0.00    +0.000 HD
ENDBRANCH  28  29
ENDBRANCH  27  28
ENDBRANCH  25  27
ENDBRANCH   6  25
TORSDOF 8
ENDMDL
MODEL 8
REMARK VINA RESULT:      -7.5      1.081      1.513
REMARK  Name = 
REMARK  8 active torsions:
REMARK  status: ('A' for Active; 'I' for Inactive)
REMARK    1  A    between atoms: C_3  and  C_4
REMARK    2  A    between atoms: C_4  and  N_5
REMARK    3  A    between atoms: C_12  and  N_13
REMARK    4  A    between atoms: C_17  and  C_18
REMARK    5  A    between atoms: C_21  and  N_22
REMARK    6  A    between atoms: N_22  and  C_23
REMARK    7  A    between atoms: C_23  and  C_24
REMARK    8  A    between atoms: C_24  and  C_25
REMARK                            x       y       z     vdW  Elec       q    Type
REMARK                         _______ _______ _______ _____ _____    ______ ____
ROOT
ATOM      1  N   UNL     1       1.734   9.033  17.915  0.00  0.00    +0.000 N 
ATOM      2  C   UNL     1       2.567   7.923  18.071  0.00  0.00    +0.000 A 
ATOM      3  N   UNL     1       3.492   7.745  17.122  0.00  0.00    +0.000 NA
ATOM      4  C   UNL     1       4.378   6.745  17.328  0.00  0.00    +0.000 A 
ATOM      5  C   UNL     1       4.387   5.904  18.425  0.00  0.00    +0.000 A 
ATOM      6  C   UNL     1       3.301   6.106  19.280  0.00  0.00    +0.000 A 
ATOM      7  N   UNL     1       2.421   7.108  19.114  0.00  0.00    +0.000 NA
ATOM      8  H   UNL     1       1.966   9.475  17.039  0.00  0.00    +0.000 HD
ENDROOT
BRANCH   1  13
ATOM      9  C   UNL     1      -0.125  10.312  20.905  0.00  0.00    +0.000 A 
ATOM     10  C   UNL     1      -0.224  11.666  20.576  0.00  0.00    +0.000 A 
ATOM     11  C   UNL     1       0.305  12.136  19.368  0.00  0.00    +0.000 A 
ATOM     12  C   UNL     1       0.958  11.222  18.524  0.00  0.00    +0.000 A 
ATOM     13  C   UNL     1       1.097   9.860  18.848  0.00  0.00    +0.000 A 
ATOM     14  C   UNL     1       0.512   9.418  20.039  0.00  0.00    +0.000 A 
BRANCH  11  15
ATOM     15  C   UNL     1       0.082  13.550  18.888  0.00  0.00    +0.000 C 
BRANCH  15  16
ATOM     16  N   UNL     1       0.201  14.661  19.828  0.00  0.00    +0.000 NA
ATOM     17  C   UNL     1      -0.938  15.573  19.961  0.00  0.00    +0.000 C 
ATOM     18  C   UNL     1      -0.865  16.823  19.065  0.00  0.00    +0.000 C 
ATOM     19  O   UNL     1       0.389  17.505  19.202  0.00  0.00    +0.000 OA
ATOM     20  C   UNL     1       1.482  16.626  18.909  0.00  0.00    +0.000 C 
ATOM     21  C   UNL     1       1.469  15.393  19.818  0.00  0.00    +0.000 C 
ENDBRANCH  15  16
ENDBRANCH  11  15
ENDBRANCH   1  13
BRANCH   5  22
ATOM     22  C   UNL     1       5.442   4.865  18.711  0.00  0.00    +0.000 C 
ATOM     23  C   UNL     1       6.758   4.696  17.996  0.00  0.00    +0.000 C 
ATOM     24  C   UNL     1       6.725   5.415  19.308  0.00  0.00    +0.000 C 
ENDBRANCH   5  22
BRANCH   6  25
ATOM     25  N   UNL     1       3.141   5.248  20.397  0.00  0.00    +0.000 N 
ATOM     26  H   UNL     1       3.681   5.623  21.170  0.00  0.00    +0.000 HD
BRANCH  25  27
ATOM     27  C   UNL     1       1.734   4.982  20.709  0.00  0.00    +0.000 C 
BRANCH  27  28
ATOM     28  C   UNL     1       1.462   3.499  20.958  0.00  0.00    +0.000 C 
BRANCH  28  29
ATOM     29  C   UNL     1       1.954   2.700  19.799  0.00  0.00    +0.000 A 
ATOM     30  C   UNL     1       1.308   2.367  18.628  0.00  0.00    +0.000 A 
ATOM     31  N   UNL     1       2.258   1.759  17.854  0.00  0.00    +0.000 N 
ATOM     32  C   UNL     1       3.419   1.732  18.573  0.00  0.00    +0.000 A 
ATOM     33  N   UNL     1       3.262   2.277  19.756  0.00  0.00    +0.000 NA
ATOM     34  H   UNL     1       2.140   1.418  16.910  0.00  0.00    +0.000 HD
ENDBRANCH  28  29
ENDBRANCH  27  28
ENDBRANCH  25  27
ENDBRANCH   6  25
TORSDOF 8
ENDMDL
MODEL 9
REMARK VINA RESULT:      -7.5      2.200      2.803
REMARK  Name = 
REMARK  8 active torsions:
REMARK  status: ('A' for Active; 'I' for Inactive)
REMARK    1  A    between atoms: C_3  and  C_4
REMARK    2  A    between atoms: C_4  and  N_5
REMARK    3  A    between atoms: C_12  and  N_13
REMARK    4  A    between atoms: C_17  and  C_18
REMARK    5  A    between atoms: C_21  and  N_22
REMARK    6  A    between atoms: N_22  and  C_23
REMARK    7  A    between atoms: C_23  and  C_24
REMARK    8  A    between atoms: C_24  and  C_25
REMARK                            x       y       z     vdW  Elec       q    Type
REMARK                         _______ _______ _______ _____ _____    ______ ____
ROOT
ATOM      1  N   UNL     1       0.753   9.398  19.413  0.00  0.00    +0.000 N 
ATOM      2  C   UNL     1       1.690   8.453  18.988  0.00  0.00    +0.000 A 
ATOM      3  N   UNL     1       2.350   8.747  17.863  0.00  0.00    +0.000 NA
ATOM      4  C   UNL     1       3.342   7.899  17.510  0.00  0.00    +0.000 A 
ATOM      5  C   UNL     1       3.706   6.766  18.213  0.00  0.00    +0.000 A 
ATOM      6  C   UNL     1       2.865   6.497  19.296  0.00  0.00    +0.000 A 
ATOM      7  N   UNL     1       1.889   7.336  19.684  0.00  0.00    +0.000 NA
ATOM      8  H   UNL     1       0.711  10.128  18.720  0.00  0.00    +0.000 HD
ENDROOT
BRANCH   1  13
ATOM      9  C   UNL     1       0.111   9.498  23.102  0.00  0.00    +0.000 A 
ATOM     10  C   UNL     1      -0.745  10.599  23.176  0.00  0.00    +0.000 A 
ATOM     11  C   UNL     1      -1.115  11.281  22.010  0.00  0.00    +0.000 A 
ATOM     12  C   UNL     1      -0.579  10.849  20.785  0.00  0.00    +0.000 A 
ATOM     13  C   UNL     1       0.310   9.763  20.690  0.00  0.00    +0.000 A 
ATOM     14  C   UNL     1       0.616   9.075  21.868  0.00  0.00    +0.000 A 
BRANCH  11  15
ATOM     15  C   UNL     1      -2.162  12.369  22.012  0.00  0.00    +0.000 C 
BRANCH  15  16
ATOM     16  N   UNL     1      -1.753  13.767  21.917  0.00  0.00    +0.000 NA
ATOM     17  C   UNL     1      -1.872  14.431  20.616  0.00  0.00    +0.000 C 
ATOM     18  C   UNL     1      -0.593  14.397  19.760  0.00  0.00    +0.000 C 
ATOM     19  O   UNL     1       0.552  14.852  20.494  0.00  0.00    +0.000 OA
ATOM     20  C   UNL     1       0.736  14.077  21.684  0.00  0.00    +0.000 C 
ATOM     21  C   UNL     1      -0.502  14.129  22.585  0.00  0.00    +0.000 C 
ENDBRANCH  15  16
ENDBRANCH  11  15
ENDBRANCH   1  13
BRANCH   5  22
ATOM     22  C   UNL     1       4.884   5.884  17.884  0.00  0.00    +0.000 C 
ATOM     23  C   UNL     1       4.898   4.717  16.930  0.00  0.00    +0.000 C 
ATOM     24  C   UNL     1       5.416   6.043  16.471  0.00  0.00    +0.000 C 
ENDBRANCH   5  22
BRANCH   6  25
ATOM     25  N   UNL     1       3.074   5.314  20.047  0.00  0.00    +0.000 N 
ATOM     26  H   UNL     1       3.938   5.412  20.569  0.00  0.00    +0.000 HD
BRANCH  25  27
ATOM     27  C   UNL     1       1.910   4.948  20.860  0.00  0.00    +0.000 C 
BRANCH  27  28
ATOM     28  C   UNL     1       1.882   3.458  21.201  0.00  0.00    +0.000 C 
BRANCH  28  29
ATOM     29  C   UNL     1       2.208   2.661  19.983  0.00  0.00    +0.000 A 
ATOM     30  C   UNL     1       1.387   2.274  18.945  0.00  0.00    +0.000 A 
ATOM     31  N   UNL     1       2.220   1.697  18.025  0.00  0.00    +0.000 N 
ATOM     32  C   UNL     1       3.487   1.742  18.532  0.00  0.00    +0.000 A 
ATOM     33  N   UNL     1       3.509   2.302  19.718  0.00  0.00    +0.000 NA
ATOM     34  H   UNL     1       1.958   1.333  17.120  0.00  0.00    +0.000 HD
ENDBRANCH  28  29
ENDBRANCH  27  28
ENDBRANCH  25  27
ENDBRANCH   6  25
TORSDOF 8
ENDMDL
