MODEL 1
REMARK VINA RESULT:      -7.7      0.000      0.000
REMARK  Name = 
REMARK  3 active torsions:
REMARK  status: ('A' for Active; 'I' for Inactive)
REMARK    1  A    between atoms: C_1  and  C_2
REMARK    2  A    between atoms: C_2  and  C_3
REMARK    3  A    between atoms: N_18  and  C_19
REMARK                            x       y       z     vdW  Elec       q    Type
REMARK                         _______ _______ _______ _____ _____    ______ ____
ROOT
ATOM      1  C   UNL     1      -1.831  16.220  24.013  0.00  0.00    +0.000 C 
ATOM      2  C   UNL     1      -1.387  15.170  22.965  0.00  0.00    +0.000 C 
ATOM      3  C   UNL     1       0.126  15.385  22.722  0.00  0.00    +0.000 C 
ATOM      4  C   UNL     1      -1.590  13.771  23.561  0.00  0.00    +0.000 C 
ATOM      5  C   UNL     1      -2.586  12.814  22.957  0.00  0.00    +0.000 C 
ATOM      6  O   UNL     1      -2.750  11.733  23.537  0.00  0.00    +0.000 OA
ATOM      7  C   UNL     1      -3.265  13.088  21.633  0.00  0.00    +0.000 C 
ATOM      8  C   UNL     1      -4.750  12.719  21.844  0.00  0.00    +0.000 C 
ATOM      9  C   UNL     1      -5.507  12.549  20.550  0.00  0.00    +0.000 A 
ATOM     10  C   UNL     1      -6.908  12.691  20.594  0.00  0.00    +0.000 A 
ATOM     11  C   UNL     1      -7.663  12.633  19.433  0.00  0.00    +0.000 A 
ATOM     12  C   UNL     1      -7.022  12.437  18.220  0.00  0.00    +0.000 A 
ATOM     13  C   UNL     1      -5.631  12.281  18.176  0.00  0.00    +0.000 A 
ATOM     14  C   UNL     1      -4.833  12.299  19.335  0.00  0.00    +0.000 A 
ATOM     15  N   UNL     1      -3.425  12.198  19.276  0.00  0.00    +0.000 N 
ATOM     16  C   UNL     1      -2.880  11.300  18.221  0.00  0.00    +0.000 C 
ATOM     17  C   UNL     1      -1.367  11.521  18.045  0.00  0.00    +0.000 C 
ATOM     18  N   UNL     1      -0.648  11.341  19.313  0.00  0.00    +0.000 N 
ATOM     19  C   UNL     1      -1.150  12.197  20.408  0.00  0.00    +0.000 C 
ATOM     20  C   UNL     1      -2.715  12.087  20.585  0.00  0.00    +0.000 C 
ATOM     21  C   UNL     1      -3.224  14.557  21.219  0.00  0.00    +0.000 C 
ATOM     22  O   UNL     1      -4.069  15.072  20.480  0.00  0.00    +0.000 OA
ATOM     23  C   UNL     1      -2.090  15.448  21.635  0.00  0.00    +0.000 C 
ENDROOT
BRANCH  18  24
ATOM     24  C   UNL     1       0.114  10.212  19.561  0.00  0.00    +0.000 A 
ATOM     25  C   UNL     1       0.078   9.589  20.820  0.00  0.00    +0.000 A 
ATOM     26  C   UNL     1       0.901   8.499  21.134  0.00  0.00    +0.000 A 
ATOM     27  C   UNL     1       1.776   7.990  20.181  0.00  0.00    +0.000 A 
ATOM     28  C   UNL     1       1.820   8.580  18.924  0.00  0.00    +0.000 A 
ATOM     29 CL   UNL     1       2.904   7.965  17.733  0.00  0.00    +0.000 Cl
ATOM     30  C   UNL     1       1.004   9.675  18.619  0.00  0.00    +0.000 A 
ENDBRANCH  18  24
TORSDOF 1
ENDMDL
MODEL 2
REMARK VINA RESULT:      -7.7      1.216      1.410
REMARK  Name = 
REMARK  3 active torsions:
REMARK  status: ('A' for Active; 'I' for Inactive)
REMARK    1  A    between atoms: C_1  and  C_2
REMARK    2  A    between atoms: C_2  and  C_3
REMARK    3  A    between atoms: N_18  and  C_19
REMARK                            x       y       z     vdW  Elec       q    Type
REMARK                         _______ _______ _______ _____ _____    ______ ____
ROOT
ATOM      1  C   UNL     1      -3.619  16.396  25.088  0.00  0.00    +0.000 C 
ATOM      2  C   UNL     1      -2.874  15.433  24.132  0.00  0.00    +0.000 C 
ATOM      3  C   UNL     1      -1.362  15.709  24.300  0.00  0.00    +0.000 C 
ATOM      4  C   UNL     1      -3.158  13.992  24.575  0.00  0.00    +0.000 C 
ATOM      5  C   UNL     1      -3.921  13.048  23.682  0.00  0.00    +0.000 C 
ATOM      6  O   UNL     1      -4.178  11.926  24.137  0.00  0.00    +0.000 OA
ATOM      7  C   UNL     1      -4.251  13.389  22.245  0.00  0.00    +0.000 C 
ATOM      8  C   UNL     1      -5.723  12.962  22.045  0.00  0.00    +0.000 C 
ATOM      9  C   UNL     1      -6.115  12.857  20.591  0.00  0.00    +0.000 A 
ATOM     10  C   UNL     1      -7.487  12.953  20.281  0.00  0.00    +0.000 A 
ATOM     11  C   UNL     1      -7.916  12.950  18.963  0.00  0.00    +0.000 A 
ATOM     12  C   UNL     1      -6.979  12.856  17.947  0.00  0.00    +0.000 A 
ATOM     13  C   UNL     1      -5.617  12.744  18.254  0.00  0.00    +0.000 A 
ATOM     14  C   UNL     1      -5.143  12.709  19.579  0.00  0.00    +0.000 A 
ATOM     15  N   UNL     1      -3.763  12.655  19.879  0.00  0.00    +0.000 N 
ATOM     16  C   UNL     1      -2.926  11.846  18.951  0.00  0.00    +0.000 C 
ATOM     17  C   UNL     1      -1.429  12.124  19.184  0.00  0.00    +0.000 C 
ATOM     18  N   UNL     1      -1.051  11.881  20.582  0.00  0.00    +0.000 N 
ATOM     19  C   UNL     1      -1.855  12.647  21.558  0.00  0.00    +0.000 C 
ATOM     20  C   UNL     1      -3.406  12.478  21.319  0.00  0.00    +0.000 C 
ATOM     21  C   UNL     1      -4.174  14.883  21.940  0.00  0.00    +0.000 C 
ATOM     22  O   UNL     1      -4.825  15.421  21.039  0.00  0.00    +0.000 OA
ATOM     23  C   UNL     1      -3.227  15.779  22.684  0.00  0.00    +0.000 C 
ENDROOT
BRANCH  18  24
ATOM     24  C   UNL     1      -0.326  10.761  20.954  0.00  0.00    +0.000 A 
ATOM     25  C   UNL     1      -0.203  10.407  22.308  0.00  0.00    +0.000 A 
ATOM     26  C   UNL     1       0.593   9.333  22.726  0.00  0.00    +0.000 A 
ATOM     27  C   UNL     1       1.281   8.570  21.789  0.00  0.00    +0.000 A 
ATOM     28  C   UNL     1       1.165   8.892  20.443  0.00  0.00    +0.000 A 
ATOM     29 CL   UNL     1       2.015   7.960  19.269  0.00  0.00    +0.000 Cl
ATOM     30  C   UNL     1       0.376   9.972  20.031  0.00  0.00    +0.000 A 
ENDBRANCH  18  24
TORSDOF 1
ENDMDL
MODEL 3
REMARK VINA RESULT:      -7.1      1.012      1.368
REMARK  Name = 
REMARK  3 active torsions:
REMARK  status: ('A' for Active; 'I' for Inactive)
REMARK    1  A    between atoms: C_1  and  C_2
REMARK    2  A    between atoms: C_2  and  C_3
REMARK    3  A    between atoms: N_18  and  C_19
REMARK                            x       y       z     vdW  Elec       q    Type
REMARK                         _______ _______ _______ _____ _____    ______ ____
ROOT
ATOM      1  C   UNL     1      -1.135  16.531  23.676  0.00  0.00    +0.000 C 
ATOM      2  C   UNL     1      -0.846  15.496  22.561  0.00  0.00    +0.000 C 
ATOM      3  C   UNL     1       0.563  15.810  22.006  0.00  0.00    +0.000 C 
ATOM      4  C   UNL     1      -0.822  14.097  23.190  0.00  0.00    +0.000 C 
ATOM      5  C   UNL     1      -1.852  13.064  22.811  0.00  0.00    +0.000 C 
ATOM      6  O   UNL     1      -1.815  11.984  23.415  0.00  0.00    +0.000 OA
ATOM      7  C   UNL     1      -2.809  13.268  21.657  0.00  0.00    +0.000 C 
ATOM      8  C   UNL     1      -4.189  12.802  22.175  0.00  0.00    +0.000 C 
ATOM      9  C   UNL     1      -5.185  12.559  21.068  0.00  0.00    +0.000 A 
ATOM     10  C   UNL     1      -6.553  12.606  21.405  0.00  0.00    +0.000 A 
ATOM     11  C   UNL     1      -7.527  12.476  20.427  0.00  0.00    +0.000 A 
ATOM     12  C   UNL     1      -7.141  12.304  19.108  0.00  0.00    +0.000 A 
ATOM     13  C   UNL     1      -5.783  12.242  18.773  0.00  0.00    +0.000 A 
ATOM     14  C   UNL     1      -4.763  12.335  19.740  0.00  0.00    +0.000 A 
ATOM     15  N   UNL     1      -3.395  12.329  19.388  0.00  0.00    +0.000 N 
ATOM     16  C   UNL     1      -3.020  11.452  18.244  0.00  0.00    +0.000 C 
ATOM     17  C   UNL     1      -1.596  11.772  17.755  0.00  0.00    +0.000 C 
ATOM     18  N   UNL     1      -0.618  11.664  18.845  0.00  0.00    +0.000 N 
ATOM     19  C   UNL     1      -0.940  12.503  20.019  0.00  0.00    +0.000 C 
ATOM     20  C   UNL     1      -2.421  12.289  20.519  0.00  0.00    +0.000 C 
ATOM     21  C   UNL     1      -2.959  14.730  21.240  0.00  0.00    +0.000 C 
ATOM     22  O   UNL     1      -3.974  15.173  20.693  0.00  0.00    +0.000 OA
ATOM     23  C   UNL     1      -1.830  15.703  21.407  0.00  0.00    +0.000 C 
ENDROOT
BRANCH  18  24
ATOM     24  C   UNL     1       0.256  10.594  18.932  0.00  0.00    +0.000 A 
ATOM     25  C   UNL     1       1.027  10.210  17.821  0.00  0.00    +0.000 A 
ATOM     26  C   UNL     1       1.855   9.080  17.845  0.00  0.00    +0.000 A 
ATOM     27  C   UNL     1       1.945   8.308  18.999  0.00  0.00    +0.000 A 
ATOM     28  C   UNL     1       1.204   8.675  20.114  0.00  0.00    +0.000 A 
ATOM     29 CL   UNL     1       1.300   7.725  21.549  0.00  0.00    +0.000 Cl
ATOM     30  C   UNL     1       0.370   9.798  20.082  0.00  0.00    +0.000 A 
ENDBRANCH  18  24
TORSDOF 1
ENDMDL
MODEL 4
REMARK VINA RESULT:      -7.1      2.974      5.863
REMARK  Name = 
REMARK  3 active torsions:
REMARK  status: ('A' for Active; 'I' for Inactive)
REMARK    1  A    between atoms: C_1  and  C_2
REMARK    2  A    between atoms: C_2  and  C_3
REMARK    3  A    between atoms: N_18  and  C_19
REMARK                            x       y       z     vdW  Elec       q    Type
REMARK                         _______ _______ _______ _____ _____    ______ ____
ROOT
ATOM      1  C   UNL     1      -3.064  14.824  24.924  0.00  0.00    +0.000 C 
ATOM      2  C   UNL     1      -2.784  13.950  23.677  0.00  0.00    +0.000 C 
ATOM      3  C   UNL     1      -3.454  12.578  23.927  0.00  0.00    +0.000 C 
ATOM      4  C   UNL     1      -3.455  14.604  22.463  0.00  0.00    +0.000 C 
ATOM      5  C   UNL     1      -2.629  15.133  21.318  0.00  0.00    +0.000 C 
ATOM      6  O   UNL     1      -3.234  15.716  20.409  0.00  0.00    +0.000 OA
ATOM      7  C   UNL     1      -1.146  14.860  21.203  0.00  0.00    +0.000 C 
ATOM      8  C   UNL     1      -0.506  16.206  20.797  0.00  0.00    +0.000 C 
ATOM      9  C   UNL     1       0.895  16.056  20.256  0.00  0.00    +0.000 A 
ATOM     10  C   UNL     1       1.735  17.186  20.308  0.00  0.00    +0.000 A 
ATOM     11  C   UNL     1       3.060  17.103  19.907  0.00  0.00    +0.000 A 
ATOM     12  C   UNL     1       3.554  15.889  19.457  0.00  0.00    +0.000 A 
ATOM     13  C   UNL     1       2.716  14.768  19.390  0.00  0.00    +0.000 A 
ATOM     14  C   UNL     1       1.358  14.820  19.755  0.00  0.00    +0.000 A 
ATOM     15  N   UNL     1       0.534  13.672  19.740  0.00  0.00    +0.000 N 
ATOM     16  C   UNL     1       0.796  12.698  18.645  0.00  0.00    +0.000 C 
ATOM     17  C   UNL     1       0.076  11.364  18.917  0.00  0.00    +0.000 C 
ATOM     18  N   UNL     1      -1.366  11.564  19.113  0.00  0.00    +0.000 N 
ATOM     19  C   UNL     1      -1.693  12.532  20.180  0.00  0.00    +0.000 C 
ATOM     20  C   UNL     1      -0.917  13.895  20.011  0.00  0.00    +0.000 C 
ATOM     21  C   UNL     1      -0.499  14.436  22.520  0.00  0.00    +0.000 C 
ATOM     22  O   UNL     1       0.695  14.619  22.773  0.00  0.00    +0.000 OA
ATOM     23  C   UNL     1      -1.280  13.692  23.563  0.00  0.00    +0.000 C 
ENDROOT
BRANCH  18  24
ATOM     24  C   UNL     1      -2.285  11.215  18.137  0.00  0.00    +0.000 A 
ATOM     25  C   UNL     1      -1.932  10.324  17.109  0.00  0.00    +0.000 A 
ATOM     26  C   UNL     1      -2.806  10.017  16.058  0.00  0.00    +0.000 A 
ATOM     27  C   UNL     1      -4.073  10.589  16.018  0.00  0.00    +0.000 A 
ATOM     28  C   UNL     1      -4.451  11.462  17.030  0.00  0.00    +0.000 A 
ATOM     29 CL   UNL     1      -6.016  12.182  16.992  0.00  0.00    +0.000 Cl
ATOM     30  C   UNL     1      -3.571  11.773  18.072  0.00  0.00    +0.000 A 
ENDBRANCH  18  24
TORSDOF 1
ENDMDL
MODEL 5
REMARK VINA RESULT:      -7.0      2.769      5.870
REMARK  Name = 
REMARK  3 active torsions:
REMARK  status: ('A' for Active; 'I' for Inactive)
REMARK    1  A    between atoms: C_1  and  C_2
REMARK    2  A    between atoms: C_2  and  C_3
REMARK    3  A    between atoms: N_18  and  C_19
REMARK                            x       y       z     vdW  Elec       q    Type
REMARK                         _______ _______ _______ _____ _____    ______ ____
ROOT
ATOM      1  C   UNL     1      -2.718  15.563  24.914  0.00  0.00    +0.000 C 
ATOM      2  C   UNL     1      -2.586  14.610  23.700  0.00  0.00    +0.000 C 
ATOM      3  C   UNL     1      -3.447  13.363  24.008  0.00  0.00    +0.000 C 
ATOM      4  C   UNL     1      -3.169  15.311  22.466  0.00  0.00    +0.000 C 
ATOM      5  C   UNL     1      -2.288  15.669  21.296  0.00  0.00    +0.000 C 
ATOM      6  O   UNL     1      -2.812  16.300  20.369  0.00  0.00    +0.000 OA
ATOM      7  C   UNL     1      -0.863  15.174  21.181  0.00  0.00    +0.000 C 
ATOM      8  C   UNL     1      -0.036  16.395  20.719  0.00  0.00    +0.000 C 
ATOM      9  C   UNL     1       1.320  16.019  20.174  0.00  0.00    +0.000 A 
ATOM     10  C   UNL     1       2.319  17.014  20.177  0.00  0.00    +0.000 A 
ATOM     11  C   UNL     1       3.611  16.720  19.771  0.00  0.00    +0.000 A 
ATOM     12  C   UNL     1       3.915  15.431  19.365  0.00  0.00    +0.000 A 
ATOM     13  C   UNL     1       2.921  14.445  19.347  0.00  0.00    +0.000 A 
ATOM     14  C   UNL     1       1.589  14.710  19.719  0.00  0.00    +0.000 A 
ATOM     15  N   UNL     1       0.605  13.697  19.754  0.00  0.00    +0.000 N 
ATOM     16  C   UNL     1       0.706  12.655  18.696  0.00  0.00    +0.000 C 
ATOM     17  C   UNL     1      -0.199  11.453  19.025  0.00  0.00    +0.000 C 
ATOM     18  N   UNL     1      -1.593  11.871  19.222  0.00  0.00    +0.000 N 
ATOM     19  C   UNL     1      -1.760  12.916  20.253  0.00  0.00    +0.000 C 
ATOM     20  C   UNL     1      -0.794  14.143  20.026  0.00  0.00    +0.000 C 
ATOM     21  C   UNL     1      -0.269  14.709  22.509  0.00  0.00    +0.000 C 
ATOM     22  O   UNL     1       0.943  14.723  22.746  0.00  0.00    +0.000 OA
ATOM     23  C   UNL     1      -1.138  14.128  23.586  0.00  0.00    +0.000 C 
ENDROOT
BRANCH  18  24
ATOM     24  C   UNL     1      -2.565  11.626  18.268  0.00  0.00    +0.000 A 
ATOM     25  C   UNL     1      -3.925  11.810  18.570  0.00  0.00    +0.000 A 
ATOM     26  C   UNL     1      -4.940  11.488  17.659  0.00  0.00    +0.000 A 
ATOM     27  C   UNL     1      -4.614  10.984  16.404  0.00  0.00    +0.000 A 
ATOM     28  C   UNL     1      -3.276  10.806  16.076  0.00  0.00    +0.000 A 
ATOM     29 CL   UNL     1      -2.856  10.178  14.527  0.00  0.00    +0.000 Cl
ATOM     30  C   UNL     1      -2.267  11.120  16.993  0.00  0.00    +0.000 A 
ENDBRANCH  18  24
TORSDOF 1
ENDMDL
MODEL 6
REMARK VINA RESULT:      -6.8      2.975      4.646
REMARK  Name = 
REMARK  3 active torsions:
REMARK  status: ('A' for Active; 'I' for Inactive)
REMARK    1  A    between atoms: C_1  and  C_2
REMARK    2  A    between atoms: C_2  and  C_3
REMARK    3  A    between atoms: N_18  and  C_19
REMARK                            x       y       z     vdW  Elec       q    Type
REMARK                         _______ _______ _______ _____ _____    ______ ____
ROOT
ATOM      1  C   UNL     1       3.619  17.143  18.969  0.00  0.00    +0.000 C 
ATOM      2  C   UNL     1       3.023  15.730  18.751  0.00  0.00    +0.000 C 
ATOM      3  C   UNL     1       3.501  15.248  17.361  0.00  0.00    +0.000 C 
ATOM      4  C   UNL     1       3.599  14.789  19.817  0.00  0.00    +0.000 C 
ATOM      5  C   UNL     1       2.704  14.160  20.854  0.00  0.00    +0.000 C 
ATOM      6  O   UNL     1       3.249  13.474  21.727  0.00  0.00    +0.000 OA
ATOM      7  C   UNL     1       1.195  14.243  20.772  0.00  0.00    +0.000 C 
ATOM      8  C   UNL     1       0.719  14.572  22.204  0.00  0.00    +0.000 C 
ATOM      9  C   UNL     1      -0.753  14.311  22.412  0.00  0.00    +0.000 A 
ATOM     10  C   UNL     1      -1.390  14.996  23.467  0.00  0.00    +0.000 A 
ATOM     11  C   UNL     1      -2.756  14.874  23.667  0.00  0.00    +0.000 A 
ATOM     12  C   UNL     1      -3.495  14.070  22.813  0.00  0.00    +0.000 A 
ATOM     13  C   UNL     1      -2.861  13.377  21.774  0.00  0.00    +0.000 A 
ATOM     14  C   UNL     1      -1.472  13.448  21.558  0.00  0.00    +0.000 A 
ATOM     15  N   UNL     1      -0.849  12.791  20.473  0.00  0.00    +0.000 N 
ATOM     16  C   UNL     1      -1.419  11.468  20.098  0.00  0.00    +0.000 C 
ATOM     17  C   UNL     1      -0.883  11.011  18.729  0.00  0.00    +0.000 C 
ATOM     18  N   UNL     1       0.586  10.977  18.713  0.00  0.00    +0.000 N 
ATOM     19  C   UNL     1       1.215  12.259  19.090  0.00  0.00    +0.000 C 
ATOM     20  C   UNL     1       0.644  12.832  20.445  0.00  0.00    +0.000 C 
ATOM     21  C   UNL     1       0.694  15.367  19.866  0.00  0.00    +0.000 C 
ATOM     22  O   UNL     1      -0.406  15.908  20.010  0.00  0.00    +0.000 OA
ATOM     23  C   UNL     1       1.498  15.825  18.684  0.00  0.00    +0.000 C 
ENDROOT
BRANCH  18  24
ATOM     24  C   UNL     1       1.283   9.781  18.757  0.00  0.00    +0.000 A 
ATOM     25  C   UNL     1       2.123   9.405  17.695  0.00  0.00    +0.000 A 
ATOM     26  C   UNL     1       2.775   8.166  17.665  0.00  0.00    +0.000 A 
ATOM     27  C   UNL     1       2.612   7.268  18.715  0.00  0.00    +0.000 A 
ATOM     28  C   UNL     1       1.798   7.622  19.783  0.00  0.00    +0.000 A 
ATOM     29 CL   UNL     1       1.582   6.519  21.090  0.00  0.00    +0.000 Cl
ATOM     30  C   UNL     1       1.141   8.858  19.804  0.00  0.00    +0.000 A 
ENDBRANCH  18  24
TORSDOF 1
ENDMDL
MODEL 7
REMARK VINA RESULT:      -6.8      3.286      5.836
REMARK  Name = 
REMARK  3 active torsions:
REMARK  status: ('A' for Active; 'I' for Inactive)
REMARK    1  A    between atoms: C_1  and  C_2
REMARK    2  A    between atoms: C_2  and  C_3
REMARK    3  A    between atoms: N_18  and  C_19
REMARK                            x       y       z     vdW  Elec       q    Type
REMARK                         _______ _______ _______ _____ _____    ______ ____
ROOT
ATOM      1  C   UNL     1      -0.397   9.347  21.179  0.00  0.00    +0.000 C 
ATOM      2  C   UNL     1      -0.327  10.888  21.049  0.00  0.00    +0.000 C 
ATOM      3  C   UNL     1       1.170  11.268  20.968  0.00  0.00    +0.000 C 
ATOM      4  C   UNL     1      -1.005  11.297  19.735  0.00  0.00    +0.000 C 
ATOM      5  C   UNL     1      -2.261  12.130  19.743  0.00  0.00    +0.000 C 
ATOM      6  O   UNL     1      -2.793  12.357  18.649  0.00  0.00    +0.000 OA
ATOM      7  C   UNL     1      -2.788  12.778  21.004  0.00  0.00    +0.000 C 
ATOM      8  C   UNL     1      -4.313  12.526  20.994  0.00  0.00    +0.000 C 
ATOM      9  C   UNL     1      -5.066  13.419  21.950  0.00  0.00    +0.000 A 
ATOM     10  C   UNL     1      -6.334  12.982  22.382  0.00  0.00    +0.000 A 
ATOM     11  C   UNL     1      -7.049  13.705  23.324  0.00  0.00    +0.000 A 
ATOM     12  C   UNL     1      -6.499  14.867  23.844  0.00  0.00    +0.000 A 
ATOM     13  C   UNL     1      -5.246  15.310  23.404  0.00  0.00    +0.000 A 
ATOM     14  C   UNL     1      -4.504  14.623  22.425  0.00  0.00    +0.000 A 
ATOM     15  N   UNL     1      -3.215  15.046  22.028  0.00  0.00    +0.000 N 
ATOM     16  C   UNL     1      -2.999  16.519  21.982  0.00  0.00    +0.000 C 
ATOM     17  C   UNL     1      -1.499  16.846  21.859  0.00  0.00    +0.000 C 
ATOM     18  N   UNL     1      -0.901  16.187  20.690  0.00  0.00    +0.000 N 
ATOM     19  C   UNL     1      -1.093  14.722  20.670  0.00  0.00    +0.000 C 
ATOM     20  C   UNL     1      -2.602  14.312  20.881  0.00  0.00    +0.000 C 
ATOM     21  C   UNL     1      -2.241  12.154  22.286  0.00  0.00    +0.000 C 
ATOM     22  O   UNL     1      -2.849  12.180  23.360  0.00  0.00    +0.000 OA
ATOM     23  C   UNL     1      -0.876  11.532  22.324  0.00  0.00    +0.000 C 
ENDROOT
BRANCH  18  24
ATOM     24  C   UNL     1      -0.576  16.896  19.546  0.00  0.00    +0.000 A 
ATOM     25  C   UNL     1      -1.539  17.690  18.899  0.00  0.00    +0.000 A 
ATOM     26  C   UNL     1      -1.270  18.350  17.693  0.00  0.00    +0.000 A 
ATOM     27  C   UNL     1      -0.014  18.243  17.106  0.00  0.00    +0.000 A 
ATOM     28  C   UNL     1       0.960  17.476  17.733  0.00  0.00    +0.000 A 
ATOM     29 CL   UNL     1       2.520  17.329  17.016  0.00  0.00    +0.000 Cl
ATOM     30  C   UNL     1       0.683  16.810  18.933  0.00  0.00    +0.000 A 
ENDBRANCH  18  24
TORSDOF 1
ENDMDL
MODEL 8
REMARK VINA RESULT:      -6.8      2.568      3.771
REMARK  Name = 
REMARK  3 active torsions:
REMARK  status: ('A' for Active; 'I' for Inactive)
REMARK    1  A    between atoms: C_1  and  C_2
REMARK    2  A    between atoms: C_2  and  C_3
REMARK    3  A    between atoms: N_18  and  C_19
REMARK                            x       y       z     vdW  Elec       q    Type
REMARK                         _______ _______ _______ _____ _____    ______ ____
ROOT
ATOM      1  C   UNL     1       3.048  17.371  19.164  0.00  0.00    +0.000 C 
ATOM      2  C   UNL     1       2.479  15.946  18.958  0.00  0.00    +0.000 C 
ATOM      3  C   UNL     1       3.253  15.316  17.776  0.00  0.00    +0.000 C 
ATOM      4  C   UNL     1       2.764  15.122  20.220  0.00  0.00    +0.000 C 
ATOM      5  C   UNL     1       1.634  14.611  21.078  0.00  0.00    +0.000 C 
ATOM      6  O   UNL     1       1.942  14.019  22.120  0.00  0.00    +0.000 OA
ATOM      7  C   UNL     1       0.189  14.691  20.636  0.00  0.00    +0.000 C 
ATOM      8  C   UNL     1      -0.598  15.173  21.875  0.00  0.00    +0.000 C 
ATOM      9  C   UNL     1      -2.084  14.942  21.758  0.00  0.00    +0.000 A 
ATOM     10  C   UNL     1      -2.929  15.738  22.558  0.00  0.00    +0.000 A 
ATOM     11  C   UNL     1      -4.307  15.643  22.444  0.00  0.00    +0.000 A 
ATOM     12  C   UNL     1      -4.850  14.756  21.528  0.00  0.00    +0.000 A 
ATOM     13  C   UNL     1      -4.012  13.953  20.744  0.00  0.00    +0.000 A 
ATOM     14  C   UNL     1      -2.610  13.995  20.853  0.00  0.00    +0.000 A 
ATOM     15  N   UNL     1      -1.770  13.224  20.018  0.00  0.00    +0.000 N 
ATOM     16  C   UNL     1      -2.276  11.870  19.658  0.00  0.00    +0.000 C 
ATOM     17  C   UNL     1      -1.450  11.268  18.507  0.00  0.00    +0.000 C 
ATOM     18  N   UNL     1      -0.020  11.226  18.839  0.00  0.00    +0.000 N 
ATOM     19  C   UNL     1       0.542  12.538  19.219  0.00  0.00    +0.000 C 
ATOM     20  C   UNL     1      -0.311  13.255  20.336  0.00  0.00    +0.000 C 
ATOM     21  C   UNL     1      -0.054  15.713  19.527  0.00  0.00    +0.000 C 
ATOM     22  O   UNL     1      -1.142  16.271  19.354  0.00  0.00    +0.000 OA
ATOM     23  C   UNL     1       1.015  16.039  18.526  0.00  0.00    +0.000 C 
ENDROOT
BRANCH  18  24
ATOM     24  C   UNL     1       0.614  10.039  19.168  0.00  0.00    +0.000 A 
ATOM     25  C   UNL     1       0.459   9.477  20.446  0.00  0.00    +0.000 A 
ATOM     26  C   UNL     1       1.153   8.326  20.842  0.00  0.00    +0.000 A 
ATOM     27  C   UNL     1       2.016   7.694  19.953  0.00  0.00    +0.000 A 
ATOM     28  C   UNL     1       2.176   8.222  18.678  0.00  0.00    +0.000 A 
ATOM     29 CL   UNL     1       3.246   7.454  17.567  0.00  0.00    +0.000 Cl
ATOM     30  C   UNL     1       1.488   9.378  18.291  0.00  0.00    +0.000 A 
ENDBRANCH  18  24
TORSDOF 1
ENDMDL
MODEL 9
REMARK VINA RESULT:      -6.7      3.148      6.726
REMARK  Name = 
REMARK  3 active torsions:
REMARK  status: ('A' for Active; 'I' for Inactive)
REMARK    1  A    between atoms: C_1  and  C_2
REMARK    2  A    between atoms: C_2  and  C_3
REMARK    3  A    between atoms: N_18  and  C_19
REMARK                            x       y       z     vdW  Elec       q    Type
REMARK                         _______ _______ _______ _____ _____    ______ ____
ROOT
ATOM      1  C   UNL     1       2.067  15.893  18.455  0.00  0.00    +0.000 C 
ATOM      2  C   UNL     1       1.055  15.297  19.463  0.00  0.00    +0.000 C 
ATOM      3  C   UNL     1       0.578  16.458  20.366  0.00  0.00    +0.000 C 
ATOM      4  C   UNL     1      -0.151  14.761  18.681  0.00  0.00    +0.000 C 
ATOM      5  C   UNL     1      -0.471  13.287  18.673  0.00  0.00    +0.000 C 
ATOM      6  O   UNL     1      -1.414  12.920  17.960  0.00  0.00    +0.000 OA
ATOM      7  C   UNL     1       0.229  12.307  19.588  0.00  0.00    +0.000 C 
ATOM      8  C   UNL     1       0.561  11.082  18.708  0.00  0.00    +0.000 C 
ATOM      9  C   UNL     1       0.903   9.851  19.511  0.00  0.00    +0.000 A 
ATOM     10  C   UNL     1       1.666   8.852  18.874  0.00  0.00    +0.000 A 
ATOM     11  C   UNL     1       2.090   7.732  19.573  0.00  0.00    +0.000 A 
ATOM     12  C   UNL     1       1.759   7.606  20.912  0.00  0.00    +0.000 A 
ATOM     13  C   UNL     1       0.988   8.590  21.543  0.00  0.00    +0.000 A 
ATOM     14  C   UNL     1       0.509   9.725  20.861  0.00  0.00    +0.000 A 
ATOM     15  N   UNL     1      -0.219  10.742  21.518  0.00  0.00    +0.000 N 
ATOM     16  C   UNL     1      -1.143  10.289  22.594  0.00  0.00    +0.000 C 
ATOM     17  C   UNL     1      -1.624  11.483  23.439  0.00  0.00    +0.000 C 
ATOM     18  N   UNL     1      -2.253  12.513  22.602  0.00  0.00    +0.000 N 
ATOM     19  C   UNL     1      -1.390  12.997  21.504  0.00  0.00    +0.000 C 
ATOM     20  C   UNL     1      -0.789  11.815  20.649  0.00  0.00    +0.000 C 
ATOM     21  C   UNL     1       1.552  12.829  20.145  0.00  0.00    +0.000 C 
ATOM     22  O   UNL     1       2.475  12.088  20.493  0.00  0.00    +0.000 OA
ATOM     23  C   UNL     1       1.771  14.296  20.373  0.00  0.00    +0.000 C 
ENDROOT
BRANCH  18  24
ATOM     24  C   UNL     1      -3.625  12.694  22.584  0.00  0.00    +0.000 A 
ATOM     25  C   UNL     1      -4.344  12.828  23.784  0.00  0.00    +0.000 A 
ATOM     26  C   UNL     1      -5.741  12.925  23.808  0.00  0.00    +0.000 A 
ATOM     27  C   UNL     1      -6.460  12.905  22.617  0.00  0.00    +0.000 A 
ATOM     28  C   UNL     1      -5.772  12.787  21.417  0.00  0.00    +0.000 A 
ATOM     29 CL   UNL     1      -6.649  12.755  19.934  0.00  0.00    +0.000 Cl
ATOM     30  C   UNL     1      -4.377  12.681  21.399  0.00  0.00    +0.000 A 
ENDBRANCH  18  24
TORSDOF 1
ENDMDL
