MODEL 1
REMARK VINA RESULT:      -7.2      0.000      0.000
REMARK  Name = 
REMARK  4 active torsions:
REMARK  status: ('A' for Active; 'I' for Inactive)
REMARK    1  A    between atoms: N_2  and  C_4
REMARK    2  A    between atoms: C_7  and  N_8
REMARK    3  A    between atoms: N_8  and  S_9
REMARK    4  A    between atoms: S_9  and  C_12
REMARK                            x       y       z     vdW  Elec       q    Type
REMARK                         _______ _______ _______ _____ _____    ______ ____
ROOT
ATOM      1  N   UNL     1       7.146   6.124  15.905  0.00  0.00    +0.000 N 
ATOM      2  H   UNL     1       6.809   7.087  15.881  0.00  0.00    +0.000 HD
ENDROOT
BRANCH   1   6
ATOM      3  C   UNL     1       5.921   3.554  12.794  0.00  0.00    +0.000 A 
ATOM      4  C   UNL     1       5.089   3.737  13.908  0.00  0.00    +0.000 A 
ATOM      5  C   UNL     1       5.501   4.584  14.949  0.00  0.00    +0.000 A 
ATOM      6  C   UNL     1       6.731   5.238  14.875  0.00  0.00    +0.000 A 
ATOM      7  C   UNL     1       7.553   5.059  13.758  0.00  0.00    +0.000 A 
ATOM      8  C   UNL     1       7.153   4.214  12.717  0.00  0.00    +0.000 A 
BRANCH   3  10
ATOM      9  O   UNL     1       6.310   1.810  11.308  0.00  0.00    +0.000 OA
ATOM     10  N   UNL     1       5.501   2.665  11.705  0.00  0.00    +0.000 N 
ATOM     11  O   UNL     1       4.365   2.824  11.235  0.00  0.00    +0.000 OA
ENDBRANCH   3  10
ENDBRANCH   1   6
BRANCH   1  12
ATOM     12  S   UNL     1       7.360   5.552  17.479  0.00  0.00    +0.000 S 
ATOM     13  O   UNL     1       8.017   4.268  17.362  0.00  0.00    +0.000 OA
ATOM     14  O   UNL     1       7.921   6.601  18.304  0.00  0.00    +0.000 OA
BRANCH  12  15
ATOM     15  C   UNL     1       5.695   5.244  18.019  0.00  0.00    +0.000 A 
ATOM     16  C   UNL     1       4.718   6.234  17.866  0.00  0.00    +0.000 A 
ATOM     17  C   UNL     1       3.398   5.954  18.225  0.00  0.00    +0.000 A 
ATOM     18  C   UNL     1       3.064   4.693  18.723  0.00  0.00    +0.000 A 
ATOM     19 CL   UNL     1       1.432   4.347  19.143  0.00  0.00    +0.000 Cl
ATOM     20  C   UNL     1       4.039   3.705  18.866  0.00  0.00    +0.000 A 
ATOM     21  C   UNL     1       5.359   3.977  18.509  0.00  0.00    +0.000 A 
ENDBRANCH  12  15
ENDBRANCH   1  12
TORSDOF 4
ENDMDL
MODEL 2
REMARK VINA RESULT:      -7.2      3.758      4.659
REMARK  Name = 
REMARK  4 active torsions:
REMARK  status: ('A' for Active; 'I' for Inactive)
REMARK    1  A    between atoms: N_2  and  C_4
REMARK    2  A    between atoms: C_7  and  N_8
REMARK    3  A    between atoms: N_8  and  S_9
REMARK    4  A    between atoms: S_9  and  C_12
REMARK                            x       y       z     vdW  Elec       q    Type
REMARK                         _______ _______ _______ _____ _____    ______ ____
ROOT
ATOM      1  N   UNL     1       4.420   5.864  19.153  0.00  0.00    +0.000 N 
ATOM      2  H   UNL     1       4.797   6.630  19.711  0.00  0.00    +0.000 HD
ENDROOT
BRANCH   1   6
ATOM      3  C   UNL     1       6.240   5.072  15.431  0.00  0.00    +0.000 A 
ATOM      4  C   UNL     1       5.489   6.244  15.598  0.00  0.00    +0.000 A 
ATOM      5  C   UNL     1       4.873   6.503  16.833  0.00  0.00    +0.000 A 
ATOM      6  C   UNL     1       5.009   5.598  17.887  0.00  0.00    +0.000 A 
ATOM      7  C   UNL     1       5.767   4.436  17.718  0.00  0.00    +0.000 A 
ATOM      8  C   UNL     1       6.381   4.167  16.490  0.00  0.00    +0.000 A 
BRANCH   3  10
ATOM      9  O   UNL     1       6.411   3.872  13.449  0.00  0.00    +0.000 OA
ATOM     10  N   UNL     1       6.880   4.790  14.141  0.00  0.00    +0.000 N 
ATOM     11  O   UNL     1       7.860   5.478  13.821  0.00  0.00    +0.000 OA
ENDBRANCH   3  10
ENDBRANCH   1   6
BRANCH   1  12
ATOM     12  S   UNL     1       2.760   5.656  19.374  0.00  0.00    +0.000 S 
ATOM     13  O   UNL     1       2.272   4.973  18.196  0.00  0.00    +0.000 OA
ATOM     14  O   UNL     1       2.511   5.125  20.697  0.00  0.00    +0.000 OA
BRANCH  12  15
ATOM     15  C   UNL     1       2.140   7.320  19.313  0.00  0.00    +0.000 A 
ATOM     16  C   UNL     1       2.117   8.011  18.096  0.00  0.00    +0.000 A 
ATOM     17  C   UNL     1       1.558   9.290  18.045  0.00  0.00    +0.000 A 
ATOM     18  C   UNL     1       1.023   9.862  19.200  0.00  0.00    +0.000 A 
ATOM     19 CL   UNL     1       0.317  11.430  19.128  0.00  0.00    +0.000 Cl
ATOM     20  C   UNL     1       1.040   9.168  20.411  0.00  0.00    +0.000 A 
ATOM     21  C   UNL     1       1.595   7.890  20.469  0.00  0.00    +0.000 A 
ENDBRANCH  12  15
ENDBRANCH   1  12
TORSDOF 4
ENDMDL
MODEL 3
REMARK VINA RESULT:      -7.1      3.897      4.894
REMARK  Name = 
REMARK  4 active torsions:
REMARK  status: ('A' for Active; 'I' for Inactive)
REMARK    1  A    between atoms: N_2  and  C_4
REMARK    2  A    between atoms: C_7  and  N_8
REMARK    3  A    between atoms: N_8  and  S_9
REMARK    4  A    between atoms: S_9  and  C_12
REMARK                            x       y       z     vdW  Elec       q    Type
REMARK                         _______ _______ _______ _____ _____    ______ ____
ROOT
ATOM      1  N   UNL     1       4.223   5.855  19.519  0.00  0.00    +0.000 N 
ATOM      2  H   UNL     1       4.597   6.581  20.131  0.00  0.00    +0.000 HD
ENDROOT
BRANCH   1   6
ATOM      3  C   UNL     1       6.144   5.095  15.843  0.00  0.00    +0.000 A 
ATOM      4  C   UNL     1       6.095   4.089  16.818  0.00  0.00    +0.000 A 
ATOM      5  C   UNL     1       5.465   4.345  18.047  0.00  0.00    +0.000 A 
ATOM      6  C   UNL     1       4.893   5.593  18.294  0.00  0.00    +0.000 A 
ATOM      7  C   UNL     1       4.937   6.590  17.314  0.00  0.00    +0.000 A 
ATOM      8  C   UNL     1       5.565   6.346  16.088  0.00  0.00    +0.000 A 
BRANCH   3  10
ATOM      9  O   UNL     1       7.815   5.508  14.282  0.00  0.00    +0.000 OA
ATOM     10  N   UNL     1       6.807   4.838  14.559  0.00  0.00    +0.000 N 
ATOM     11  O   UNL     1       6.316   3.973  13.819  0.00  0.00    +0.000 OA
ENDBRANCH   3  10
ENDBRANCH   1   6
BRANCH   1  12
ATOM     12  S   UNL     1       2.541   5.740  19.606  0.00  0.00    +0.000 S 
ATOM     13  O   UNL     1       2.113   5.079  18.392  0.00  0.00    +0.000 OA
ATOM     14  O   UNL     1       2.156   5.230  20.904  0.00  0.00    +0.000 OA
BRANCH  12  15
ATOM     15  C   UNL     1       2.020   7.435  19.492  0.00  0.00    +0.000 A 
ATOM     16  C   UNL     1       2.083   8.103  18.265  0.00  0.00    +0.000 A 
ATOM     17  C   UNL     1       1.601   9.411  18.171  0.00  0.00    +0.000 A 
ATOM     18  C   UNL     1       1.057  10.034  19.295  0.00  0.00    +0.000 A 
ATOM     19 CL   UNL     1       0.445  11.638  19.169  0.00  0.00    +0.000 Cl
ATOM     20  C   UNL     1       0.988   9.363  20.516  0.00  0.00    +0.000 A 
ATOM     21  C   UNL     1       1.466   8.056  20.617  0.00  0.00    +0.000 A 
ENDBRANCH  12  15
ENDBRANCH   1  12
TORSDOF 4
ENDMDL
MODEL 4
REMARK VINA RESULT:      -7.1      4.330      7.195
REMARK  Name = 
REMARK  4 active torsions:
REMARK  status: ('A' for Active; 'I' for Inactive)
REMARK    1  A    between atoms: N_2  and  C_4
REMARK    2  A    between atoms: C_7  and  N_8
REMARK    3  A    between atoms: N_8  and  S_9
REMARK    4  A    between atoms: S_9  and  C_12
REMARK                            x       y       z     vdW  Elec       q    Type
REMARK                         _______ _______ _______ _____ _____    ______ ____
ROOT
ATOM      1  N   UNL     1       3.306   4.567  18.781  0.00  0.00    +0.000 N 
ATOM      2  H   UNL     1       2.958   4.055  17.971  0.00  0.00    +0.000 HD
ENDROOT
BRANCH   1   6
ATOM      3  C   UNL     1       1.620   8.322  19.698  0.00  0.00    +0.000 A 
ATOM      4  C   UNL     1       1.549   7.284  20.638  0.00  0.00    +0.000 A 
ATOM      5  C   UNL     1       2.100   6.030  20.329  0.00  0.00    +0.000 A 
ATOM      6  C   UNL     1       2.714   5.820  19.094  0.00  0.00    +0.000 A 
ATOM      7  C   UNL     1       2.791   6.861  18.165  0.00  0.00    +0.000 A 
ATOM      8  C   UNL     1       2.242   8.113  18.461  0.00  0.00    +0.000 A 
BRANCH   3  10
ATOM      9  O   UNL     1       1.021   9.991  21.199  0.00  0.00    +0.000 OA
ATOM     10  N   UNL     1       1.041   9.634  20.010  0.00  0.00    +0.000 N 
ATOM     11  O   UNL     1       0.594  10.306  19.070  0.00  0.00    +0.000 OA
ENDBRANCH   3  10
ENDBRANCH   1   6
BRANCH   1  12
ATOM     12  S   UNL     1       4.956   4.321  19.041  0.00  0.00    +0.000 S 
ATOM     13  O   UNL     1       5.436   5.485  19.754  0.00  0.00    +0.000 OA
ATOM     14  O   UNL     1       5.171   2.989  19.564  0.00  0.00    +0.000 OA
BRANCH  12  15
ATOM     15  C   UNL     1       5.632   4.395  17.399  0.00  0.00    +0.000 A 
ATOM     16  C   UNL     1       4.790   4.246  16.292  0.00  0.00    +0.000 A 
ATOM     17  C   UNL     1       5.319   4.380  15.006  0.00  0.00    +0.000 A 
ATOM     18  C   UNL     1       6.675   4.669  14.838  0.00  0.00    +0.000 A 
ATOM     19 CL   UNL     1       7.318   4.855  13.253  0.00  0.00    +0.000 Cl
ATOM     20  C   UNL     1       7.510   4.826  15.944  0.00  0.00    +0.000 A 
ATOM     21  C   UNL     1       6.988   4.694  17.231  0.00  0.00    +0.000 A 
ENDBRANCH  12  15
ENDBRANCH   1  12
TORSDOF 4
ENDMDL
MODEL 5
REMARK VINA RESULT:      -7.0      0.453      1.352
REMARK  Name = 
REMARK  4 active torsions:
REMARK  status: ('A' for Active; 'I' for Inactive)
REMARK    1  A    between atoms: N_2  and  C_4
REMARK    2  A    between atoms: C_7  and  N_8
REMARK    3  A    between atoms: N_8  and  S_9
REMARK    4  A    between atoms: S_9  and  C_12
REMARK                            x       y       z     vdW  Elec       q    Type
REMARK                         _______ _______ _______ _____ _____    ______ ____
ROOT
ATOM      1  N   UNL     1       6.730   6.234  15.910  0.00  0.00    +0.000 N 
ATOM      2  H   UNL     1       6.174   7.090  15.906  0.00  0.00    +0.000 HD
ENDROOT
BRANCH   1   6
ATOM      3  C   UNL     1       6.122   3.493  12.764  0.00  0.00    +0.000 A 
ATOM      4  C   UNL     1       5.155   3.615  13.771  0.00  0.00    +0.000 A 
ATOM      5  C   UNL     1       5.362   4.519  14.825  0.00  0.00    +0.000 A 
ATOM      6  C   UNL     1       6.524   5.291  14.868  0.00  0.00    +0.000 A 
ATOM      7  C   UNL     1       7.480   5.172  13.856  0.00  0.00    +0.000 A 
ATOM      8  C   UNL     1       7.285   4.271  12.803  0.00  0.00    +0.000 A 
BRANCH   3  10
ATOM      9  O   UNL     1       4.760   2.388  11.240  0.00  0.00    +0.000 OA
ATOM     10  N   UNL     1       5.917   2.545  11.662  0.00  0.00    +0.000 N 
ATOM     11  O   UNL     1       6.910   1.946  11.223  0.00  0.00    +0.000 OA
ENDBRANCH   3  10
ENDBRANCH   1   6
BRANCH   1  12
ATOM     12  S   UNL     1       7.096   5.706  17.470  0.00  0.00    +0.000 S 
ATOM     13  O   UNL     1       7.788   4.444  17.324  0.00  0.00    +0.000 OA
ATOM     14  O   UNL     1       7.685   6.792  18.224  0.00  0.00    +0.000 OA
BRANCH  12  15
ATOM     15  C   UNL     1       5.495   5.352  18.155  0.00  0.00    +0.000 A 
ATOM     16  C   UNL     1       5.311   4.209  18.942  0.00  0.00    +0.000 A 
ATOM     17  C   UNL     1       4.068   3.981  19.537  0.00  0.00    +0.000 A 
ATOM     18  C   UNL     1       3.028   4.892  19.348  0.00  0.00    +0.000 A 
ATOM     19 CL   UNL     1       1.505   4.617  20.100  0.00  0.00    +0.000 Cl
ATOM     20  C   UNL     1       3.216   6.035  18.570  0.00  0.00    +0.000 A 
ATOM     21  C   UNL     1       4.456   6.271  17.974  0.00  0.00    +0.000 A 
ENDBRANCH  12  15
ENDBRANCH   1  12
TORSDOF 4
ENDMDL
MODEL 6
REMARK VINA RESULT:      -7.0      0.335      1.132
REMARK  Name = 
REMARK  4 active torsions:
REMARK  status: ('A' for Active; 'I' for Inactive)
REMARK    1  A    between atoms: N_2  and  C_4
REMARK    2  A    between atoms: C_7  and  N_8
REMARK    3  A    between atoms: N_8  and  S_9
REMARK    4  A    between atoms: S_9  and  C_12
REMARK                            x       y       z     vdW  Elec       q    Type
REMARK                         _______ _______ _______ _____ _____    ______ ____
ROOT
ATOM      1  N   UNL     1       6.782   6.252  15.948  0.00  0.00    +0.000 N 
ATOM      2  H   UNL     1       6.230   7.110  15.983  0.00  0.00    +0.000 HD
ENDROOT
BRANCH   1   6
ATOM      3  C   UNL     1       6.137   3.525  12.797  0.00  0.00    +0.000 A 
ATOM      4  C   UNL     1       7.294   4.316  12.801  0.00  0.00    +0.000 A 
ATOM      5  C   UNL     1       7.505   5.232  13.844  0.00  0.00    +0.000 A 
ATOM      6  C   UNL     1       6.566   5.354  14.869  0.00  0.00    +0.000 A 
ATOM      7  C   UNL     1       5.419   4.556  14.866  0.00  0.00    +0.000 A 
ATOM      8  C   UNL     1       5.198   3.642  13.829  0.00  0.00    +0.000 A 
BRANCH   3  10
ATOM      9  O   UNL     1       6.885   1.942  11.269  0.00  0.00    +0.000 OA
ATOM     10  N   UNL     1       5.907   2.570  11.707  0.00  0.00    +0.000 N 
ATOM     11  O   UNL     1       4.750   2.451  11.278  0.00  0.00    +0.000 OA
ENDBRANCH   3  10
ENDBRANCH   1   6
BRANCH   1  12
ATOM     12  S   UNL     1       7.150   5.657  17.484  0.00  0.00    +0.000 S 
ATOM     13  O   UNL     1       7.816   4.389  17.283  0.00  0.00    +0.000 OA
ATOM     14  O   UNL     1       7.767   6.702  18.274  0.00  0.00    +0.000 OA
BRANCH  12  15
ATOM     15  C   UNL     1       5.549   5.308  18.169  0.00  0.00    +0.000 A 
ATOM     16  C   UNL     1       4.499   6.215  17.987  0.00  0.00    +0.000 A 
ATOM     17  C   UNL     1       3.226   5.895  18.465  0.00  0.00    +0.000 A 
ATOM     18  C   UNL     1       3.011   4.676  19.110  0.00  0.00    +0.000 A 
ATOM     19 CL   UNL     1       1.437   4.277  19.678  0.00  0.00    +0.000 Cl
ATOM     20  C   UNL     1       4.058   3.769  19.283  0.00  0.00    +0.000 A 
ATOM     21  C   UNL     1       5.331   4.081  18.807  0.00  0.00    +0.000 A 
ENDBRANCH  12  15
ENDBRANCH   1  12
TORSDOF 4
ENDMDL
MODEL 7
REMARK VINA RESULT:      -7.0      3.789      4.754
REMARK  Name = 
REMARK  4 active torsions:
REMARK  status: ('A' for Active; 'I' for Inactive)
REMARK    1  A    between atoms: N_2  and  C_4
REMARK    2  A    between atoms: C_7  and  N_8
REMARK    3  A    between atoms: N_8  and  S_9
REMARK    4  A    between atoms: S_9  and  C_12
REMARK                            x       y       z     vdW  Elec       q    Type
REMARK                         _______ _______ _______ _____ _____    ______ ____
ROOT
ATOM      1  N   UNL     1       4.340   5.852  19.246  0.00  0.00    +0.000 N 
ATOM      2  H   UNL     1       4.692   6.630  19.805  0.00  0.00    +0.000 HD
ENDROOT
BRANCH   1   6
ATOM      3  C   UNL     1       6.214   5.085  15.547  0.00  0.00    +0.000 A 
ATOM      4  C   UNL     1       5.499   6.277  15.726  0.00  0.00    +0.000 A 
ATOM      5  C   UNL     1       4.866   6.529  16.953  0.00  0.00    +0.000 A 
ATOM      6  C   UNL     1       4.947   5.596  17.988  0.00  0.00    +0.000 A 
ATOM      7  C   UNL     1       5.669   4.413  17.807  0.00  0.00    +0.000 A 
ATOM      8  C   UNL     1       6.301   4.151  16.586  0.00  0.00    +0.000 A 
BRANCH   3  10
ATOM      9  O   UNL     1       6.435   3.875  13.575  0.00  0.00    +0.000 OA
ATOM     10  N   UNL     1       6.873   4.811  14.265  0.00  0.00    +0.000 N 
ATOM     11  O   UNL     1       7.836   5.523  13.947  0.00  0.00    +0.000 OA
ENDBRANCH   3  10
ENDBRANCH   1   6
BRANCH   1  12
ATOM     12  S   UNL     1       2.683   5.605  19.453  0.00  0.00    +0.000 S 
ATOM     13  O   UNL     1       2.223   4.906  18.272  0.00  0.00    +0.000 OA
ATOM     14  O   UNL     1       2.433   5.073  20.775  0.00  0.00    +0.000 OA
BRANCH  12  15
ATOM     15  C   UNL     1       2.023   7.253  19.378  0.00  0.00    +0.000 A 
ATOM     16  C   UNL     1       1.559   7.872  20.543  0.00  0.00    +0.000 A 
ATOM     17  C   UNL     1       1.113   9.194  20.486  0.00  0.00    +0.000 A 
ATOM     18  C   UNL     1       1.140   9.886  19.274  0.00  0.00    +0.000 A 
ATOM     19 CL   UNL     1       0.609  11.522  19.212  0.00  0.00    +0.000 Cl
ATOM     20  C   UNL     1       1.611   9.270  18.114  0.00  0.00    +0.000 A 
ATOM     21  C   UNL     1       2.060   7.950  18.164  0.00  0.00    +0.000 A 
ENDBRANCH  12  15
ENDBRANCH   1  12
TORSDOF 4
ENDMDL
MODEL 8
REMARK VINA RESULT:      -7.0      0.975      1.513
REMARK  Name = 
REMARK  4 active torsions:
REMARK  status: ('A' for Active; 'I' for Inactive)
REMARK    1  A    between atoms: N_2  and  C_4
REMARK    2  A    between atoms: C_7  and  N_8
REMARK    3  A    between atoms: N_8  and  S_9
REMARK    4  A    between atoms: S_9  and  C_12
REMARK                            x       y       z     vdW  Elec       q    Type
REMARK                         _______ _______ _______ _____ _____    ______ ____
ROOT
ATOM      1  N   UNL     1       7.627   5.053  16.761  0.00  0.00    +0.000 N 
ATOM      2  H   UNL     1       8.639   4.963  16.857  0.00  0.00    +0.000 HD
ENDROOT
BRANCH   1   6
ATOM      3  C   UNL     1       5.843   3.673  13.198  0.00  0.00    +0.000 A 
ATOM      4  C   UNL     1       6.966   4.509  13.130  0.00  0.00    +0.000 A 
ATOM      5  C   UNL     1       7.554   4.978  14.315  0.00  0.00    +0.000 A 
ATOM      6  C   UNL     1       7.022   4.614  15.553  0.00  0.00    +0.000 A 
ATOM      7  C   UNL     1       5.908   3.772  15.615  0.00  0.00    +0.000 A 
ATOM      8  C   UNL     1       5.312   3.302  14.439  0.00  0.00    +0.000 A 
BRANCH   3  10
ATOM      9  O   UNL     1       5.604   2.094  11.510  0.00  0.00    +0.000 OA
ATOM     10  N   UNL     1       5.218   3.184  11.963  0.00  0.00    +0.000 N 
ATOM     11  O   UNL     1       4.347   3.891  11.437  0.00  0.00    +0.000 OA
ENDBRANCH   3  10
ENDBRANCH   1   6
BRANCH   1  12
ATOM     12  S   UNL     1       7.018   6.402  17.571  0.00  0.00    +0.000 S 
ATOM     13  O   UNL     1       7.863   6.601  18.729  0.00  0.00    +0.000 OA
ATOM     14  O   UNL     1       6.791   7.474  16.625  0.00  0.00    +0.000 OA
BRANCH  12  15
ATOM     15  C   UNL     1       5.442   5.833  18.162  0.00  0.00    +0.000 A 
ATOM     16  C   UNL     1       4.264   6.378  17.640  0.00  0.00    +0.000 A 
ATOM     17  C   UNL     1       3.031   5.870  18.056  0.00  0.00    +0.000 A 
ATOM     18  C   UNL     1       2.985   4.824  18.979  0.00  0.00    +0.000 A 
ATOM     19 CL   UNL     1       1.465   4.188  19.474  0.00  0.00    +0.000 Cl
ATOM     20  C   UNL     1       4.162   4.277  19.493  0.00  0.00    +0.000 A 
ATOM     21  C   UNL     1       5.397   4.778  19.080  0.00  0.00    +0.000 A 
ENDBRANCH  12  15
ENDBRANCH   1  12
TORSDOF 4
ENDMDL
MODEL 9
REMARK VINA RESULT:      -7.0      0.481      1.736
REMARK  Name = 
REMARK  4 active torsions:
REMARK  status: ('A' for Active; 'I' for Inactive)
REMARK    1  A    between atoms: N_2  and  C_4
REMARK    2  A    between atoms: C_7  and  N_8
REMARK    3  A    between atoms: N_8  and  S_9
REMARK    4  A    between atoms: S_9  and  C_12
REMARK                            x       y       z     vdW  Elec       q    Type
REMARK                         _______ _______ _______ _____ _____    ______ ____
ROOT
ATOM      1  N   UNL     1       6.719   6.249  15.913  0.00  0.00    +0.000 N 
ATOM      2  H   UNL     1       6.130   7.081  15.940  0.00  0.00    +0.000 HD
ENDROOT
BRANCH   1   6
ATOM      3  C   UNL     1       6.221   3.489  12.764  0.00  0.00    +0.000 A 
ATOM      4  C   UNL     1       7.378   4.278  12.815  0.00  0.00    +0.000 A 
ATOM      5  C   UNL     1       7.540   5.205  13.856  0.00  0.00    +0.000 A 
ATOM      6  C   UNL     1       6.554   5.339  14.834  0.00  0.00    +0.000 A 
ATOM      7  C   UNL     1       5.406   4.543  14.784  0.00  0.00    +0.000 A 
ATOM      8  C   UNL     1       5.234   3.618  13.748  0.00  0.00    +0.000 A 
BRANCH   3  10
ATOM      9  O   UNL     1       4.886   2.312  11.270  0.00  0.00    +0.000 OA
ATOM     10  N   UNL     1       6.041   2.522  11.674  0.00  0.00    +0.000 N 
ATOM     11  O   UNL     1       7.052   1.962  11.226  0.00  0.00    +0.000 OA
ENDBRANCH   3  10
ENDBRANCH   1   6
BRANCH   1  12
ATOM     12  S   UNL     1       7.098   5.675  17.454  0.00  0.00    +0.000 S 
ATOM     13  O   UNL     1       7.779   4.412  17.264  0.00  0.00    +0.000 OA
ATOM     14  O   UNL     1       7.704   6.735  18.231  0.00  0.00    +0.000 OA
BRANCH  12  15
ATOM     15  C   UNL     1       5.502   5.313  18.147  0.00  0.00    +0.000 A 
ATOM     16  C   UNL     1       5.329   4.174  18.940  0.00  0.00    +0.000 A 
ATOM     17  C   UNL     1       4.090   3.940  19.541  0.00  0.00    +0.000 A 
ATOM     18  C   UNL     1       3.043   4.843  19.352  0.00  0.00    +0.000 A 
ATOM     19 CL   UNL     1       1.525   4.561  20.112  0.00  0.00    +0.000 Cl
ATOM     20  C   UNL     1       3.221   5.983  18.567  0.00  0.00    +0.000 A 
ATOM     21  C   UNL     1       4.456   6.224  17.966  0.00  0.00    +0.000 A 
ENDBRANCH  12  15
ENDBRANCH   1  12
TORSDOF 4
ENDMDL
