MODEL 1
REMARK VINA RESULT:      -7.2      0.000      0.000
REMARK  Name = 
REMARK  13 active torsions:
REMARK  status: ('A' for Active; 'I' for Inactive)
REMARK    1  A    between atoms: C_1  and  O_2
REMARK    2  A    between atoms: O_2  and  C_3
REMARK    3  A    between atoms: C_5  and  N_6
REMARK    4  A    between atoms: C_7  and  C_9
REMARK    5  A    between atoms: C_9  and  O_10
REMARK    6  A    between atoms: O_10  and  C_11
REMARK    7  A    between atoms: C_11  and  C_13
REMARK    8  A    between atoms: C_13  and  C_14
REMARK    9  A    between atoms: C_14  and  O_15
REMARK   10  A    between atoms: O_15  and  C_16
REMARK   11  A    between atoms: C_19  and  C_20
REMARK   12  A    between atoms: C_24  and  O_25
REMARK   13  A    between atoms: O_25  and  C_26
REMARK                            x       y       z     vdW  Elec       q    Type
REMARK                         _______ _______ _______ _____ _____    ______ ____
ROOT
ATOM      1  N   UNL     1       4.438   3.103  17.664  0.00  0.00    +0.000 N 
ATOM      2  C   UNL     1       3.077   2.851  17.702  0.00  0.00    +0.000 C 
ATOM      3  O   UNL     1       2.220   3.404  17.018  0.00  0.00    +0.000 OA
ATOM      4  H   UNL     1       5.026   2.489  18.212  0.00  0.00    +0.000 HD
ENDROOT
BRANCH   1   7
ATOM      5  C   UNL     1       6.076   4.892  14.830  0.00  0.00    +0.000 A 
ATOM      6  C   UNL     1       5.435   3.884  15.552  0.00  0.00    +0.000 A 
ATOM      7  C   UNL     1       5.116   4.065  16.895  0.00  0.00    +0.000 A 
ATOM      8  C   UNL     1       5.451   5.275  17.514  0.00  0.00    +0.000 A 
ATOM      9  C   UNL     1       6.108   6.287  16.804  0.00  0.00    +0.000 A 
ATOM     10  C   UNL     1       6.426   6.087  15.458  0.00  0.00    +0.000 A 
BRANCH   5  12
ATOM     11  C   UNL     1       6.114   3.236  13.118  0.00  0.00    +0.000 C 
ATOM     12  O   UNL     1       6.283   4.591  13.509  0.00  0.00    +0.000 OA
ENDBRANCH   5  12
BRANCH   9  13
ATOM     13  O   UNL     1       6.379   7.414  17.533  0.00  0.00    +0.000 OA
ATOM     14  C   UNL     1       7.749   7.774  17.673  0.00  0.00    +0.000 C 
ENDBRANCH   9  13
ENDBRANCH   1   7
BRANCH   2  15
ATOM     15  C   UNL     1       2.671   1.775  18.719  0.00  0.00    +0.000 C 
BRANCH  15  16
ATOM     16  O   UNL     1       1.453   2.030  19.424  0.00  0.00    +0.000 OA
BRANCH  16  17
ATOM     17  C   UNL     1       1.599   2.755  20.567  0.00  0.00    +0.000 C 
ATOM     18  O   UNL     1       2.186   2.369  21.565  0.00  0.00    +0.000 OA
BRANCH  17  19
ATOM     19  C   UNL     1       1.031   4.131  20.367  0.00  0.00    +0.000 C 
BRANCH  19  20
ATOM     20  C   UNL     1       2.026   5.159  20.873  0.00  0.00    +0.000 C 
BRANCH  20  21
ATOM     21  O   UNL     1       2.711   5.726  19.756  0.00  0.00    +0.000 OA
BRANCH  21  22
ATOM     22  C   UNL     1       2.301   6.987  19.408  0.00  0.00    +0.000 A 
ATOM     23  C   UNL     1       1.645   7.702  20.410  0.00  0.00    +0.000 A 
ATOM     24  C   UNL     1       1.189   9.002  20.169  0.00  0.00    +0.000 A 
ATOM     25  C   UNL     1       1.399   9.605  18.926  0.00  0.00    +0.000 A 
ATOM     26  C   UNL     1       0.932  11.001  18.646  0.00  0.00    +0.000 C 
ATOM     27  C   UNL     1       2.071   8.890  17.930  0.00  0.00    +0.000 A 
ATOM     28  C   UNL     1       2.520   7.589  18.169  0.00  0.00    +0.000 A 
ENDBRANCH  21  22
ENDBRANCH  20  21
ENDBRANCH  19  20
ENDBRANCH  17  19
ENDBRANCH  16  17
ENDBRANCH  15  16
ENDBRANCH   2  15
TORSDOF 10
ENDMDL
MODEL 2
REMARK VINA RESULT:      -7.0      1.272      1.622
REMARK  Name = 
REMARK  13 active torsions:
REMARK  status: ('A' for Active; 'I' for Inactive)
REMARK    1  A    between atoms: C_1  and  O_2
REMARK    2  A    between atoms: O_2  and  C_3
REMARK    3  A    between atoms: C_5  and  N_6
REMARK    4  A    between atoms: C_7  and  C_9
REMARK    5  A    between atoms: C_9  and  O_10
REMARK    6  A    between atoms: O_10  and  C_11
REMARK    7  A    between atoms: C_11  and  C_13
REMARK    8  A    between atoms: C_13  and  C_14
REMARK    9  A    between atoms: C_14  and  O_15
REMARK   10  A    between atoms: O_15  and  C_16
REMARK   11  A    between atoms: C_19  and  C_20
REMARK   12  A    between atoms: C_24  and  O_25
REMARK   13  A    between atoms: O_25  and  C_26
REMARK                            x       y       z     vdW  Elec       q    Type
REMARK                         _______ _______ _______ _____ _____    ______ ____
ROOT
ATOM      1  N   UNL     1       3.495   3.652  17.456  0.00  0.00    +0.000 N 
ATOM      2  C   UNL     1       3.049   2.441  17.959  0.00  0.00    +0.000 C 
ATOM      3  O   UNL     1       3.734   1.440  18.143  0.00  0.00    +0.000 OA
ATOM      4  H   UNL     1       2.831   4.416  17.464  0.00  0.00    +0.000 HD
ENDROOT
BRANCH   1   7
ATOM      5  C   UNL     1       6.420   4.414  15.270  0.00  0.00    +0.000 A 
ATOM      6  C   UNL     1       5.129   4.050  15.658  0.00  0.00    +0.000 A 
ATOM      7  C   UNL     1       4.786   3.976  17.004  0.00  0.00    +0.000 A 
ATOM      8  C   UNL     1       5.758   4.271  17.969  0.00  0.00    +0.000 A 
ATOM      9  C   UNL     1       7.060   4.622  17.592  0.00  0.00    +0.000 A 
ATOM     10  C   UNL     1       7.389   4.686  16.236  0.00  0.00    +0.000 A 
BRANCH   5  12
ATOM     11  C   UNL     1       5.794   3.642  13.106  0.00  0.00    +0.000 C 
ATOM     12  O   UNL     1       6.597   4.489  13.913  0.00  0.00    +0.000 OA
ENDBRANCH   5  12
BRANCH   9  13
ATOM     13  O   UNL     1       7.908   4.880  18.636  0.00  0.00    +0.000 OA
ATOM     14  C   UNL     1       8.007   6.234  19.062  0.00  0.00    +0.000 C 
ENDBRANCH   9  13
ENDBRANCH   1   7
BRANCH   2  15
ATOM     15  C   UNL     1       1.550   2.416  18.286  0.00  0.00    +0.000 C 
BRANCH  15  16
ATOM     16  O   UNL     1       1.225   2.100  19.642  0.00  0.00    +0.000 OA
BRANCH  16  17
ATOM     17  C   UNL     1       1.636   3.022  20.555  0.00  0.00    +0.000 C 
ATOM     18  O   UNL     1       2.459   2.813  21.432  0.00  0.00    +0.000 OA
BRANCH  17  19
ATOM     19  C   UNL     1       1.012   4.352  20.245  0.00  0.00    +0.000 C 
BRANCH  19  20
ATOM     20  C   UNL     1       2.105   5.398  20.117  0.00  0.00    +0.000 C 
BRANCH  20  21
ATOM     21  O   UNL     1       1.890   6.412  21.099  0.00  0.00    +0.000 OA
BRANCH  21  22
ATOM     22  C   UNL     1       1.558   7.641  20.593  0.00  0.00    +0.000 A 
ATOM     23  C   UNL     1       1.932   7.868  19.269  0.00  0.00    +0.000 A 
ATOM     24  C   UNL     1       1.638   9.086  18.648  0.00  0.00    +0.000 A 
ATOM     25  C   UNL     1       0.950  10.085  19.343  0.00  0.00    +0.000 A 
ATOM     26  C   UNL     1       0.610  11.393  18.696  0.00  0.00    +0.000 C 
ATOM     27  C   UNL     1       0.561   9.847  20.665  0.00  0.00    +0.000 A 
ATOM     28  C   UNL     1       0.862   8.633  21.287  0.00  0.00    +0.000 A 
ENDBRANCH  21  22
ENDBRANCH  20  21
ENDBRANCH  19  20
ENDBRANCH  17  19
ENDBRANCH  16  17
ENDBRANCH  15  16
ENDBRANCH   2  15
TORSDOF 10
ENDMDL
MODEL 3
REMARK VINA RESULT:      -7.0      0.946      2.704
REMARK  Name = 
REMARK  13 active torsions:
REMARK  status: ('A' for Active; 'I' for Inactive)
REMARK    1  A    between atoms: C_1  and  O_2
REMARK    2  A    between atoms: O_2  and  C_3
REMARK    3  A    between atoms: C_5  and  N_6
REMARK    4  A    between atoms: C_7  and  C_9
REMARK    5  A    between atoms: C_9  and  O_10
REMARK    6  A    between atoms: O_10  and  C_11
REMARK    7  A    between atoms: C_11  and  C_13
REMARK    8  A    between atoms: C_13  and  C_14
REMARK    9  A    between atoms: C_14  and  O_15
REMARK   10  A    between atoms: O_15  and  C_16
REMARK   11  A    between atoms: C_19  and  C_20
REMARK   12  A    between atoms: C_24  and  O_25
REMARK   13  A    between atoms: O_25  and  C_26
REMARK                            x       y       z     vdW  Elec       q    Type
REMARK                         _______ _______ _______ _____ _____    ______ ____
ROOT
ATOM      1  N   UNL     1       4.584   3.050  17.557  0.00  0.00    +0.000 N 
ATOM      2  C   UNL     1       3.204   2.933  17.576  0.00  0.00    +0.000 C 
ATOM      3  O   UNL     1       2.429   3.398  16.746  0.00  0.00    +0.000 OA
ATOM      4  H   UNL     1       5.091   2.520  18.254  0.00  0.00    +0.000 HD
ENDROOT
BRANCH   1   7
ATOM      5  C   UNL     1       6.949   5.501  16.034  0.00  0.00    +0.000 A 
ATOM      6  C   UNL     1       6.150   4.862  16.985  0.00  0.00    +0.000 A 
ATOM      7  C   UNL     1       5.378   3.758  16.638  0.00  0.00    +0.000 A 
ATOM      8  C   UNL     1       5.410   3.297  15.316  0.00  0.00    +0.000 A 
ATOM      9  C   UNL     1       6.194   3.940  14.350  0.00  0.00    +0.000 A 
ATOM     10  C   UNL     1       6.959   5.049  14.715  0.00  0.00    +0.000 A 
BRANCH   5  12
ATOM     11  C   UNL     1       7.149   7.252  17.636  0.00  0.00    +0.000 C 
ATOM     12  O   UNL     1       7.688   6.542  16.531  0.00  0.00    +0.000 OA
ENDBRANCH   5  12
BRANCH   9  13
ATOM     13  O   UNL     1       6.127   3.387  13.099  0.00  0.00    +0.000 OA
ATOM     14  C   UNL     1       6.962   3.960  12.099  0.00  0.00    +0.000 C 
ENDBRANCH   9  13
ENDBRANCH   1   7
BRANCH   2  15
ATOM     15  C   UNL     1       2.662   2.144  18.776  0.00  0.00    +0.000 C 
BRANCH  15  16
ATOM     16  O   UNL     1       2.935   2.718  20.057  0.00  0.00    +0.000 OA
BRANCH  16  17
ATOM     17  C   UNL     1       1.866   3.312  20.654  0.00  0.00    +0.000 C 
ATOM     18  O   UNL     1       1.210   2.818  21.557  0.00  0.00    +0.000 OA
BRANCH  17  19
ATOM     19  C   UNL     1       1.695   4.703  20.113  0.00  0.00    +0.000 C 
BRANCH  19  20
ATOM     20  C   UNL     1       3.024   5.432  20.184  0.00  0.00    +0.000 C 
BRANCH  20  21
ATOM     21  O   UNL     1       3.118   6.329  19.076  0.00  0.00    +0.000 OA
BRANCH  21  22
ATOM     22  C   UNL     1       2.340   7.453  19.179  0.00  0.00    +0.000 A 
ATOM     23  C   UNL     1       2.132   8.149  17.989  0.00  0.00    +0.000 A 
ATOM     24  C   UNL     1       1.349   9.308  17.974  0.00  0.00    +0.000 A 
ATOM     25  C   UNL     1       0.752   9.772  19.150  0.00  0.00    +0.000 A 
ATOM     26  C   UNL     1      -0.103  11.002  19.159  0.00  0.00    +0.000 C 
ATOM     27  C   UNL     1       0.949   9.060  20.338  0.00  0.00    +0.000 A 
ATOM     28  C   UNL     1       1.738   7.907  20.353  0.00  0.00    +0.000 A 
ENDBRANCH  21  22
ENDBRANCH  20  21
ENDBRANCH  19  20
ENDBRANCH  17  19
ENDBRANCH  16  17
ENDBRANCH  15  16
ENDBRANCH   2  15
TORSDOF 10
ENDMDL
MODEL 4
REMARK VINA RESULT:      -7.0      1.236      2.618
REMARK  Name = 
REMARK  13 active torsions:
REMARK  status: ('A' for Active; 'I' for Inactive)
REMARK    1  A    between atoms: C_1  and  O_2
REMARK    2  A    between atoms: O_2  and  C_3
REMARK    3  A    between atoms: C_5  and  N_6
REMARK    4  A    between atoms: C_7  and  C_9
REMARK    5  A    between atoms: C_9  and  O_10
REMARK    6  A    between atoms: O_10  and  C_11
REMARK    7  A    between atoms: C_11  and  C_13
REMARK    8  A    between atoms: C_13  and  C_14
REMARK    9  A    between atoms: C_14  and  O_15
REMARK   10  A    between atoms: O_15  and  C_16
REMARK   11  A    between atoms: C_19  and  C_20
REMARK   12  A    between atoms: C_24  and  O_25
REMARK   13  A    between atoms: O_25  and  C_26
REMARK                            x       y       z     vdW  Elec       q    Type
REMARK                         _______ _______ _______ _____ _____    ______ ____
ROOT
ATOM      1  N   UNL     1       3.569   3.957  18.034  0.00  0.00    +0.000 N 
ATOM      2  C   UNL     1       3.538   2.800  18.795  0.00  0.00    +0.000 C 
ATOM      3  O   UNL     1       4.513   2.202  19.240  0.00  0.00    +0.000 OA
ATOM      4  H   UNL     1       2.676   4.389  17.834  0.00  0.00    +0.000 HD
ENDROOT
BRANCH   1   7
ATOM      5  C   UNL     1       6.739   5.917  17.886  0.00  0.00    +0.000 A 
ATOM      6  C   UNL     1       5.615   5.274  18.408  0.00  0.00    +0.000 A 
ATOM      7  C   UNL     1       4.698   4.652  17.567  0.00  0.00    +0.000 A 
ATOM      8  C   UNL     1       4.916   4.682  16.184  0.00  0.00    +0.000 A 
ATOM      9  C   UNL     1       6.031   5.338  15.648  0.00  0.00    +0.000 A 
ATOM     10  C   UNL     1       6.940   5.962  16.506  0.00  0.00    +0.000 A 
BRANCH   5  12
ATOM     11  C   UNL     1       8.071   5.556  19.827  0.00  0.00    +0.000 C 
ATOM     12  O   UNL     1       7.576   6.443  18.835  0.00  0.00    +0.000 OA
ENDBRANCH   5  12
BRANCH   9  13
ATOM     13  O   UNL     1       6.119   5.294  14.282  0.00  0.00    +0.000 OA
ATOM     14  C   UNL     1       6.553   4.067  13.707  0.00  0.00    +0.000 C 
ENDBRANCH   9  13
ENDBRANCH   1   7
BRANCH   2  15
ATOM     15  C   UNL     1       2.123   2.268  19.062  0.00  0.00    +0.000 C 
BRANCH  15  16
ATOM     16  O   UNL     1       1.324   3.069  19.936  0.00  0.00    +0.000 OA
BRANCH  16  17
ATOM     17  C   UNL     1       1.768   3.125  21.221  0.00  0.00    +0.000 C 
ATOM     18  O   UNL     1       1.811   2.173  21.984  0.00  0.00    +0.000 OA
BRANCH  17  19
ATOM     19  C   UNL     1       2.297   4.499  21.513  0.00  0.00    +0.000 C 
BRANCH  19  20
ATOM     20  C   UNL     1       1.555   5.511  20.660  0.00  0.00    +0.000 C 
BRANCH  20  21
ATOM     21  O   UNL     1       2.502   6.236  19.874  0.00  0.00    +0.000 OA
BRANCH  21  22
ATOM     22  C   UNL     1       2.099   7.492  19.501  0.00  0.00    +0.000 A 
ATOM     23  C   UNL     1       1.470   8.241  20.494  0.00  0.00    +0.000 A 
ATOM     24  C   UNL     1       1.024   9.539  20.227  0.00  0.00    +0.000 A 
ATOM     25  C   UNL     1       1.218  10.106  18.963  0.00  0.00    +0.000 A 
ATOM     26  C   UNL     1       0.761  11.500  18.655  0.00  0.00    +0.000 C 
ATOM     27  C   UNL     1       1.864   9.357  17.975  0.00  0.00    +0.000 A 
ATOM     28  C   UNL     1       2.303   8.058  18.242  0.00  0.00    +0.000 A 
ENDBRANCH  21  22
ENDBRANCH  20  21
ENDBRANCH  19  20
ENDBRANCH  17  19
ENDBRANCH  16  17
ENDBRANCH  15  16
ENDBRANCH   2  15
TORSDOF 10
ENDMDL
MODEL 5
REMARK VINA RESULT:      -6.9      1.137      2.932
REMARK  Name = 
REMARK  13 active torsions:
REMARK  status: ('A' for Active; 'I' for Inactive)
REMARK    1  A    between atoms: C_1  and  O_2
REMARK    2  A    between atoms: O_2  and  C_3
REMARK    3  A    between atoms: C_5  and  N_6
REMARK    4  A    between atoms: C_7  and  C_9
REMARK    5  A    between atoms: C_9  and  O_10
REMARK    6  A    between atoms: O_10  and  C_11
REMARK    7  A    between atoms: C_11  and  C_13
REMARK    8  A    between atoms: C_13  and  C_14
REMARK    9  A    between atoms: C_14  and  O_15
REMARK   10  A    between atoms: O_15  and  C_16
REMARK   11  A    between atoms: C_19  and  C_20
REMARK   12  A    between atoms: C_24  and  O_25
REMARK   13  A    between atoms: O_25  and  C_26
REMARK                            x       y       z     vdW  Elec       q    Type
REMARK                         _______ _______ _______ _____ _____    ______ ____
ROOT
ATOM      1  N   UNL     1       4.424   3.274  17.480  0.00  0.00    +0.000 N 
ATOM      2  C   UNL     1       4.545   3.233  18.859  0.00  0.00    +0.000 C 
ATOM      3  O   UNL     1       5.399   3.808  19.527  0.00  0.00    +0.000 OA
ATOM      4  H   UNL     1       3.603   2.834  17.085  0.00  0.00    +0.000 HD
ENDROOT
BRANCH   1   7
ATOM      5  C   UNL     1       6.935   5.569  15.947  0.00  0.00    +0.000 A 
ATOM      6  C   UNL     1       6.090   4.991  16.897  0.00  0.00    +0.000 A 
ATOM      7  C   UNL     1       5.267   3.922  16.559  0.00  0.00    +0.000 A 
ATOM      8  C   UNL     1       5.294   3.433  15.247  0.00  0.00    +0.000 A 
ATOM      9  C   UNL     1       6.125   4.015  14.282  0.00  0.00    +0.000 A 
ATOM     10  C   UNL     1       6.941   5.091  14.637  0.00  0.00    +0.000 A 
BRANCH   5  12
ATOM     11  C   UNL     1       7.500   6.981  17.780  0.00  0.00    +0.000 C 
ATOM     12  O   UNL     1       7.720   6.580  16.436  0.00  0.00    +0.000 OA
ENDBRANCH   5  12
BRANCH   9  13
ATOM     13  O   UNL     1       6.048   3.442  13.041  0.00  0.00    +0.000 OA
ATOM     14  C   UNL     1       6.986   3.889  12.068  0.00  0.00    +0.000 C 
ENDBRANCH   9  13
ENDBRANCH   1   7
BRANCH   2  15
ATOM     15  C   UNL     1       3.486   2.363  19.551  0.00  0.00    +0.000 C 
BRANCH  15  16
ATOM     16  O   UNL     1       2.215   2.314  18.898  0.00  0.00    +0.000 OA
BRANCH  16  17
ATOM     17  C   UNL     1       1.584   3.515  18.789  0.00  0.00    +0.000 C 
ATOM     18  O   UNL     1       1.389   4.105  17.738  0.00  0.00    +0.000 OA
BRANCH  17  19
ATOM     19  C   UNL     1       1.070   3.939  20.134  0.00  0.00    +0.000 C 
BRANCH  19  20
ATOM     20  C   UNL     1       1.953   5.046  20.679  0.00  0.00    +0.000 C 
BRANCH  20  21
ATOM     21  O   UNL     1       2.525   5.761  19.583  0.00  0.00    +0.000 OA
BRANCH  21  22
ATOM     22  C   UNL     1       2.113   7.063  19.467  0.00  0.00    +0.000 A 
ATOM     23  C   UNL     1       2.303   7.643  18.213  0.00  0.00    +0.000 A 
ATOM     24  C   UNL     1       1.914   8.966  17.978  0.00  0.00    +0.000 A 
ATOM     25  C   UNL     1       1.314   9.716  18.994  0.00  0.00    +0.000 A 
ATOM     26  C   UNL     1       0.876  11.130  18.765  0.00  0.00    +0.000 C 
ATOM     27  C   UNL     1       1.111   9.124  20.245  0.00  0.00    +0.000 A 
ATOM     28  C   UNL     1       1.507   7.806  20.480  0.00  0.00    +0.000 A 
ENDBRANCH  21  22
ENDBRANCH  20  21
ENDBRANCH  19  20
ENDBRANCH  17  19
ENDBRANCH  16  17
ENDBRANCH  15  16
ENDBRANCH   2  15
TORSDOF 10
ENDMDL
MODEL 6
REMARK VINA RESULT:      -6.9      1.447      2.798
REMARK  Name = 
REMARK  13 active torsions:
REMARK  status: ('A' for Active; 'I' for Inactive)
REMARK    1  A    between atoms: C_1  and  O_2
REMARK    2  A    between atoms: O_2  and  C_3
REMARK    3  A    between atoms: C_5  and  N_6
REMARK    4  A    between atoms: C_7  and  C_9
REMARK    5  A    between atoms: C_9  and  O_10
REMARK    6  A    between atoms: O_10  and  C_11
REMARK    7  A    between atoms: C_11  and  C_13
REMARK    8  A    between atoms: C_13  and  C_14
REMARK    9  A    between atoms: C_14  and  O_15
REMARK   10  A    between atoms: O_15  and  C_16
REMARK   11  A    between atoms: C_19  and  C_20
REMARK   12  A    between atoms: C_24  and  O_25
REMARK   13  A    between atoms: O_25  and  C_26
REMARK                            x       y       z     vdW  Elec       q    Type
REMARK                         _______ _______ _______ _____ _____    ______ ____
ROOT
ATOM      1  N   UNL     1       3.482   3.846  17.490  0.00  0.00    +0.000 N 
ATOM      2  C   UNL     1       3.016   2.679  18.071  0.00  0.00    +0.000 C 
ATOM      3  O   UNL     1       3.694   1.703  18.377  0.00  0.00    +0.000 OA
ATOM      4  H   UNL     1       2.815   4.601  17.396  0.00  0.00    +0.000 HD
ENDROOT
BRANCH   1   7
ATOM      5  C   UNL     1       7.131   4.621  17.506  0.00  0.00    +0.000 A 
ATOM      6  C   UNL     1       5.839   4.369  17.972  0.00  0.00    +0.000 A 
ATOM      7  C   UNL     1       4.794   4.142  17.082  0.00  0.00    +0.000 A 
ATOM      8  C   UNL     1       5.057   4.172  15.706  0.00  0.00    +0.000 A 
ATOM      9  C   UNL     1       6.345   4.439  15.227  0.00  0.00    +0.000 A 
ATOM     10  C   UNL     1       7.381   4.670  16.134  0.00  0.00    +0.000 A 
BRANCH   5  12
ATOM     11  C   UNL     1       7.728   5.642  19.572  0.00  0.00    +0.000 C 
ATOM     12  O   UNL     1       8.064   4.779  18.497  0.00  0.00    +0.000 OA
ENDBRANCH   5  12
BRANCH   9  13
ATOM     13  O   UNL     1       6.458   4.442  13.862  0.00  0.00    +0.000 OA
ATOM     14  C   UNL     1       5.635   3.526  13.148  0.00  0.00    +0.000 C 
ENDBRANCH   9  13
ENDBRANCH   1   7
BRANCH   2  15
ATOM     15  C   UNL     1       1.500   2.669  18.318  0.00  0.00    +0.000 C 
BRANCH  15  16
ATOM     16  O   UNL     1       1.013   3.710  19.168  0.00  0.00    +0.000 OA
BRANCH  16  17
ATOM     17  C   UNL     1       1.359   3.583  20.478  0.00  0.00    +0.000 C 
ATOM     18  O   UNL     1       1.000   2.672  21.207  0.00  0.00    +0.000 OA
BRANCH  17  19
ATOM     19  C   UNL     1       2.335   4.662  20.849  0.00  0.00    +0.000 C 
BRANCH  19  20
ATOM     20  C   UNL     1       2.063   5.892  20.003  0.00  0.00    +0.000 C 
BRANCH  20  21
ATOM     21  O   UNL     1       1.917   7.022  20.864  0.00  0.00    +0.000 OA
BRANCH  21  22
ATOM     22  C   UNL     1       1.456   8.158  20.250  0.00  0.00    +0.000 A 
ATOM     23  C   UNL     1       0.654   8.983  21.038  0.00  0.00    +0.000 A 
ATOM     24  C   UNL     1       0.134  10.172  20.517  0.00  0.00    +0.000 A 
ATOM     25  C   UNL     1       0.426  10.555  19.204  0.00  0.00    +0.000 A 
ATOM     26  C   UNL     1      -0.107  11.831  18.627  0.00  0.00    +0.000 C 
ATOM     27  C   UNL     1       1.245   9.733  18.424  0.00  0.00    +0.000 A 
ATOM     28  C   UNL     1       1.757   8.542  18.943  0.00  0.00    +0.000 A 
ENDBRANCH  21  22
ENDBRANCH  20  21
ENDBRANCH  19  20
ENDBRANCH  17  19
ENDBRANCH  16  17
ENDBRANCH  15  16
ENDBRANCH   2  15
TORSDOF 10
ENDMDL
MODEL 7
REMARK VINA RESULT:      -6.7      2.123      6.248
REMARK  Name = 
REMARK  13 active torsions:
REMARK  status: ('A' for Active; 'I' for Inactive)
REMARK    1  A    between atoms: C_1  and  O_2
REMARK    2  A    between atoms: O_2  and  C_3
REMARK    3  A    between atoms: C_5  and  N_6
REMARK    4  A    between atoms: C_7  and  C_9
REMARK    5  A    between atoms: C_9  and  O_10
REMARK    6  A    between atoms: O_10  and  C_11
REMARK    7  A    between atoms: C_11  and  C_13
REMARK    8  A    between atoms: C_13  and  C_14
REMARK    9  A    between atoms: C_14  and  O_15
REMARK   10  A    between atoms: O_15  and  C_16
REMARK   11  A    between atoms: C_19  and  C_20
REMARK   12  A    between atoms: C_24  and  O_25
REMARK   13  A    between atoms: O_25  and  C_26
REMARK                            x       y       z     vdW  Elec       q    Type
REMARK                         _______ _______ _______ _____ _____    ______ ____
ROOT
ATOM      1  N   UNL     1       2.391   5.884  20.552  0.00  0.00    +0.000 N 
ATOM      2  C   UNL     1       1.703   4.683  20.599  0.00  0.00    +0.000 C 
ATOM      3  O   UNL     1       0.496   4.535  20.436  0.00  0.00    +0.000 OA
ATOM      4  H   UNL     1       3.400   5.828  20.599  0.00  0.00    +0.000 HD
ENDROOT
BRANCH   1   7
ATOM      5  C   UNL     1       0.646   9.134  21.109  0.00  0.00    +0.000 A 
ATOM      6  C   UNL     1       1.112   7.837  21.334  0.00  0.00    +0.000 A 
ATOM      7  C   UNL     1       1.863   7.174  20.369  0.00  0.00    +0.000 A 
ATOM      8  C   UNL     1       2.144   7.826  19.162  0.00  0.00    +0.000 A 
ATOM      9  C   UNL     1       1.669   9.121  18.918  0.00  0.00    +0.000 A 
ATOM     10  C   UNL     1       0.912   9.770  19.896  0.00  0.00    +0.000 A 
BRANCH   5  12
ATOM     11  C   UNL     1      -0.675  10.926  21.953  0.00  0.00    +0.000 C 
ATOM     12  O   UNL     1      -0.038   9.675  22.165  0.00  0.00    +0.000 OA
ENDBRANCH   5  12
BRANCH   9  13
ATOM     13  O   UNL     1       2.014   9.636  17.698  0.00  0.00    +0.000 OA
ATOM     14  C   UNL     1       2.191  11.047  17.624  0.00  0.00    +0.000 C 
ENDBRANCH   9  13
ENDBRANCH   1   7
BRANCH   2  15
ATOM     15  C   UNL     1       2.593   3.467  20.893  0.00  0.00    +0.000 C 
BRANCH  15  16
ATOM     16  O   UNL     1       2.328   2.309  20.098  0.00  0.00    +0.000 OA
BRANCH  16  17
ATOM     17  C   UNL     1       3.256   2.056  19.135  0.00  0.00    +0.000 C 
ATOM     18  O   UNL     1       4.355   1.565  19.340  0.00  0.00    +0.000 OA
BRANCH  17  19
ATOM     19  C   UNL     1       2.678   2.365  17.784  0.00  0.00    +0.000 C 
BRANCH  19  20
ATOM     20  C   UNL     1       3.127   3.750  17.354  0.00  0.00    +0.000 C 
BRANCH  20  21
ATOM     21  O   UNL     1       4.454   3.663  16.833  0.00  0.00    +0.000 OA
BRANCH  21  22
ATOM     22  C   UNL     1       5.226   4.777  17.036  0.00  0.00    +0.000 A 
ATOM     23  C   UNL     1       6.531   4.532  17.464  0.00  0.00    +0.000 A 
ATOM     24  C   UNL     1       7.410   5.595  17.697  0.00  0.00    +0.000 A 
ATOM     25  C   UNL     1       6.996   6.914  17.488  0.00  0.00    +0.000 A 
ATOM     26  C   UNL     1       7.923   8.068  17.717  0.00  0.00    +0.000 C 
ATOM     27  C   UNL     1       5.692   7.152  17.042  0.00  0.00    +0.000 A 
ATOM     28  C   UNL     1       4.812   6.091  16.817  0.00  0.00    +0.000 A 
ENDBRANCH  21  22
ENDBRANCH  20  21
ENDBRANCH  19  20
ENDBRANCH  17  19
ENDBRANCH  16  17
ENDBRANCH  15  16
ENDBRANCH   2  15
TORSDOF 10
ENDMDL
MODEL 8
REMARK VINA RESULT:      -6.6      1.282      2.864
REMARK  Name = 
REMARK  13 active torsions:
REMARK  status: ('A' for Active; 'I' for Inactive)
REMARK    1  A    between atoms: C_1  and  O_2
REMARK    2  A    between atoms: O_2  and  C_3
REMARK    3  A    between atoms: C_5  and  N_6
REMARK    4  A    between atoms: C_7  and  C_9
REMARK    5  A    between atoms: C_9  and  O_10
REMARK    6  A    between atoms: O_10  and  C_11
REMARK    7  A    between atoms: C_11  and  C_13
REMARK    8  A    between atoms: C_13  and  C_14
REMARK    9  A    between atoms: C_14  and  O_15
REMARK   10  A    between atoms: O_15  and  C_16
REMARK   11  A    between atoms: C_19  and  C_20
REMARK   12  A    between atoms: C_24  and  O_25
REMARK   13  A    between atoms: O_25  and  C_26
REMARK                            x       y       z     vdW  Elec       q    Type
REMARK                         _______ _______ _______ _____ _____    ______ ____
ROOT
ATOM      1  N   UNL     1       5.168   3.818  19.452  0.00  0.00    +0.000 N 
ATOM      2  C   UNL     1       4.366   2.703  19.272  0.00  0.00    +0.000 C 
ATOM      3  O   UNL     1       4.074   2.189  18.196  0.00  0.00    +0.000 OA
ATOM      4  H   UNL     1       5.403   4.055  20.407  0.00  0.00    +0.000 HD
ENDROOT
BRANCH   1   7
ATOM      5  C   UNL     1       7.287   6.349  17.715  0.00  0.00    +0.000 A 
ATOM      6  C   UNL     1       6.702   5.608  18.744  0.00  0.00    +0.000 A 
ATOM      7  C   UNL     1       5.763   4.621  18.464  0.00  0.00    +0.000 A 
ATOM      8  C   UNL     1       5.408   4.382  17.130  0.00  0.00    +0.000 A 
ATOM      9  C   UNL     1       5.975   5.129  16.091  0.00  0.00    +0.000 A 
ATOM     10  C   UNL     1       6.913   6.120  16.391  0.00  0.00    +0.000 A 
BRANCH   5  12
ATOM     11  C   UNL     1       7.973   8.623  17.878  0.00  0.00    +0.000 C 
ATOM     12  O   UNL     1       8.227   7.251  18.137  0.00  0.00    +0.000 OA
ENDBRANCH   5  12
BRANCH   9  13
ATOM     13  O   UNL     1       5.535   4.793  14.839  0.00  0.00    +0.000 OA
ATOM     14  C   UNL     1       6.482   4.184  13.968  0.00  0.00    +0.000 C 
ENDBRANCH   9  13
ENDBRANCH   1   7
BRANCH   2  15
ATOM     15  C   UNL     1       3.820   2.111  20.579  0.00  0.00    +0.000 C 
BRANCH  15  16
ATOM     16  O   UNL     1       2.820   2.895  21.234  0.00  0.00    +0.000 OA
BRANCH  16  17
ATOM     17  C   UNL     1       1.668   3.053  20.526  0.00  0.00    +0.000 C 
ATOM     18  O   UNL     1       0.980   2.138  20.105  0.00  0.00    +0.000 OA
BRANCH  17  19
ATOM     19  C   UNL     1       1.321   4.512  20.448  0.00  0.00    +0.000 C 
BRANCH  19  20
ATOM     20  C   UNL     1       1.931   5.102  19.189  0.00  0.00    +0.000 C 
BRANCH  20  21
ATOM     21  O   UNL     1       2.776   6.194  19.555  0.00  0.00    +0.000 OA
BRANCH  21  22
ATOM     22  C   UNL     1       2.194   7.431  19.456  0.00  0.00    +0.000 A 
ATOM     23  C   UNL     1       2.061   7.931  18.161  0.00  0.00    +0.000 A 
ATOM     24  C   UNL     1       1.475   9.181  17.941  0.00  0.00    +0.000 A 
ATOM     25  C   UNL     1       1.000   9.938  19.017  0.00  0.00    +0.000 A 
ATOM     26  C   UNL     1       0.356  11.274  18.808  0.00  0.00    +0.000 C 
ATOM     27  C   UNL     1       1.121   9.425  20.313  0.00  0.00    +0.000 A 
ATOM     28  C   UNL     1       1.713   8.179  20.531  0.00  0.00    +0.000 A 
ENDBRANCH  21  22
ENDBRANCH  20  21
ENDBRANCH  19  20
ENDBRANCH  17  19
ENDBRANCH  16  17
ENDBRANCH  15  16
ENDBRANCH   2  15
TORSDOF 10
ENDMDL
MODEL 9
REMARK VINA RESULT:      -6.6      1.395      2.860
REMARK  Name = 
REMARK  13 active torsions:
REMARK  status: ('A' for Active; 'I' for Inactive)
REMARK    1  A    between atoms: C_1  and  O_2
REMARK    2  A    between atoms: O_2  and  C_3
REMARK    3  A    between atoms: C_5  and  N_6
REMARK    4  A    between atoms: C_7  and  C_9
REMARK    5  A    between atoms: C_9  and  O_10
REMARK    6  A    between atoms: O_10  and  C_11
REMARK    7  A    between atoms: C_11  and  C_13
REMARK    8  A    between atoms: C_13  and  C_14
REMARK    9  A    between atoms: C_14  and  O_15
REMARK   10  A    between atoms: O_15  and  C_16
REMARK   11  A    between atoms: C_19  and  C_20
REMARK   12  A    between atoms: C_24  and  O_25
REMARK   13  A    between atoms: O_25  and  C_26
REMARK                            x       y       z     vdW  Elec       q    Type
REMARK                         _______ _______ _______ _____ _____    ______ ____
ROOT
ATOM      1  N   UNL     1       4.376   3.435  17.604  0.00  0.00    +0.000 N 
ATOM      2  C   UNL     1       4.588   3.280  18.964  0.00  0.00    +0.000 C 
ATOM      3  O   UNL     1       5.557   3.692  19.595  0.00  0.00    +0.000 OA
ATOM      4  H   UNL     1       3.478   3.133  17.250  0.00  0.00    +0.000 HD
ENDROOT
BRANCH   1   7
ATOM      5  C   UNL     1       6.919   5.634  15.987  0.00  0.00    +0.000 A 
ATOM      6  C   UNL     1       6.065   5.106  16.957  0.00  0.00    +0.000 A 
ATOM      7  C   UNL     1       5.229   4.034  16.661  0.00  0.00    +0.000 A 
ATOM      8  C   UNL     1       5.254   3.491  15.370  0.00  0.00    +0.000 A 
ATOM      9  C   UNL     1       6.095   4.023  14.384  0.00  0.00    +0.000 A 
ATOM     10  C   UNL     1       6.924   5.103  14.697  0.00  0.00    +0.000 A 
BRANCH   5  12
ATOM     11  C   UNL     1       7.338   7.286  17.650  0.00  0.00    +0.000 C 
ATOM     12  O   UNL     1       7.715   6.655  16.436  0.00  0.00    +0.000 OA
ENDBRANCH   5  12
BRANCH   9  13
ATOM     13  O   UNL     1       6.015   3.400  13.167  0.00  0.00    +0.000 OA
ATOM     14  C   UNL     1       6.868   3.890  12.138  0.00  0.00    +0.000 C 
ENDBRANCH   9  13
ENDBRANCH   1   7
BRANCH   2  15
ATOM     15  C   UNL     1       3.475   2.506  19.683  0.00  0.00    +0.000 C 
BRANCH  15  16
ATOM     16  O   UNL     1       2.194   3.140  19.687  0.00  0.00    +0.000 OA
BRANCH  16  17
ATOM     17  C   UNL     1       1.971   3.964  20.747  0.00  0.00    +0.000 C 
ATOM     18  O   UNL     1       2.321   3.733  21.894  0.00  0.00    +0.000 OA
BRANCH  17  19
ATOM     19  C   UNL     1       1.336   5.239  20.271  0.00  0.00    +0.000 C 
BRANCH  19  20
ATOM     20  C   UNL     1       2.424   6.209  19.847  0.00  0.00    +0.000 C 
BRANCH  20  21
ATOM     21  O   UNL     1       2.264   7.428  20.573  0.00  0.00    +0.000 OA
BRANCH  21  22
ATOM     22  C   UNL     1       1.480   8.367  19.955  0.00  0.00    +0.000 A 
ATOM     23  C   UNL     1       0.505   8.958  20.758  0.00  0.00    +0.000 A 
ATOM     24  C   UNL     1      -0.347   9.935  20.234  0.00  0.00    +0.000 A 
ATOM     25  C   UNL     1      -0.221  10.341  18.902  0.00  0.00    +0.000 A 
ATOM     26  C   UNL     1      -1.113  11.396  18.320  0.00  0.00    +0.000 C 
ATOM     27  C   UNL     1       0.768   9.758  18.105  0.00  0.00    +0.000 A 
ATOM     28  C   UNL     1       1.614   8.777  18.628  0.00  0.00    +0.000 A 
ENDBRANCH  21  22
ENDBRANCH  20  21
ENDBRANCH  19  20
ENDBRANCH  17  19
ENDBRANCH  16  17
ENDBRANCH  15  16
ENDBRANCH   2  15
TORSDOF 10
ENDMDL
