MODEL 1
REMARK VINA RESULT:      -7.6      0.000      0.000
REMARK  Name = 
REMARK  10 active torsions:
REMARK  status: ('A' for Active; 'I' for Inactive)
REMARK    1  A    between atoms: C_1  and  C_2
REMARK    2  A    between atoms: C_2  and  C_3
REMARK    3  A    between atoms: C_2  and  C_4
REMARK    4  A    between atoms: C_6  and  C_7
REMARK    5  A    between atoms: C_14  and  O_15
REMARK    6  A    between atoms: O_15  and  C_16
REMARK    7  A    between atoms: C_16  and  C_17
REMARK    8  A    between atoms: C_17  and  N_18
REMARK    9  A    between atoms: C_28  and  O_29
REMARK   10  A    between atoms: C_31  and  O_32
REMARK                            x       y       z     vdW  Elec       q    Type
REMARK                         _______ _______ _______ _____ _____    ______ ____
ROOT
ATOM      1  C   UNL     1       2.575   6.038  19.835  0.00  0.00    +0.000 C 
ATOM      2  O   UNL     1       2.190   5.427  20.835  0.00  0.00    +0.000 OA
ATOM      3  N   UNL     1       2.349   7.410  19.662  0.00  0.00    +0.000 N 
ATOM      4  C   UNL     1       2.914   8.294  18.629  0.00  0.00    +0.000 C 
ATOM      5  C   UNL     1       1.771   8.860  17.781  0.00  0.00    +0.000 C 
ATOM      6  C   UNL     1       0.748   9.525  18.660  0.00  0.00    +0.000 A 
ATOM      7  N   UNL     1      -0.049  10.457  18.093  0.00  0.00    +0.000 NA
ATOM      8  C   UNL     1      -0.954  11.027  18.889  0.00  0.00    +0.000 A 
ATOM      9  N   UNL     1      -1.154  10.735  20.182  0.00  0.00    +0.000 NA
ATOM     10  C   UNL     1      -0.344   9.803  20.706  0.00  0.00    +0.000 A 
ATOM     11  C   UNL     1       0.629   9.146  19.990  0.00  0.00    +0.000 A 
ATOM     12  C   UNL     1       1.496   8.097  20.630  0.00  0.00    +0.000 C 
ENDROOT
BRANCH   1  15
ATOM     13  C   UNL     1       5.405   4.609  17.715  0.00  0.00    +0.000 A 
ATOM     14  C   UNL     1       4.666   5.412  18.589  0.00  0.00    +0.000 A 
ATOM     15  C   UNL     1       3.298   5.238  18.807  0.00  0.00    +0.000 A 
ATOM     16  C   UNL     1       2.614   4.342  17.972  0.00  0.00    +0.000 A 
ATOM     17  C   UNL     1       3.316   3.518  17.097  0.00  0.00    +0.000 A 
ATOM     18  C   UNL     1       4.703   3.644  16.986  0.00  0.00    +0.000 A 
BRANCH  13  20
ATOM     19  C   UNL     1       6.990   5.858  16.290  0.00  0.00    +0.000 C 
ATOM     20  C   UNL     1       6.880   4.880  17.462  0.00  0.00    +0.000 C 
ATOM     21  C   UNL     1       7.676   5.430  18.656  0.00  0.00    +0.000 C 
ENDBRANCH  13  20
BRANCH  16  22
ATOM     22  O   UNL     1       1.248   4.258  17.919  0.00  0.00    +0.000 OA
ATOM     23  H   UNL     1       0.984   4.382  16.979  0.00  0.00    +0.000 HD
ENDBRANCH  16  22
BRANCH  18  24
ATOM     24  O   UNL     1       5.393   2.864  16.107  0.00  0.00    +0.000 OA
ATOM     25  H   UNL     1       5.221   1.926  16.316  0.00  0.00    +0.000 HD
ENDBRANCH  18  24
ENDBRANCH   1  15
BRANCH   8  26
ATOM     26  O   UNL     1      -1.711  12.029  18.310  0.00  0.00    +0.000 OA
BRANCH  26  27
ATOM     27  C   UNL     1      -2.888  12.299  19.085  0.00  0.00    +0.000 C 
BRANCH  27  28
ATOM     28  C   UNL     1      -4.062  11.559  18.435  0.00  0.00    +0.000 C 
BRANCH  28  29
ATOM     29  N   UNL     1      -5.328  12.313  18.359  0.00  0.00    +0.000 NA
ATOM     30  C   UNL     1      -5.756  12.928  19.634  0.00  0.00    +0.000 C 
ATOM     31  C   UNL     1      -6.255  11.921  20.684  0.00  0.00    +0.000 C 
ATOM     32  O   UNL     1      -7.326  11.122  20.167  0.00  0.00    +0.000 OA
ATOM     33  C   UNL     1      -6.917  10.440  18.974  0.00  0.00    +0.000 C 
ATOM     34  C   UNL     1      -6.428  11.429  17.900  0.00  0.00    +0.000 C 
ENDBRANCH  28  29
ENDBRANCH  27  28
ENDBRANCH  26  27
ENDBRANCH   8  26
TORSDOF 8
ENDMDL
MODEL 2
REMARK VINA RESULT:      -7.5      3.707      9.895
REMARK  Name = 
REMARK  10 active torsions:
REMARK  status: ('A' for Active; 'I' for Inactive)
REMARK    1  A    between atoms: C_1  and  C_2
REMARK    2  A    between atoms: C_2  and  C_3
REMARK    3  A    between atoms: C_2  and  C_4
REMARK    4  A    between atoms: C_6  and  C_7
REMARK    5  A    between atoms: C_14  and  O_15
REMARK    6  A    between atoms: O_15  and  C_16
REMARK    7  A    between atoms: C_16  and  C_17
REMARK    8  A    between atoms: C_17  and  N_18
REMARK    9  A    between atoms: C_28  and  O_29
REMARK   10  A    between atoms: C_31  and  O_32
REMARK                            x       y       z     vdW  Elec       q    Type
REMARK                         _______ _______ _______ _____ _____    ______ ____
ROOT
ATOM      1  C   UNL     1       0.859  12.568  20.664  0.00  0.00    +0.000 C 
ATOM      2  O   UNL     1       0.676  12.700  21.877  0.00  0.00    +0.000 OA
ATOM      3  N   UNL     1       0.680  11.343  20.009  0.00  0.00    +0.000 N 
ATOM      4  C   UNL     1       0.672  11.090  18.558  0.00  0.00    +0.000 C 
ATOM      5  C   UNL     1       1.824  10.142  18.213  0.00  0.00    +0.000 C 
ATOM      6  C   UNL     1       1.744   8.895  19.050  0.00  0.00    +0.000 A 
ATOM      7  N   UNL     1       2.357   7.787  18.579  0.00  0.00    +0.000 NA
ATOM      8  C   UNL     1       2.280   6.697  19.342  0.00  0.00    +0.000 A 
ATOM      9  N   UNL     1       1.676   6.618  20.537  0.00  0.00    +0.000 NA
ATOM     10  C   UNL     1       1.081   7.740  20.969  0.00  0.00    +0.000 A 
ATOM     11  C   UNL     1       1.088   8.926  20.274  0.00  0.00    +0.000 A 
ATOM     12  C   UNL     1       0.418  10.156  20.820  0.00  0.00    +0.000 C 
ENDROOT
BRANCH   1  15
ATOM     13  C   UNL     1       3.089  15.176  19.002  0.00  0.00    +0.000 A 
ATOM     14  C   UNL     1       2.639  14.106  19.779  0.00  0.00    +0.000 A 
ATOM     15  C   UNL     1       1.287  13.787  19.923  0.00  0.00    +0.000 A 
ATOM     16  C   UNL     1       0.347  14.695  19.415  0.00  0.00    +0.000 A 
ATOM     17  C   UNL     1       0.756  15.767  18.626  0.00  0.00    +0.000 A 
ATOM     18  C   UNL     1       2.118  15.991  18.412  0.00  0.00    +0.000 A 
BRANCH  13  20
ATOM     19  C   UNL     1       5.194  15.226  20.295  0.00  0.00    +0.000 C 
ATOM     20  C   UNL     1       4.569  15.523  18.930  0.00  0.00    +0.000 C 
ATOM     21  C   UNL     1       5.374  14.803  17.837  0.00  0.00    +0.000 C 
ENDBRANCH  13  20
BRANCH  16  22
ATOM     22  O   UNL     1      -0.992  14.626  19.696  0.00  0.00    +0.000 OA
ATOM     23  H   UNL     1      -1.176  15.284  20.405  0.00  0.00    +0.000 HD
ENDBRANCH  16  22
BRANCH  18  24
ATOM     24  O   UNL     1       2.528  17.057  17.669  0.00  0.00    +0.000 OA
ATOM     25  H   UNL     1       1.858  17.239  16.983  0.00  0.00    +0.000 HD
ENDBRANCH  18  24
ENDBRANCH   1  15
BRANCH   8  26
ATOM     26  O   UNL     1       2.850   5.555  18.810  0.00  0.00    +0.000 OA
BRANCH  26  27
ATOM     27  C   UNL     1       3.973   5.127  19.594  0.00  0.00    +0.000 C 
BRANCH  27  28
ATOM     28  C   UNL     1       5.184   5.012  18.661  0.00  0.00    +0.000 C 
BRANCH  28  29
ATOM     29  N   UNL     1       4.989   5.531  17.294  0.00  0.00    +0.000 NA
ATOM     30  C   UNL     1       5.485   4.641  16.221  0.00  0.00    +0.000 C 
ATOM     31  C   UNL     1       7.017   4.563  16.124  0.00  0.00    +0.000 C 
ATOM     32  O   UNL     1       7.593   5.865  15.957  0.00  0.00    +0.000 OA
ATOM     33  C   UNL     1       7.203   6.731  17.030  0.00  0.00    +0.000 C 
ATOM     34  C   UNL     1       5.671   6.840  17.137  0.00  0.00    +0.000 C 
ENDBRANCH  28  29
ENDBRANCH  27  28
ENDBRANCH  26  27
ENDBRANCH   8  26
TORSDOF 8
ENDMDL
MODEL 3
REMARK VINA RESULT:      -7.5      3.324      9.261
REMARK  Name = 
REMARK  10 active torsions:
REMARK  status: ('A' for Active; 'I' for Inactive)
REMARK    1  A    between atoms: C_1  and  C_2
REMARK    2  A    between atoms: C_2  and  C_3
REMARK    3  A    between atoms: C_2  and  C_4
REMARK    4  A    between atoms: C_6  and  C_7
REMARK    5  A    between atoms: C_14  and  O_15
REMARK    6  A    between atoms: O_15  and  C_16
REMARK    7  A    between atoms: C_16  and  C_17
REMARK    8  A    between atoms: C_17  and  N_18
REMARK    9  A    between atoms: C_28  and  O_29
REMARK   10  A    between atoms: C_31  and  O_32
REMARK                            x       y       z     vdW  Elec       q    Type
REMARK                         _______ _______ _______ _____ _____    ______ ____
ROOT
ATOM      1  C   UNL     1       0.778  10.983  20.857  0.00  0.00    +0.000 C 
ATOM      2  O   UNL     1       0.846  10.866  22.083  0.00  0.00    +0.000 OA
ATOM      3  N   UNL     1       0.841   9.881  19.994  0.00  0.00    +0.000 N 
ATOM      4  C   UNL     1       0.579   9.855  18.545  0.00  0.00    +0.000 C 
ATOM      5  C   UNL     1       1.857   9.425  17.818  0.00  0.00    +0.000 C 
ATOM      6  C   UNL     1       2.360   8.120  18.371  0.00  0.00    +0.000 A 
ATOM      7  N   UNL     1       3.160   7.375  17.578  0.00  0.00    +0.000 NA
ATOM      8  C   UNL     1       3.601   6.227  18.092  0.00  0.00    +0.000 A 
ATOM      9  N   UNL     1       3.341   5.771  19.327  0.00  0.00    +0.000 NA
ATOM     10  C   UNL     1       2.545   6.541  20.082  0.00  0.00    +0.000 A 
ATOM     11  C   UNL     1       2.026   7.744  19.665  0.00  0.00    +0.000 A 
ATOM     12  C   UNL     1       1.152   8.572  20.565  0.00  0.00    +0.000 C 
ENDROOT
BRANCH   1  15
ATOM     13  C   UNL     1       1.643  14.393  19.385  0.00  0.00    +0.000 A 
ATOM     14  C   UNL     1       1.742  13.133  19.982  0.00  0.00    +0.000 A 
ATOM     15  C   UNL     1       0.626  12.369  20.333  0.00  0.00    +0.000 A 
ATOM     16  C   UNL     1      -0.634  12.980  20.248  0.00  0.00    +0.000 A 
ATOM     17  C   UNL     1      -0.774  14.229  19.650  0.00  0.00    +0.000 A 
ATOM     18  C   UNL     1       0.359  14.918  19.209  0.00  0.00    +0.000 A 
BRANCH  13  20
ATOM     19  C   UNL     1       3.994  14.773  20.042  0.00  0.00    +0.000 C 
ATOM     20  C   UNL     1       2.887  15.214  19.082  0.00  0.00    +0.000 C 
ATOM     21  C   UNL     1       3.408  15.136  17.638  0.00  0.00    +0.000 C 
ENDBRANCH  13  20
BRANCH  16  22
ATOM     22  O   UNL     1      -1.770  12.433  20.782  0.00  0.00    +0.000 OA
ATOM     23  H   UNL     1      -1.665  11.455  20.755  0.00  0.00    +0.000 HD
ENDBRANCH  16  22
BRANCH  18  24
ATOM     24  O   UNL     1       0.233  16.155  18.652  0.00  0.00    +0.000 OA
ATOM     25  H   UNL     1      -0.447  16.118  17.953  0.00  0.00    +0.000 HD
ENDBRANCH  18  24
ENDBRANCH   1  15
BRANCH   8  26
ATOM     26  O   UNL     1       4.358   5.443  17.241  0.00  0.00    +0.000 OA
BRANCH  26  27
ATOM     27  C   UNL     1       4.180   4.049  17.529  0.00  0.00    +0.000 C 
BRANCH  27  28
ATOM     28  C   UNL     1       2.685   3.729  17.414  0.00  0.00    +0.000 C 
BRANCH  28  29
ATOM     29  N   UNL     1       2.276   2.402  17.911  0.00  0.00    +0.000 NA
ATOM     30  C   UNL     1       0.967   2.379  18.599  0.00  0.00    +0.000 C 
ATOM     31  C   UNL     1       0.969   3.052  19.982  0.00  0.00    +0.000 C 
ATOM     32  O   UNL     1       1.960   2.470  20.839  0.00  0.00    +0.000 OA
ATOM     33  C   UNL     1       3.259   2.555  20.239  0.00  0.00    +0.000 C 
ATOM     34  C   UNL     1       3.287   1.872  18.859  0.00  0.00    +0.000 C 
ENDBRANCH  28  29
ENDBRANCH  27  28
ENDBRANCH  26  27
ENDBRANCH   8  26
TORSDOF 8
ENDMDL
MODEL 4
REMARK VINA RESULT:      -7.5      3.325      9.935
REMARK  Name = 
REMARK  10 active torsions:
REMARK  status: ('A' for Active; 'I' for Inactive)
REMARK    1  A    between atoms: C_1  and  C_2
REMARK    2  A    between atoms: C_2  and  C_3
REMARK    3  A    between atoms: C_2  and  C_4
REMARK    4  A    between atoms: C_6  and  C_7
REMARK    5  A    between atoms: C_14  and  O_15
REMARK    6  A    between atoms: O_15  and  C_16
REMARK    7  A    between atoms: C_16  and  C_17
REMARK    8  A    between atoms: C_17  and  N_18
REMARK    9  A    between atoms: C_28  and  O_29
REMARK   10  A    between atoms: C_31  and  O_32
REMARK                            x       y       z     vdW  Elec       q    Type
REMARK                         _______ _______ _______ _____ _____    ______ ____
ROOT
ATOM      1  C   UNL     1       0.768  10.977  20.940  0.00  0.00    +0.000 C 
ATOM      2  O   UNL     1       0.668  10.921  22.168  0.00  0.00    +0.000 OA
ATOM      3  N   UNL     1       0.773   9.829  20.136  0.00  0.00    +0.000 N 
ATOM      4  C   UNL     1       0.688   9.756  18.668  0.00  0.00    +0.000 C 
ATOM      5  C   UNL     1       1.967   9.109  18.129  0.00  0.00    +0.000 C 
ATOM      6  C   UNL     1       2.200   7.780  18.793  0.00  0.00    +0.000 A 
ATOM      7  N   UNL     1       2.972   6.883  18.139  0.00  0.00    +0.000 NA
ATOM      8  C   UNL     1       3.172   5.716  18.751  0.00  0.00    +0.000 A 
ATOM      9  N   UNL     1       2.699   5.373  19.959  0.00  0.00    +0.000 NA
ATOM     10  C   UNL     1       1.939   6.292  20.575  0.00  0.00    +0.000 A 
ATOM     11  C   UNL     1       1.659   7.530  20.047  0.00  0.00    +0.000 A 
ATOM     12  C   UNL     1       0.814   8.524  20.794  0.00  0.00    +0.000 C 
ENDROOT
BRANCH   1  15
ATOM     13  C   UNL     1       2.301  14.136  19.453  0.00  0.00    +0.000 A 
ATOM     14  C   UNL     1       2.139  12.911  20.107  0.00  0.00    +0.000 A 
ATOM     15  C   UNL     1       0.888  12.337  20.346  0.00  0.00    +0.000 A 
ATOM     16  C   UNL     1      -0.247  13.117  20.081  0.00  0.00    +0.000 A 
ATOM     17  C   UNL     1      -0.127  14.337  19.421  0.00  0.00    +0.000 A 
ATOM     18  C   UNL     1       1.140  14.829  19.098  0.00  0.00    +0.000 A 
BRANCH  13  20
ATOM     19  C   UNL     1       3.922  14.954  17.777  0.00  0.00    +0.000 C 
ATOM     20  C   UNL     1       3.681  14.751  19.275  0.00  0.00    +0.000 C 
ATOM     21  C   UNL     1       3.924  16.078  20.011  0.00  0.00    +0.000 C 
ENDBRANCH  13  20
BRANCH  16  22
ATOM     22  O   UNL     1      -1.507  12.771  20.491  0.00  0.00    +0.000 OA
ATOM     23  H   UNL     1      -2.057  12.661  19.682  0.00  0.00    +0.000 HD
ENDBRANCH  16  22
BRANCH  18  24
ATOM     24  O   UNL     1       1.267  16.038  18.481  0.00  0.00    +0.000 OA
ATOM     25  H   UNL     1       0.640  16.078  17.735  0.00  0.00    +0.000 HD
ENDBRANCH  18  24
ENDBRANCH   1  15
BRANCH   8  26
ATOM     26  O   UNL     1       3.903   4.785  18.036  0.00  0.00    +0.000 OA
BRANCH  26  27
ATOM     27  C   UNL     1       4.927   4.198  18.852  0.00  0.00    +0.000 C 
BRANCH  27  28
ATOM     28  C   UNL     1       5.887   5.314  19.281  0.00  0.00    +0.000 C 
BRANCH  28  29
ATOM     29  N   UNL     1       7.280   5.173  18.814  0.00  0.00    +0.000 NA
ATOM     30  C   UNL     1       8.047   6.437  18.776  0.00  0.00    +0.000 C 
ATOM     31  C   UNL     1       7.620   7.400  17.655  0.00  0.00    +0.000 C 
ATOM     32  O   UNL     1       7.695   6.767  16.372  0.00  0.00    +0.000 OA
ATOM     33  C   UNL     1       6.890   5.581  16.346  0.00  0.00    +0.000 C 
ATOM     34  C   UNL     1       7.310   4.592  17.449  0.00  0.00    +0.000 C 
ENDBRANCH  28  29
ENDBRANCH  27  28
ENDBRANCH  26  27
ENDBRANCH   8  26
TORSDOF 8
ENDMDL
MODEL 5
REMARK VINA RESULT:      -7.5      0.716      1.203
REMARK  Name = 
REMARK  10 active torsions:
REMARK  status: ('A' for Active; 'I' for Inactive)
REMARK    1  A    between atoms: C_1  and  C_2
REMARK    2  A    between atoms: C_2  and  C_3
REMARK    3  A    between atoms: C_2  and  C_4
REMARK    4  A    between atoms: C_6  and  C_7
REMARK    5  A    between atoms: C_14  and  O_15
REMARK    6  A    between atoms: O_15  and  C_16
REMARK    7  A    between atoms: C_16  and  C_17
REMARK    8  A    between atoms: C_17  and  N_18
REMARK    9  A    between atoms: C_28  and  O_29
REMARK   10  A    between atoms: C_31  and  O_32
REMARK                            x       y       z     vdW  Elec       q    Type
REMARK                         _______ _______ _______ _____ _____    ______ ____
ROOT
ATOM      1  C   UNL     1       2.568   6.116  19.798  0.00  0.00    +0.000 C 
ATOM      2  O   UNL     1       2.211   5.481  20.794  0.00  0.00    +0.000 OA
ATOM      3  N   UNL     1       2.314   7.486  19.652  0.00  0.00    +0.000 N 
ATOM      4  C   UNL     1       2.845   8.396  18.624  0.00  0.00    +0.000 C 
ATOM      5  C   UNL     1       1.678   8.956  17.806  0.00  0.00    +0.000 C 
ATOM      6  C   UNL     1       0.659   9.589  18.713  0.00  0.00    +0.000 A 
ATOM      7  N   UNL     1      -0.164  10.515  18.175  0.00  0.00    +0.000 NA
ATOM      8  C   UNL     1      -1.064  11.056  18.996  0.00  0.00    +0.000 A 
ATOM      9  N   UNL     1      -1.237  10.739  20.288  0.00  0.00    +0.000 NA
ATOM     10  C   UNL     1      -0.401   9.813  20.782  0.00  0.00    +0.000 A 
ATOM     11  C   UNL     1       0.570   9.185  20.039  0.00  0.00    +0.000 A 
ATOM     12  C   UNL     1       1.466   8.142  20.645  0.00  0.00    +0.000 C 
ENDROOT
BRANCH   1  15
ATOM     13  C   UNL     1       5.357   4.873  17.514  0.00  0.00    +0.000 A 
ATOM     14  C   UNL     1       4.612   5.638  18.415  0.00  0.00    +0.000 A 
ATOM     15  C   UNL     1       3.286   5.345  18.745  0.00  0.00    +0.000 A 
ATOM     16  C   UNL     1       2.632   4.356  17.996  0.00  0.00    +0.000 A 
ATOM     17  C   UNL     1       3.344   3.566  17.097  0.00  0.00    +0.000 A 
ATOM     18  C   UNL     1       4.700   3.817  16.875  0.00  0.00    +0.000 A 
BRANCH  13  20
ATOM     19  C   UNL     1       6.895   6.791  17.269  0.00  0.00    +0.000 C 
ATOM     20  C   UNL     1       6.776   5.271  17.138  0.00  0.00    +0.000 C 
ATOM     21  C   UNL     1       7.898   4.604  17.950  0.00  0.00    +0.000 C 
ENDBRANCH  13  20
BRANCH  16  22
ATOM     22  O   UNL     1       1.281   4.142  18.053  0.00  0.00    +0.000 OA
ATOM     23  H   UNL     1       1.142   3.169  18.120  0.00  0.00    +0.000 HD
ENDBRANCH  16  22
BRANCH  18  24
ATOM     24  O   UNL     1       5.395   3.070  15.972  0.00  0.00    +0.000 OA
ATOM     25  H   UNL     1       6.069   2.548  16.448  0.00  0.00    +0.000 HD
ENDBRANCH  18  24
ENDBRANCH   1  15
BRANCH   8  26
ATOM     26  O   UNL     1      -1.849  12.053  18.447  0.00  0.00    +0.000 OA
BRANCH  26  27
ATOM     27  C   UNL     1      -3.059  12.228  19.197  0.00  0.00    +0.000 C 
BRANCH  27  28
ATOM     28  C   UNL     1      -4.229  11.762  18.322  0.00  0.00    +0.000 C 
BRANCH  28  29
ATOM     29  N   UNL     1      -5.452  11.368  19.048  0.00  0.00    +0.000 NA
ATOM     30  C   UNL     1      -6.655  11.231  18.198  0.00  0.00    +0.000 C 
ATOM     31  C   UNL     1      -7.220  12.566  17.685  0.00  0.00    +0.000 C 
ATOM     32  O   UNL     1      -7.511  13.456  18.771  0.00  0.00    +0.000 OA
ATOM     33  C   UNL     1      -6.340  13.681  19.567  0.00  0.00    +0.000 C 
ATOM     34  C   UNL     1      -5.765  12.359  20.107  0.00  0.00    +0.000 C 
ENDBRANCH  28  29
ENDBRANCH  27  28
ENDBRANCH  26  27
ENDBRANCH   8  26
TORSDOF 8
ENDMDL
MODEL 6
REMARK VINA RESULT:      -7.4      2.124     10.099
REMARK  Name = 
REMARK  10 active torsions:
REMARK  status: ('A' for Active; 'I' for Inactive)
REMARK    1  A    between atoms: C_1  and  C_2
REMARK    2  A    between atoms: C_2  and  C_3
REMARK    3  A    between atoms: C_2  and  C_4
REMARK    4  A    between atoms: C_6  and  C_7
REMARK    5  A    between atoms: C_14  and  O_15
REMARK    6  A    between atoms: O_15  and  C_16
REMARK    7  A    between atoms: C_16  and  C_17
REMARK    8  A    between atoms: C_17  and  N_18
REMARK    9  A    between atoms: C_28  and  O_29
REMARK   10  A    between atoms: C_31  and  O_32
REMARK                            x       y       z     vdW  Elec       q    Type
REMARK                         _______ _______ _______ _____ _____    ______ ____
ROOT
ATOM      1  C   UNL     1      -1.451  11.668  18.562  0.00  0.00    +0.000 C 
ATOM      2  O   UNL     1      -1.549  11.888  17.352  0.00  0.00    +0.000 OA
ATOM      3  N   UNL     1      -0.311  11.080  19.126  0.00  0.00    +0.000 N 
ATOM      4  C   UNL     1       0.018  10.941  20.555  0.00  0.00    +0.000 C 
ATOM      5  C   UNL     1       0.116   9.453  20.899  0.00  0.00    +0.000 C 
ATOM      6  C   UNL     1       1.089   8.766  19.980  0.00  0.00    +0.000 A 
ATOM      7  N   UNL     1       1.647   7.614  20.411  0.00  0.00    +0.000 NA
ATOM      8  C   UNL     1       2.499   7.019  19.576  0.00  0.00    +0.000 A 
ATOM      9  N   UNL     1       2.821   7.451  18.347  0.00  0.00    +0.000 NA
ATOM     10  C   UNL     1       2.244   8.597  17.957  0.00  0.00    +0.000 A 
ATOM     11  C   UNL     1       1.352   9.304  18.727  0.00  0.00    +0.000 A 
ATOM     12  C   UNL     1       0.724  10.575  18.227  0.00  0.00    +0.000 C 
ENDROOT
BRANCH   1  15
ATOM     13  C   UNL     1      -3.493  13.021  21.484  0.00  0.00    +0.000 A 
ATOM     14  C   UNL     1      -2.440  12.542  20.701  0.00  0.00    +0.000 A 
ATOM     15  C   UNL     1      -2.617  12.059  19.402  0.00  0.00    +0.000 A 
ATOM     16  C   UNL     1      -3.932  11.881  18.948  0.00  0.00    +0.000 A 
ATOM     17  C   UNL     1      -5.007  12.357  19.695  0.00  0.00    +0.000 A 
ATOM     18  C   UNL     1      -4.781  12.936  20.945  0.00  0.00    +0.000 A 
BRANCH  13  20
ATOM     19  C   UNL     1      -3.402  12.257  23.832  0.00  0.00    +0.000 C 
ATOM     20  C   UNL     1      -3.259  13.475  22.917  0.00  0.00    +0.000 C 
ATOM     21  C   UNL     1      -1.910  14.159  23.193  0.00  0.00    +0.000 C 
ENDBRANCH  13  20
BRANCH  16  22
ATOM     22  O   UNL     1      -4.244  11.200  17.802  0.00  0.00    +0.000 OA
ATOM     23  H   UNL     1      -5.104  11.553  17.477  0.00  0.00    +0.000 HD
ENDBRANCH  16  22
BRANCH  18  24
ATOM     24  O   UNL     1      -5.830  13.373  21.697  0.00  0.00    +0.000 OA
ATOM     25  H   UNL     1      -5.805  12.925  22.563  0.00  0.00    +0.000 HD
ENDBRANCH  18  24
ENDBRANCH   1  15
BRANCH   8  26
ATOM     26  O   UNL     1       3.115   5.881  20.063  0.00  0.00    +0.000 OA
BRANCH  26  27
ATOM     27  C   UNL     1       4.154   5.440  19.178  0.00  0.00    +0.000 C 
BRANCH  27  28
ATOM     28  C   UNL     1       4.293   3.921  19.332  0.00  0.00    +0.000 C 
BRANCH  28  29
ATOM     29  N   UNL     1       3.905   3.121  18.153  0.00  0.00    +0.000 NA
ATOM     30  C   UNL     1       2.933   3.782  17.255  0.00  0.00    +0.000 C 
ATOM     31  C   UNL     1       1.511   3.883  17.829  0.00  0.00    +0.000 C 
ATOM     32  O   UNL     1       1.008   2.592  18.197  0.00  0.00    +0.000 OA
ATOM     33  C   UNL     1       1.883   1.959  19.139  0.00  0.00    +0.000 C 
ATOM     34  C   UNL     1       3.312   1.830  18.579  0.00  0.00    +0.000 C 
ENDBRANCH  28  29
ENDBRANCH  27  28
ENDBRANCH  26  27
ENDBRANCH   8  26
TORSDOF 8
ENDMDL
MODEL 7
REMARK VINA RESULT:      -7.4      2.575      3.910
REMARK  Name = 
REMARK  10 active torsions:
REMARK  status: ('A' for Active; 'I' for Inactive)
REMARK    1  A    between atoms: C_1  and  C_2
REMARK    2  A    between atoms: C_2  and  C_3
REMARK    3  A    between atoms: C_2  and  C_4
REMARK    4  A    between atoms: C_6  and  C_7
REMARK    5  A    between atoms: C_14  and  O_15
REMARK    6  A    between atoms: O_15  and  C_16
REMARK    7  A    between atoms: C_16  and  C_17
REMARK    8  A    between atoms: C_17  and  N_18
REMARK    9  A    between atoms: C_28  and  O_29
REMARK   10  A    between atoms: C_31  and  O_32
REMARK                            x       y       z     vdW  Elec       q    Type
REMARK                         _______ _______ _______ _____ _____    ______ ____
ROOT
ATOM      1  C   UNL     1       2.479   6.071  19.807  0.00  0.00    +0.000 C 
ATOM      2  O   UNL     1       2.048   5.421  20.763  0.00  0.00    +0.000 OA
ATOM      3  N   UNL     1       2.310   7.459  19.708  0.00  0.00    +0.000 N 
ATOM      4  C   UNL     1       2.932   8.375  18.737  0.00  0.00    +0.000 C 
ATOM      5  C   UNL     1       1.832   9.033  17.901  0.00  0.00    +0.000 C 
ATOM      6  C   UNL     1       0.816   9.690  18.795  0.00  0.00    +0.000 A 
ATOM      7  N   UNL     1       0.069  10.684  18.266  0.00  0.00    +0.000 NA
ATOM      8  C   UNL     1      -0.830  11.244  19.075  0.00  0.00    +0.000 A 
ATOM      9  N   UNL     1      -1.070  10.888  20.346  0.00  0.00    +0.000 NA
ATOM     10  C   UNL     1      -0.308   9.897  20.833  0.00  0.00    +0.000 A 
ATOM     11  C   UNL     1       0.653   9.242  20.100  0.00  0.00    +0.000 A 
ATOM     12  C   UNL     1       1.464   8.125  20.696  0.00  0.00    +0.000 C 
ENDROOT
BRANCH   1  15
ATOM     13  C   UNL     1       5.248   4.851  17.487  0.00  0.00    +0.000 A 
ATOM     14  C   UNL     1       4.505   5.613  18.392  0.00  0.00    +0.000 A 
ATOM     15  C   UNL     1       3.192   5.301  18.750  0.00  0.00    +0.000 A 
ATOM     16  C   UNL     1       2.543   4.290  18.026  0.00  0.00    +0.000 A 
ATOM     17  C   UNL     1       3.252   3.502  17.123  0.00  0.00    +0.000 A 
ATOM     18  C   UNL     1       4.599   3.775  16.872  0.00  0.00    +0.000 A 
BRANCH  13  20
ATOM     19  C   UNL     1       6.752   6.792  17.209  0.00  0.00    +0.000 C 
ATOM     20  C   UNL     1       6.652   5.270  17.079  0.00  0.00    +0.000 C 
ATOM     21  C   UNL     1       7.802   4.619  17.865  0.00  0.00    +0.000 C 
ENDBRANCH  13  20
BRANCH  16  22
ATOM     22  O   UNL     1       1.197   4.052  18.110  0.00  0.00    +0.000 OA
ATOM     23  H   UNL     1       0.933   4.197  19.048  0.00  0.00    +0.000 HD
ENDBRANCH  16  22
BRANCH  18  24
ATOM     24  O   UNL     1       5.291   3.030  15.966  0.00  0.00    +0.000 OA
ATOM     25  H   UNL     1       6.178   3.419  15.850  0.00  0.00    +0.000 HD
ENDBRANCH  18  24
ENDBRANCH   1  15
BRANCH   8  26
ATOM     26  O   UNL     1      -1.534  12.306  18.540  0.00  0.00    +0.000 OA
BRANCH  26  27
ATOM     27  C   UNL     1      -0.647  13.354  18.123  0.00  0.00    +0.000 C 
BRANCH  27  28
ATOM     28  C   UNL     1      -0.455  14.310  19.306  0.00  0.00    +0.000 C 
BRANCH  28  29
ATOM     29  N   UNL     1       0.875  14.941  19.409  0.00  0.00    +0.000 NA
ATOM     30  C   UNL     1       2.005  13.988  19.465  0.00  0.00    +0.000 C 
ATOM     31  C   UNL     1       2.113  13.214  20.790  0.00  0.00    +0.000 C 
ATOM     32  O   UNL     1       2.199  14.109  21.906  0.00  0.00    +0.000 OA
ATOM     33  C   UNL     1       1.070  14.992  21.934  0.00  0.00    +0.000 C 
ATOM     34  C   UNL     1       0.949  15.791  20.623  0.00  0.00    +0.000 C 
ENDBRANCH  28  29
ENDBRANCH  27  28
ENDBRANCH  26  27
ENDBRANCH   8  26
TORSDOF 8
ENDMDL
MODEL 8
REMARK VINA RESULT:      -7.4      2.831      4.087
REMARK  Name = 
REMARK  10 active torsions:
REMARK  status: ('A' for Active; 'I' for Inactive)
REMARK    1  A    between atoms: C_1  and  C_2
REMARK    2  A    between atoms: C_2  and  C_3
REMARK    3  A    between atoms: C_2  and  C_4
REMARK    4  A    between atoms: C_6  and  C_7
REMARK    5  A    between atoms: C_14  and  O_15
REMARK    6  A    between atoms: O_15  and  C_16
REMARK    7  A    between atoms: C_16  and  C_17
REMARK    8  A    between atoms: C_17  and  N_18
REMARK    9  A    between atoms: C_28  and  O_29
REMARK   10  A    between atoms: C_31  and  O_32
REMARK                            x       y       z     vdW  Elec       q    Type
REMARK                         _______ _______ _______ _____ _____    ______ ____
ROOT
ATOM      1  C   UNL     1       3.170   7.172  17.969  0.00  0.00    +0.000 C 
ATOM      2  O   UNL     1       3.740   7.619  16.971  0.00  0.00    +0.000 OA
ATOM      3  N   UNL     1       2.095   7.833  18.578  0.00  0.00    +0.000 N 
ATOM      4  C   UNL     1       1.209   7.325  19.639  0.00  0.00    +0.000 C 
ATOM      5  C   UNL     1       1.356   8.215  20.876  0.00  0.00    +0.000 C 
ATOM      6  C   UNL     1       1.115   9.655  20.517  0.00  0.00    +0.000 A 
ATOM      7  N   UNL     1       0.743  10.491  21.511  0.00  0.00    +0.000 NA
ATOM      8  C   UNL     1       0.544  11.764  21.171  0.00  0.00    +0.000 A 
ATOM      9  N   UNL     1       0.707  12.283  19.944  0.00  0.00    +0.000 NA
ATOM     10  C   UNL     1       1.078  11.419  18.987  0.00  0.00    +0.000 A 
ATOM     11  C   UNL     1       1.313  10.084  19.211  0.00  0.00    +0.000 A 
ATOM     12  C   UNL     1       1.744   9.168  18.099  0.00  0.00    +0.000 C 
ENDROOT
BRANCH   1  15
ATOM     13  C   UNL     1       3.255   3.677  19.493  0.00  0.00    +0.000 A 
ATOM     14  C   UNL     1       2.829   4.942  19.078  0.00  0.00    +0.000 A 
ATOM     15  C   UNL     1       3.689   5.882  18.505  0.00  0.00    +0.000 A 
ATOM     16  C   UNL     1       5.064   5.604  18.524  0.00  0.00    +0.000 A 
ATOM     17  C   UNL     1       5.525   4.351  18.920  0.00  0.00    +0.000 A 
ATOM     18  C   UNL     1       4.620   3.394  19.384  0.00  0.00    +0.000 A 
BRANCH  13  20
ATOM     19  C   UNL     1       2.223   3.076  21.656  0.00  0.00    +0.000 C 
ATOM     20  C   UNL     1       2.294   2.713  20.171  0.00  0.00    +0.000 C 
ATOM     21  C   UNL     1       0.870   2.666  19.593  0.00  0.00    +0.000 C 
ENDBRANCH  13  20
BRANCH  16  22
ATOM     22  O   UNL     1       6.022   6.534  18.219  0.00  0.00    +0.000 OA
ATOM     23  H   UNL     1       6.159   6.503  17.245  0.00  0.00    +0.000 HD
ENDBRANCH  16  22
BRANCH  18  24
ATOM     24  O   UNL     1       5.067   2.177  19.804  0.00  0.00    +0.000 OA
ATOM     25  H   UNL     1       5.939   2.006  19.402  0.00  0.00    +0.000 HD
ENDBRANCH  18  24
ENDBRANCH   1  15
BRANCH   8  26
ATOM     26  O   UNL     1       0.094  12.590  22.185  0.00  0.00    +0.000 OA
BRANCH  26  27
ATOM     27  C   UNL     1      -1.082  12.049  22.805  0.00  0.00    +0.000 C 
BRANCH  27  28
ATOM     28  C   UNL     1      -2.305  12.666  22.117  0.00  0.00    +0.000 C 
BRANCH  28  29
ATOM     29  N   UNL     1      -3.614  12.285  22.680  0.00  0.00    +0.000 NA
ATOM     30  C   UNL     1      -4.780  12.829  21.949  0.00  0.00    +0.000 C 
ATOM     31  C   UNL     1      -4.986  14.342  22.126  0.00  0.00    +0.000 C 
ATOM     32  O   UNL     1      -5.097  14.691  23.511  0.00  0.00    +0.000 OA
ATOM     33  C   UNL     1      -3.940  14.257  24.236  0.00  0.00    +0.000 C 
ATOM     34  C   UNL     1      -3.721  12.739  24.089  0.00  0.00    +0.000 C 
ENDBRANCH  28  29
ENDBRANCH  27  28
ENDBRANCH  26  27
ENDBRANCH   8  26
TORSDOF 8
ENDMDL
MODEL 9
REMARK VINA RESULT:      -7.3      2.089     10.766
REMARK  Name = 
REMARK  10 active torsions:
REMARK  status: ('A' for Active; 'I' for Inactive)
REMARK    1  A    between atoms: C_1  and  C_2
REMARK    2  A    between atoms: C_2  and  C_3
REMARK    3  A    between atoms: C_2  and  C_4
REMARK    4  A    between atoms: C_6  and  C_7
REMARK    5  A    between atoms: C_14  and  O_15
REMARK    6  A    between atoms: O_15  and  C_16
REMARK    7  A    between atoms: C_16  and  C_17
REMARK    8  A    between atoms: C_17  and  N_18
REMARK    9  A    between atoms: C_28  and  O_29
REMARK   10  A    between atoms: C_31  and  O_32
REMARK                            x       y       z     vdW  Elec       q    Type
REMARK                         _______ _______ _______ _____ _____    ______ ____
ROOT
ATOM      1  C   UNL     1      -1.725  11.922  18.840  0.00  0.00    +0.000 C 
ATOM      2  O   UNL     1      -1.838  12.220  17.649  0.00  0.00    +0.000 OA
ATOM      3  N   UNL     1      -0.565  11.328  19.357  0.00  0.00    +0.000 N 
ATOM      4  C   UNL     1      -0.222  11.102  20.771  0.00  0.00    +0.000 C 
ATOM      5  C   UNL     1      -0.080   9.597  21.013  0.00  0.00    +0.000 C 
ATOM      6  C   UNL     1       0.903   9.001  20.043  0.00  0.00    +0.000 A 
ATOM      7  N   UNL     1       1.495   7.838  20.392  0.00  0.00    +0.000 NA
ATOM      8  C   UNL     1       2.356   7.325  19.513  0.00  0.00    +0.000 A 
ATOM      9  N   UNL     1       2.658   7.847  18.315  0.00  0.00    +0.000 NA
ATOM     10  C   UNL     1       2.047   9.001  18.007  0.00  0.00    +0.000 A 
ATOM     11  C   UNL     1       1.142   9.630  18.828  0.00  0.00    +0.000 A 
ATOM     12  C   UNL     1       0.476  10.914  18.419  0.00  0.00    +0.000 C 
ENDROOT
BRANCH   1  15
ATOM     13  C   UNL     1      -3.782  13.067  21.840  0.00  0.00    +0.000 A 
ATOM     14  C   UNL     1      -2.719  12.669  21.024  0.00  0.00    +0.000 A 
ATOM     15  C   UNL     1      -2.894  12.223  19.712  0.00  0.00    +0.000 A 
ATOM     16  C   UNL     1      -4.206  11.993  19.272  0.00  0.00    +0.000 A 
ATOM     17  C   UNL     1      -5.291  12.387  20.052  0.00  0.00    +0.000 A 
ATOM     18  C   UNL     1      -5.073  12.934  21.319  0.00  0.00    +0.000 A 
BRANCH  13  20
ATOM     19  C   UNL     1      -3.767  12.258  24.174  0.00  0.00    +0.000 C 
ATOM     20  C   UNL     1      -3.546  13.482  23.284  0.00  0.00    +0.000 C 
ATOM     21  C   UNL     1      -2.168  14.089  23.592  0.00  0.00    +0.000 C 
ENDBRANCH  13  20
BRANCH  16  22
ATOM     22  O   UNL     1      -4.504  11.336  18.108  0.00  0.00    +0.000 OA
ATOM     23  H   UNL     1      -5.481  11.220  18.080  0.00  0.00    +0.000 HD
ENDBRANCH  16  22
BRANCH  18  24
ATOM     24  O   UNL     1      -6.130  13.290  22.101  0.00  0.00    +0.000 OA
ATOM     25  H   UNL     1      -6.954  13.157  21.596  0.00  0.00    +0.000 HD
ENDBRANCH  18  24
ENDBRANCH   1  15
BRANCH   8  26
ATOM     26  O   UNL     1       3.006   6.174  19.918  0.00  0.00    +0.000 OA
BRANCH  26  27
ATOM     27  C   UNL     1       3.269   5.311  18.802  0.00  0.00    +0.000 C 
BRANCH  27  28
ATOM     28  C   UNL     1       4.777   5.036  18.763  0.00  0.00    +0.000 C 
BRANCH  28  29
ATOM     29  N   UNL     1       5.577   5.976  17.954  0.00  0.00    +0.000 NA
ATOM     30  C   UNL     1       5.500   5.750  16.494  0.00  0.00    +0.000 C 
ATOM     31  C   UNL     1       6.234   4.488  16.010  0.00  0.00    +0.000 C 
ATOM     32  O   UNL     1       7.611   4.505  16.410  0.00  0.00    +0.000 OA
ATOM     33  C   UNL     1       7.721   4.634  17.834  0.00  0.00    +0.000 C 
ATOM     34  C   UNL     1       7.007   5.901  18.341  0.00  0.00    +0.000 C 
ENDBRANCH  28  29
ENDBRANCH  27  28
ENDBRANCH  26  27
ENDBRANCH   8  26
TORSDOF 8
ENDMDL
