MODEL 1
REMARK VINA RESULT:      -7.1      0.000      0.000
REMARK  Name = 
REMARK  11 active torsions:
REMARK  status: ('A' for Active; 'I' for Inactive)
REMARK    1  A    between atoms: C_1  and  C_2
REMARK    2  A    between atoms: C_2  and  C_3
REMARK    3  A    between atoms: C_4  and  C_5
REMARK    4  A    between atoms: C_5  and  C_6
REMARK    5  A    between atoms: C_11  and  C_12
REMARK    6  A    between atoms: C_12  and  C_13
REMARK    7  A    between atoms: C_13  and  O_15
REMARK    8  A    between atoms: O_15  and  C_16
REMARK    9  A    between atoms: C_16  and  C_17
REMARK   10  A    between atoms: C_16  and  C_18
REMARK   11  A    between atoms: C_18  and  C_19
REMARK                            x       y       z     vdW  Elec       q    Type
REMARK                         _______ _______ _______ _____ _____    ______ ____
ROOT
ATOM      1  C   UNL     1       6.774   4.565  17.051  0.00  0.00    +0.000 C 
ATOM      2  C   UNL     1       6.819   6.068  16.849  0.00  0.00    +0.000 C 
ATOM      3  O   UNL     1       7.722   6.691  16.307  0.00  0.00    +0.000 OA
ATOM      4  C   UNL     1       5.605   6.729  17.329  0.00  0.00    +0.000 C 
ATOM      5  C   UNL     1       4.906   5.796  17.973  0.00  0.00    +0.000 C 
ATOM      6  C   UNL     1       5.578   4.440  18.037  0.00  0.00    +0.000 C 
ENDROOT
BRANCH   1   7
ATOM      7  C   UNL     1       6.750   3.954  15.634  0.00  0.00    +0.000 C 
BRANCH   7   9
ATOM      8  C   UNL     1       5.414   4.190  13.470  0.00  0.00    +0.000 C 
ATOM      9  C   UNL     1       5.560   4.318  14.803  0.00  0.00    +0.000 C 
BRANCH   8  11
ATOM     10  C   UNL     1       5.707   2.454  11.676  0.00  0.00    +0.000 C 
ATOM     11  C   UNL     1       6.365   3.534  12.518  0.00  0.00    +0.000 C 
ENDBRANCH   8  11
ENDBRANCH   7   9
ENDBRANCH   1   7
BRANCH   6  12
ATOM     12  C   UNL     1       4.547   3.315  17.897  0.00  0.00    +0.000 C 
BRANCH  12  13
ATOM     13  C   UNL     1       4.142   2.725  19.228  0.00  0.00    +0.000 C 
ATOM     14  O   UNL     1       4.924   2.351  20.095  0.00  0.00    +0.000 OA
BRANCH  13  15
ATOM     15  O   UNL     1       2.796   2.599  19.335  0.00  0.00    +0.000 OA
BRANCH  15  16
ATOM     16  C   UNL     1       2.065   3.844  19.334  0.00  0.00    +0.000 C 
ATOM     17  C   UNL     1       1.382   4.132  17.998  0.00  0.00    +0.000 C 
BRANCH  16  18
ATOM     18  C   UNL     1       1.038   3.764  20.469  0.00  0.00    +0.000 C 
ATOM     19  C   UNL     1       1.451   2.743  21.524  0.00  0.00    +0.000 C 
ENDBRANCH  16  18
ENDBRANCH  15  16
ENDBRANCH  13  15
ENDBRANCH  12  13
ENDBRANCH   6  12
TORSDOF 8
ENDMDL
MODEL 2
REMARK VINA RESULT:      -7.0      1.495      1.902
REMARK  Name = 
REMARK  11 active torsions:
REMARK  status: ('A' for Active; 'I' for Inactive)
REMARK    1  A    between atoms: C_1  and  C_2
REMARK    2  A    between atoms: C_2  and  C_3
REMARK    3  A    between atoms: C_4  and  C_5
REMARK    4  A    between atoms: C_5  and  C_6
REMARK    5  A    between atoms: C_11  and  C_12
REMARK    6  A    between atoms: C_12  and  C_13
REMARK    7  A    between atoms: C_13  and  O_15
REMARK    8  A    between atoms: O_15  and  C_16
REMARK    9  A    between atoms: C_16  and  C_17
REMARK   10  A    between atoms: C_16  and  C_18
REMARK   11  A    between atoms: C_18  and  C_19
REMARK                            x       y       z     vdW  Elec       q    Type
REMARK                         _______ _______ _______ _____ _____    ______ ____
ROOT
ATOM      1  C   UNL     1       6.183   3.978  15.238  0.00  0.00    +0.000 C 
ATOM      2  C   UNL     1       7.073   5.200  15.360  0.00  0.00    +0.000 C 
ATOM      3  O   UNL     1       7.936   5.539  14.562  0.00  0.00    +0.000 OA
ATOM      4  C   UNL     1       6.754   6.004  16.541  0.00  0.00    +0.000 C 
ATOM      5  C   UNL     1       5.881   5.290  17.249  0.00  0.00    +0.000 C 
ATOM      6  C   UNL     1       5.554   3.933  16.661  0.00  0.00    +0.000 C 
ENDROOT
BRANCH   1   7
ATOM      7  C   UNL     1       5.339   4.202  13.966  0.00  0.00    +0.000 C 
BRANCH   7   9
ATOM      8  C   UNL     1       5.067   3.137  11.660  0.00  0.00    +0.000 C 
ATOM      9  C   UNL     1       5.783   3.430  12.763  0.00  0.00    +0.000 C 
BRANCH   8  11
ATOM     10  C   UNL     1       3.215   3.147   9.961  0.00  0.00    +0.000 C 
ATOM     11  C   UNL     1       3.693   3.624  11.322  0.00  0.00    +0.000 C 
ENDBRANCH   8  11
ENDBRANCH   7   9
ENDBRANCH   1   7
BRANCH   6  12
ATOM     12  C   UNL     1       4.074   3.594  16.866  0.00  0.00    +0.000 C 
BRANCH  12  13
ATOM     13  C   UNL     1       3.714   3.408  18.322  0.00  0.00    +0.000 C 
ATOM     14  O   UNL     1       4.359   2.742  19.123  0.00  0.00    +0.000 OA
BRANCH  13  15
ATOM     15  O   UNL     1       2.547   4.023  18.634  0.00  0.00    +0.000 OA
BRANCH  15  16
ATOM     16  C   UNL     1       2.591   4.851  19.816  0.00  0.00    +0.000 C 
ATOM     17  C   UNL     1       2.706   6.341  19.496  0.00  0.00    +0.000 C 
BRANCH  16  18
ATOM     18  C   UNL     1       1.317   4.559  20.618  0.00  0.00    +0.000 C 
ATOM     19  C   UNL     1       1.234   3.090  21.019  0.00  0.00    +0.000 C 
ENDBRANCH  16  18
ENDBRANCH  15  16
ENDBRANCH  13  15
ENDBRANCH  12  13
ENDBRANCH   6  12
TORSDOF 8
ENDMDL
MODEL 3
REMARK VINA RESULT:      -7.0      1.172      1.861
REMARK  Name = 
REMARK  11 active torsions:
REMARK  status: ('A' for Active; 'I' for Inactive)
REMARK    1  A    between atoms: C_1  and  C_2
REMARK    2  A    between atoms: C_2  and  C_3
REMARK    3  A    between atoms: C_4  and  C_5
REMARK    4  A    between atoms: C_5  and  C_6
REMARK    5  A    between atoms: C_11  and  C_12
REMARK    6  A    between atoms: C_12  and  C_13
REMARK    7  A    between atoms: C_13  and  O_15
REMARK    8  A    between atoms: O_15  and  C_16
REMARK    9  A    between atoms: C_16  and  C_17
REMARK   10  A    between atoms: C_16  and  C_18
REMARK   11  A    between atoms: C_18  and  C_19
REMARK                            x       y       z     vdW  Elec       q    Type
REMARK                         _______ _______ _______ _____ _____    ______ ____
ROOT
ATOM      1  C   UNL     1       6.120   4.405  16.763  0.00  0.00    +0.000 C 
ATOM      2  C   UNL     1       6.413   5.891  16.688  0.00  0.00    +0.000 C 
ATOM      3  O   UNL     1       7.499   6.395  16.436  0.00  0.00    +0.000 OA
ATOM      4  C   UNL     1       5.214   6.704  16.896  0.00  0.00    +0.000 C 
ATOM      5  C   UNL     1       4.256   5.860  17.274  0.00  0.00    +0.000 C 
ATOM      6  C   UNL     1       4.704   4.419  17.406  0.00  0.00    +0.000 C 
ENDROOT
BRANCH   1   7
ATOM      7  C   UNL     1       6.382   3.856  15.345  0.00  0.00    +0.000 C 
BRANCH   7   9
ATOM      8  C   UNL     1       5.461   4.060  12.971  0.00  0.00    +0.000 C 
ATOM      9  C   UNL     1       5.459   4.366  14.283  0.00  0.00    +0.000 C 
BRANCH   8  11
ATOM     10  C   UNL     1       5.510   2.089  11.413  0.00  0.00    +0.000 C 
ATOM     11  C   UNL     1       6.313   3.039  12.285  0.00  0.00    +0.000 C 
ENDBRANCH   8  11
ENDBRANCH   7   9
ENDBRANCH   1   7
BRANCH   6  12
ATOM     12  C   UNL     1       3.605   3.463  16.931  0.00  0.00    +0.000 C 
BRANCH  12  13
ATOM     13  C   UNL     1       2.353   3.549  17.772  0.00  0.00    +0.000 C 
ATOM     14  O   UNL     1       1.302   4.067  17.412  0.00  0.00    +0.000 OA
BRANCH  13  15
ATOM     15  O   UNL     1       2.542   3.033  19.012  0.00  0.00    +0.000 OA
BRANCH  15  16
ATOM     16  C   UNL     1       1.786   3.675  20.061  0.00  0.00    +0.000 C 
ATOM     17  C   UNL     1       1.486   2.743  21.234  0.00  0.00    +0.000 C 
BRANCH  16  18
ATOM     18  C   UNL     1       2.597   4.892  20.521  0.00  0.00    +0.000 C 
ATOM     19  C   UNL     1       1.765   6.168  20.472  0.00  0.00    +0.000 C 
ENDBRANCH  16  18
ENDBRANCH  15  16
ENDBRANCH  13  15
ENDBRANCH  12  13
ENDBRANCH   6  12
TORSDOF 8
ENDMDL
MODEL 4
REMARK VINA RESULT:      -6.9      0.859      1.047
REMARK  Name = 
REMARK  11 active torsions:
REMARK  status: ('A' for Active; 'I' for Inactive)
REMARK    1  A    between atoms: C_1  and  C_2
REMARK    2  A    between atoms: C_2  and  C_3
REMARK    3  A    between atoms: C_4  and  C_5
REMARK    4  A    between atoms: C_5  and  C_6
REMARK    5  A    between atoms: C_11  and  C_12
REMARK    6  A    between atoms: C_12  and  C_13
REMARK    7  A    between atoms: C_13  and  O_15
REMARK    8  A    between atoms: O_15  and  C_16
REMARK    9  A    between atoms: C_16  and  C_17
REMARK   10  A    between atoms: C_16  and  C_18
REMARK   11  A    between atoms: C_18  and  C_19
REMARK                            x       y       z     vdW  Elec       q    Type
REMARK                         _______ _______ _______ _____ _____    ______ ____
ROOT
ATOM      1  C   UNL     1       6.412   4.477  16.666  0.00  0.00    +0.000 C 
ATOM      2  C   UNL     1       6.800   5.928  16.880  0.00  0.00    +0.000 C 
ATOM      3  O   UNL     1       7.610   6.558  16.215  0.00  0.00    +0.000 OA
ATOM      4  C   UNL     1       6.040   6.550  17.965  0.00  0.00    +0.000 C 
ATOM      5  C   UNL     1       5.361   5.567  18.553  0.00  0.00    +0.000 C 
ATOM      6  C   UNL     1       5.618   4.192  17.972  0.00  0.00    +0.000 C 
ENDROOT
BRANCH   1   7
ATOM      7  C   UNL     1       5.760   4.421  15.268  0.00  0.00    +0.000 C 
BRANCH   7   9
ATOM      8  C   UNL     1       6.475   3.809  12.894  0.00  0.00    +0.000 C 
ATOM      9  C   UNL     1       6.715   4.308  14.122  0.00  0.00    +0.000 C 
BRANCH   8  11
ATOM     10  C   UNL     1       5.281   2.186  11.393  0.00  0.00    +0.000 C 
ATOM     11  C   UNL     1       5.155   3.363  12.345  0.00  0.00    +0.000 C 
ENDBRANCH   8  11
ENDBRANCH   7   9
ENDBRANCH   1   7
BRANCH   6  12
ATOM     12  C   UNL     1       4.331   3.361  17.954  0.00  0.00    +0.000 C 
BRANCH  12  13
ATOM     13  C   UNL     1       4.128   2.571  19.227  0.00  0.00    +0.000 C 
ATOM     14  O   UNL     1       5.006   2.330  20.048  0.00  0.00    +0.000 OA
BRANCH  13  15
ATOM     15  O   UNL     1       2.861   2.101  19.332  0.00  0.00    +0.000 OA
BRANCH  15  16
ATOM     16  C   UNL     1       1.828   3.106  19.244  0.00  0.00    +0.000 C 
ATOM     17  C   UNL     1       0.491   2.545  18.761  0.00  0.00    +0.000 C 
BRANCH  16  18
ATOM     18  C   UNL     1       1.690   3.731  20.637  0.00  0.00    +0.000 C 
ATOM     19  C   UNL     1       1.893   5.242  20.593  0.00  0.00    +0.000 C 
ENDBRANCH  16  18
ENDBRANCH  15  16
ENDBRANCH  13  15
ENDBRANCH  12  13
ENDBRANCH   6  12
TORSDOF 8
ENDMDL
MODEL 5
REMARK VINA RESULT:      -6.8      2.208      4.380
REMARK  Name = 
REMARK  11 active torsions:
REMARK  status: ('A' for Active; 'I' for Inactive)
REMARK    1  A    between atoms: C_1  and  C_2
REMARK    2  A    between atoms: C_2  and  C_3
REMARK    3  A    between atoms: C_4  and  C_5
REMARK    4  A    between atoms: C_5  and  C_6
REMARK    5  A    between atoms: C_11  and  C_12
REMARK    6  A    between atoms: C_12  and  C_13
REMARK    7  A    between atoms: C_13  and  O_15
REMARK    8  A    between atoms: O_15  and  C_16
REMARK    9  A    between atoms: C_16  and  C_17
REMARK   10  A    between atoms: C_16  and  C_18
REMARK   11  A    between atoms: C_18  and  C_19
REMARK                            x       y       z     vdW  Elec       q    Type
REMARK                         _______ _______ _______ _____ _____    ______ ____
ROOT
ATOM      1  C   UNL     1       4.484   5.582  17.004  0.00  0.00    +0.000 C 
ATOM      2  C   UNL     1       5.440   5.974  15.893  0.00  0.00    +0.000 C 
ATOM      3  O   UNL     1       5.202   6.766  14.991  0.00  0.00    +0.000 OA
ATOM      4  C   UNL     1       6.749   5.335  16.036  0.00  0.00    +0.000 C 
ATOM      5  C   UNL     1       6.622   4.448  17.022  0.00  0.00    +0.000 C 
ATOM      6  C   UNL     1       5.230   4.359  17.611  0.00  0.00    +0.000 C 
ENDROOT
BRANCH   1   7
ATOM      7  C   UNL     1       4.222   6.875  17.805  0.00  0.00    +0.000 C 
BRANCH   7   9
ATOM      8  C   UNL     1       2.017   7.900  18.586  0.00  0.00    +0.000 C 
ATOM      9  C   UNL     1       2.929   6.909  18.557  0.00  0.00    +0.000 C 
BRANCH   8  11
ATOM     10  C   UNL     1       1.318  10.310  18.462  0.00  0.00    +0.000 C 
ATOM     11  C   UNL     1       2.025   9.156  17.772  0.00  0.00    +0.000 C 
ENDBRANCH   8  11
ENDBRANCH   7   9
ENDBRANCH   1   7
BRANCH   6  12
ATOM     12  C   UNL     1       5.295   4.139  19.126  0.00  0.00    +0.000 C 
BRANCH  12  13
ATOM     13  C   UNL     1       4.548   2.902  19.569  0.00  0.00    +0.000 C 
ATOM     14  O   UNL     1       4.982   2.065  20.353  0.00  0.00    +0.000 OA
BRANCH  13  15
ATOM     15  O   UNL     1       3.349   2.787  18.946  0.00  0.00    +0.000 OA
BRANCH  15  16
ATOM     16  C   UNL     1       2.200   2.872  19.816  0.00  0.00    +0.000 C 
ATOM     17  C   UNL     1       2.292   4.027  20.813  0.00  0.00    +0.000 C 
BRANCH  16  18
ATOM     18  C   UNL     1       0.966   3.020  18.918  0.00  0.00    +0.000 C 
ATOM     19  C   UNL     1       1.258   3.903  17.710  0.00  0.00    +0.000 C 
ENDBRANCH  16  18
ENDBRANCH  15  16
ENDBRANCH  13  15
ENDBRANCH  12  13
ENDBRANCH   6  12
TORSDOF 8
ENDMDL
MODEL 6
REMARK VINA RESULT:      -6.8      1.489      2.259
REMARK  Name = 
REMARK  11 active torsions:
REMARK  status: ('A' for Active; 'I' for Inactive)
REMARK    1  A    between atoms: C_1  and  C_2
REMARK    2  A    between atoms: C_2  and  C_3
REMARK    3  A    between atoms: C_4  and  C_5
REMARK    4  A    between atoms: C_5  and  C_6
REMARK    5  A    between atoms: C_11  and  C_12
REMARK    6  A    between atoms: C_12  and  C_13
REMARK    7  A    between atoms: C_13  and  O_15
REMARK    8  A    between atoms: O_15  and  C_16
REMARK    9  A    between atoms: C_16  and  C_17
REMARK   10  A    between atoms: C_16  and  C_18
REMARK   11  A    between atoms: C_18  and  C_19
REMARK                            x       y       z     vdW  Elec       q    Type
REMARK                         _______ _______ _______ _____ _____    ______ ____
ROOT
ATOM      1  C   UNL     1       5.730   3.745  15.764  0.00  0.00    +0.000 C 
ATOM      2  C   UNL     1       6.884   4.582  16.281  0.00  0.00    +0.000 C 
ATOM      3  O   UNL     1       7.972   4.713  15.737  0.00  0.00    +0.000 OA
ATOM      4  C   UNL     1       6.544   5.296  17.512  0.00  0.00    +0.000 C 
ATOM      5  C   UNL     1       5.357   4.828  17.895  0.00  0.00    +0.000 C 
ATOM      6  C   UNL     1       4.797   3.736  17.008  0.00  0.00    +0.000 C 
ENDROOT
BRANCH   1   7
ATOM      7  C   UNL     1       5.318   4.386  14.422  0.00  0.00    +0.000 C 
BRANCH   7   9
ATOM      8  C   UNL     1       5.436   3.317  12.105  0.00  0.00    +0.000 C 
ATOM      9  C   UNL     1       6.003   3.831  13.213  0.00  0.00    +0.000 C 
BRANCH   8  11
ATOM     10  C   UNL     1       3.693   3.725  10.341  0.00  0.00    +0.000 C 
ATOM     11  C   UNL     1       3.977   3.291  11.769  0.00  0.00    +0.000 C 
ENDBRANCH   8  11
ENDBRANCH   7   9
ENDBRANCH   1   7
BRANCH   6  12
ATOM     12  C   UNL     1       3.278   3.879  16.864  0.00  0.00    +0.000 C 
BRANCH  12  13
ATOM     13  C   UNL     1       2.517   3.141  17.941  0.00  0.00    +0.000 C 
ATOM     14  O   UNL     1       1.713   2.238  17.737  0.00  0.00    +0.000 OA
BRANCH  13  15
ATOM     15  O   UNL     1       2.782   3.636  19.175  0.00  0.00    +0.000 OA
BRANCH  15  16
ATOM     16  C   UNL     1       1.620   4.020  19.940  0.00  0.00    +0.000 C 
ATOM     17  C   UNL     1       1.272   3.017  21.040  0.00  0.00    +0.000 C 
BRANCH  16  18
ATOM     18  C   UNL     1       1.908   5.404  20.532  0.00  0.00    +0.000 C 
ATOM     19  C   UNL     1       2.367   6.386  19.460  0.00  0.00    +0.000 C 
ENDBRANCH  16  18
ENDBRANCH  15  16
ENDBRANCH  13  15
ENDBRANCH  12  13
ENDBRANCH   6  12
TORSDOF 8
ENDMDL
MODEL 7
REMARK VINA RESULT:      -6.8      1.680      2.089
REMARK  Name = 
REMARK  11 active torsions:
REMARK  status: ('A' for Active; 'I' for Inactive)
REMARK    1  A    between atoms: C_1  and  C_2
REMARK    2  A    between atoms: C_2  and  C_3
REMARK    3  A    between atoms: C_4  and  C_5
REMARK    4  A    between atoms: C_5  and  C_6
REMARK    5  A    between atoms: C_11  and  C_12
REMARK    6  A    between atoms: C_12  and  C_13
REMARK    7  A    between atoms: C_13  and  O_15
REMARK    8  A    between atoms: O_15  and  C_16
REMARK    9  A    between atoms: C_16  and  C_17
REMARK   10  A    between atoms: C_16  and  C_18
REMARK   11  A    between atoms: C_18  and  C_19
REMARK                            x       y       z     vdW  Elec       q    Type
REMARK                         _______ _______ _______ _____ _____    ______ ____
ROOT
ATOM      1  C   UNL     1       5.926   4.475  16.737  0.00  0.00    +0.000 C 
ATOM      2  C   UNL     1       7.252   4.608  17.461  0.00  0.00    +0.000 C 
ATOM      3  O   UNL     1       8.335   4.213  17.049  0.00  0.00    +0.000 OA
ATOM      4  C   UNL     1       7.124   5.335  18.725  0.00  0.00    +0.000 C 
ATOM      5  C   UNL     1       5.818   5.494  18.929  0.00  0.00    +0.000 C 
ATOM      6  C   UNL     1       4.935   4.866  17.871  0.00  0.00    +0.000 C 
ENDROOT
BRANCH   1   7
ATOM      7  C   UNL     1       6.072   5.302  15.442  0.00  0.00    +0.000 C 
BRANCH   7   9
ATOM      8  C   UNL     1       6.343   3.883  13.336  0.00  0.00    +0.000 C 
ATOM      9  C   UNL     1       6.833   4.634  14.341  0.00  0.00    +0.000 C 
BRANCH   8  11
ATOM     10  C   UNL     1       4.684   3.214  11.570  0.00  0.00    +0.000 C 
ATOM     11  C   UNL     1       4.901   3.643  13.012  0.00  0.00    +0.000 C 
ENDBRANCH   8  11
ENDBRANCH   7   9
ENDBRANCH   1   7
BRANCH   6  12
ATOM     12  C   UNL     1       3.712   5.746  17.591  0.00  0.00    +0.000 C 
BRANCH  12  13
ATOM     13  C   UNL     1       2.791   5.862  18.783  0.00  0.00    +0.000 C 
ATOM     14  O   UNL     1       2.272   6.904  19.168  0.00  0.00    +0.000 OA
BRANCH  13  15
ATOM     15  O   UNL     1       2.648   4.677  19.427  0.00  0.00    +0.000 OA
BRANCH  15  16
ATOM     16  C   UNL     1       1.436   3.957  19.116  0.00  0.00    +0.000 C 
ATOM     17  C   UNL     1       1.689   2.689  18.302  0.00  0.00    +0.000 C 
BRANCH  16  18
ATOM     18  C   UNL     1       0.754   3.626  20.448  0.00  0.00    +0.000 C 
ATOM     19  C   UNL     1       1.596   2.667  21.283  0.00  0.00    +0.000 C 
ENDBRANCH  16  18
ENDBRANCH  15  16
ENDBRANCH  13  15
ENDBRANCH  12  13
ENDBRANCH   6  12
TORSDOF 8
ENDMDL
MODEL 8
REMARK VINA RESULT:      -6.8      1.821      6.596
REMARK  Name = 
REMARK  11 active torsions:
REMARK  status: ('A' for Active; 'I' for Inactive)
REMARK    1  A    between atoms: C_1  and  C_2
REMARK    2  A    between atoms: C_2  and  C_3
REMARK    3  A    between atoms: C_4  and  C_5
REMARK    4  A    between atoms: C_5  and  C_6
REMARK    5  A    between atoms: C_11  and  C_12
REMARK    6  A    between atoms: C_12  and  C_13
REMARK    7  A    between atoms: C_13  and  O_15
REMARK    8  A    between atoms: O_15  and  C_16
REMARK    9  A    between atoms: C_16  and  C_17
REMARK   10  A    between atoms: C_16  and  C_18
REMARK   11  A    between atoms: C_18  and  C_19
REMARK                            x       y       z     vdW  Elec       q    Type
REMARK                         _______ _______ _______ _____ _____    ______ ____
ROOT
ATOM      1  C   UNL     1       4.664   4.839  16.926  0.00  0.00    +0.000 C 
ATOM      2  C   UNL     1       5.397   4.943  18.250  0.00  0.00    +0.000 C 
ATOM      3  O   UNL     1       4.885   5.182  19.335  0.00  0.00    +0.000 OA
ATOM      4  C   UNL     1       6.827   4.663  18.115  0.00  0.00    +0.000 C 
ATOM      5  C   UNL     1       7.067   4.581  16.808  0.00  0.00    +0.000 C 
ATOM      6  C   UNL     1       5.859   4.837  15.931  0.00  0.00    +0.000 C 
ENDROOT
BRANCH   1   7
ATOM      7  C   UNL     1       3.706   3.638  17.073  0.00  0.00    +0.000 C 
BRANCH   7   9
ATOM      8  C   UNL     1       1.472   3.583  18.311  0.00  0.00    +0.000 C 
ATOM      9  C   UNL     1       2.271   3.993  17.307  0.00  0.00    +0.000 C 
BRANCH   8  11
ATOM     10  C   UNL     1       1.864   3.574  20.793  0.00  0.00    +0.000 C 
ATOM     11  C   UNL     1       1.869   2.770  19.504  0.00  0.00    +0.000 C 
ENDBRANCH   8  11
ENDBRANCH   7   9
ENDBRANCH   1   7
BRANCH   6  12
ATOM     12  C   UNL     1       5.873   3.917  14.706  0.00  0.00    +0.000 C 
BRANCH  12  13
ATOM     13  C   UNL     1       6.720   4.459  13.577  0.00  0.00    +0.000 C 
ATOM     14  O   UNL     1       7.301   5.538  13.595  0.00  0.00    +0.000 OA
BRANCH  13  15
ATOM     15  O   UNL     1       6.716   3.632  12.502  0.00  0.00    +0.000 OA
BRANCH  15  16
ATOM     16  C   UNL     1       5.477   2.924  12.282  0.00  0.00    +0.000 C 
ATOM     17  C   UNL     1       4.451   3.747  11.504  0.00  0.00    +0.000 C 
BRANCH  16  18
ATOM     18  C   UNL     1       5.824   1.632  11.534  0.00  0.00    +0.000 C 
ATOM     19  C   UNL     1       7.244   1.671  10.981  0.00  0.00    +0.000 C 
ENDBRANCH  16  18
ENDBRANCH  15  16
ENDBRANCH  13  15
ENDBRANCH  12  13
ENDBRANCH   6  12
TORSDOF 8
ENDMDL
MODEL 9
REMARK VINA RESULT:      -6.7      1.453      1.888
REMARK  Name = 
REMARK  11 active torsions:
REMARK  status: ('A' for Active; 'I' for Inactive)
REMARK    1  A    between atoms: C_1  and  C_2
REMARK    2  A    between atoms: C_2  and  C_3
REMARK    3  A    between atoms: C_4  and  C_5
REMARK    4  A    between atoms: C_5  and  C_6
REMARK    5  A    between atoms: C_11  and  C_12
REMARK    6  A    between atoms: C_12  and  C_13
REMARK    7  A    between atoms: C_13  and  O_15
REMARK    8  A    between atoms: O_15  and  C_16
REMARK    9  A    between atoms: C_16  and  C_17
REMARK   10  A    between atoms: C_16  and  C_18
REMARK   11  A    between atoms: C_18  and  C_19
REMARK                            x       y       z     vdW  Elec       q    Type
REMARK                         _______ _______ _______ _____ _____    ______ ____
ROOT
ATOM      1  C   UNL     1       5.843   4.043  17.273  0.00  0.00    +0.000 C 
ATOM      2  C   UNL     1       7.193   4.724  17.392  0.00  0.00    +0.000 C 
ATOM      3  O   UNL     1       8.278   4.208  17.156  0.00  0.00    +0.000 OA
ATOM      4  C   UNL     1       7.074   6.132  17.773  0.00  0.00    +0.000 C 
ATOM      5  C   UNL     1       5.792   6.324  18.079  0.00  0.00    +0.000 C 
ATOM      6  C   UNL     1       4.930   5.082  17.985  0.00  0.00    +0.000 C 
ENDROOT
BRANCH   1   7
ATOM      7  C   UNL     1       5.685   3.685  15.781  0.00  0.00    +0.000 C 
BRANCH   7   9
ATOM      8  C   UNL     1       6.413   4.597  13.508  0.00  0.00    +0.000 C 
ATOM      9  C   UNL     1       6.143   4.737  14.820  0.00  0.00    +0.000 C 
BRANCH   8  11
ATOM     10  C   UNL     1       4.879   3.401  11.917  0.00  0.00    +0.000 C 
ATOM     11  C   UNL     1       6.198   3.375  12.670  0.00  0.00    +0.000 C 
ENDBRANCH   8  11
ENDBRANCH   7   9
ENDBRANCH   1   7
BRANCH   6  12
ATOM     12  C   UNL     1       3.540   5.426  17.439  0.00  0.00    +0.000 C 
BRANCH  12  13
ATOM     13  C   UNL     1       2.556   4.288  17.589  0.00  0.00    +0.000 C 
ATOM     14  O   UNL     1       2.284   3.478  16.710  0.00  0.00    +0.000 OA
BRANCH  13  15
ATOM     15  O   UNL     1       1.954   4.300  18.804  0.00  0.00    +0.000 OA
BRANCH  15  16
ATOM     16  C   UNL     1       1.860   3.012  19.450  0.00  0.00    +0.000 C 
ATOM     17  C   UNL     1       3.226   2.408  19.776  0.00  0.00    +0.000 C 
BRANCH  16  18
ATOM     18  C   UNL     1       1.029   3.206  20.723  0.00  0.00    +0.000 C 
ATOM     19  C   UNL     1       1.748   2.655  21.949  0.00  0.00    +0.000 C 
ENDBRANCH  16  18
ENDBRANCH  15  16
ENDBRANCH  13  15
ENDBRANCH  12  13
ENDBRANCH   6  12
TORSDOF 8
ENDMDL
