MODEL 1
REMARK VINA RESULT:      -5.8      0.000      0.000
REMARK  Name = 
REMARK  6 active torsions:
REMARK  status: ('A' for Active; 'I' for Inactive)
REMARK    1  A    between atoms: C_1  and  O_2
REMARK    2  A    between atoms: O_2  and  C_3
REMARK    3  A    between atoms: C_3  and  C_5
REMARK    4  A    between atoms: C_5  and  C_6
REMARK    5  A    between atoms: C_6  and  C_7
REMARK    6  A    between atoms: C_10  and  O_11
REMARK                            x       y       z     vdW  Elec       q    Type
REMARK                         _______ _______ _______ _____ _____    ______ ____
ROOT
ATOM      1  C   UNL     1       3.692   4.720  17.624  0.00  0.00    +0.000 A 
ATOM      2  C   UNL     1       4.157   3.396  17.649  0.00  0.00    +0.000 A 
ATOM      3  C   UNL     1       3.286   2.342  17.933  0.00  0.00    +0.000 A 
ATOM      4  C   UNL     1       1.950   2.612  18.203  0.00  0.00    +0.000 A 
ATOM      5  C   UNL     1       1.474   3.917  18.200  0.00  0.00    +0.000 A 
ATOM      6  C   UNL     1       2.343   4.971  17.911  0.00  0.00    +0.000 A 
ENDROOT
BRANCH   4   7
ATOM      7  O   UNL     1       1.066   1.613  18.480  0.00  0.00    +0.000 OA
ATOM      8  H   UNL     1       1.052   0.998  17.729  0.00  0.00    +0.000 HD
ENDBRANCH   4   7
BRANCH   1   9
ATOM      9  C   UNL     1       4.631   5.862  17.322  0.00  0.00    +0.000 C 
BRANCH   9  10
ATOM     10  C   UNL     1       5.201   5.805  15.905  0.00  0.00    +0.000 C 
BRANCH  10  11
ATOM     11  C   UNL     1       6.679   5.515  15.943  0.00  0.00    +0.000 C 
ATOM     12  O   UNL     1       7.545   6.299  16.308  0.00  0.00    +0.000 OA
BRANCH  11  14
ATOM     13  C   UNL     1       6.229   3.913  14.306  0.00  0.00    +0.000 C 
ATOM     14  O   UNL     1       6.916   4.244  15.515  0.00  0.00    +0.000 OA
ENDBRANCH  11  14
ENDBRANCH  10  11
ENDBRANCH   9  10
ENDBRANCH   1   9
TORSDOF 5
ENDMDL
MODEL 2
REMARK VINA RESULT:      -5.6      1.720      2.451
REMARK  Name = 
REMARK  6 active torsions:
REMARK  status: ('A' for Active; 'I' for Inactive)
REMARK    1  A    between atoms: C_1  and  O_2
REMARK    2  A    between atoms: O_2  and  C_3
REMARK    3  A    between atoms: C_3  and  C_5
REMARK    4  A    between atoms: C_5  and  C_6
REMARK    5  A    between atoms: C_6  and  C_7
REMARK    6  A    between atoms: C_10  and  O_11
REMARK                            x       y       z     vdW  Elec       q    Type
REMARK                         _______ _______ _______ _____ _____    ______ ____
ROOT
ATOM      1  C   UNL     1       3.609   4.271  17.528  0.00  0.00    +0.000 A 
ATOM      2  C   UNL     1       3.237   5.200  18.512  0.00  0.00    +0.000 A 
ATOM      3  C   UNL     1       2.167   4.938  19.370  0.00  0.00    +0.000 A 
ATOM      4  C   UNL     1       1.460   3.749  19.238  0.00  0.00    +0.000 A 
ATOM      5  C   UNL     1       1.802   2.824  18.260  0.00  0.00    +0.000 A 
ATOM      6  C   UNL     1       2.874   3.084  17.405  0.00  0.00    +0.000 A 
ENDROOT
BRANCH   4   7
ATOM      7  O   UNL     1       0.413   3.451  20.058  0.00  0.00    +0.000 OA
ATOM      8  H   UNL     1       0.260   2.492  20.026  0.00  0.00    +0.000 HD
ENDBRANCH   4   7
BRANCH   1   9
ATOM      9  C   UNL     1       4.761   4.554  16.596  0.00  0.00    +0.000 C 
BRANCH   9  10
ATOM     10  C   UNL     1       5.834   5.441  17.228  0.00  0.00    +0.000 C 
BRANCH  10  11
ATOM     11  C   UNL     1       7.184   4.778  17.142  0.00  0.00    +0.000 C 
ATOM     12  O   UNL     1       7.763   4.483  16.105  0.00  0.00    +0.000 OA
BRANCH  11  14
ATOM     13  C   UNL     1       7.728   5.734  19.201  0.00  0.00    +0.000 C 
ATOM     14  O   UNL     1       7.675   4.556  18.393  0.00  0.00    +0.000 OA
ENDBRANCH  11  14
ENDBRANCH  10  11
ENDBRANCH   9  10
ENDBRANCH   1   9
TORSDOF 5
ENDMDL
MODEL 3
REMARK VINA RESULT:      -5.6      1.411      2.333
REMARK  Name = 
REMARK  6 active torsions:
REMARK  status: ('A' for Active; 'I' for Inactive)
REMARK    1  A    between atoms: C_1  and  O_2
REMARK    2  A    between atoms: O_2  and  C_3
REMARK    3  A    between atoms: C_3  and  C_5
REMARK    4  A    between atoms: C_5  and  C_6
REMARK    5  A    between atoms: C_6  and  C_7
REMARK    6  A    between atoms: C_10  and  O_11
REMARK                            x       y       z     vdW  Elec       q    Type
REMARK                         _______ _______ _______ _____ _____    ______ ____
ROOT
ATOM      1  C   UNL     1       4.112   3.863  18.533  0.00  0.00    +0.000 A 
ATOM      2  C   UNL     1       3.111   4.477  17.764  0.00  0.00    +0.000 A 
ATOM      3  C   UNL     1       1.815   3.958  17.739  0.00  0.00    +0.000 A 
ATOM      4  C   UNL     1       1.521   2.817  18.475  0.00  0.00    +0.000 A 
ATOM      5  C   UNL     1       2.502   2.184  19.229  0.00  0.00    +0.000 A 
ATOM      6  C   UNL     1       3.797   2.706  19.258  0.00  0.00    +0.000 A 
ENDROOT
BRANCH   4   7
ATOM      7  O   UNL     1       0.268   2.280  18.483  0.00  0.00    +0.000 OA
ATOM      8  H   UNL     1       0.287   1.461  19.006  0.00  0.00    +0.000 HD
ENDBRANCH   4   7
BRANCH   1   9
ATOM      9  C   UNL     1       5.515   4.419  18.558  0.00  0.00    +0.000 C 
BRANCH   9  10
ATOM     10  C   UNL     1       5.765   5.452  17.460  0.00  0.00    +0.000 C 
BRANCH  10  11
ATOM     11  C   UNL     1       7.201   5.402  17.007  0.00  0.00    +0.000 C 
ATOM     12  O   UNL     1       7.919   4.410  17.039  0.00  0.00    +0.000 OA
BRANCH  11  14
ATOM     13  C   UNL     1       7.597   7.635  17.557  0.00  0.00    +0.000 C 
ATOM     14  O   UNL     1       7.588   6.624  16.547  0.00  0.00    +0.000 OA
ENDBRANCH  11  14
ENDBRANCH  10  11
ENDBRANCH   9  10
ENDBRANCH   1   9
TORSDOF 5
ENDMDL
MODEL 4
REMARK VINA RESULT:      -5.6      1.316      5.630
REMARK  Name = 
REMARK  6 active torsions:
REMARK  status: ('A' for Active; 'I' for Inactive)
REMARK    1  A    between atoms: C_1  and  O_2
REMARK    2  A    between atoms: O_2  and  C_3
REMARK    3  A    between atoms: C_3  and  C_5
REMARK    4  A    between atoms: C_5  and  C_6
REMARK    5  A    between atoms: C_6  and  C_7
REMARK    6  A    between atoms: C_10  and  O_11
REMARK                            x       y       z     vdW  Elec       q    Type
REMARK                         _______ _______ _______ _____ _____    ______ ____
ROOT
ATOM      1  C   UNL     1       3.820   5.169  17.459  0.00  0.00    +0.000 A 
ATOM      2  C   UNL     1       4.372   6.418  17.133  0.00  0.00    +0.000 A 
ATOM      3  C   UNL     1       5.543   6.502  16.377  0.00  0.00    +0.000 A 
ATOM      4  C   UNL     1       6.170   5.336  15.955  0.00  0.00    +0.000 A 
ATOM      5  C   UNL     1       5.649   4.091  16.281  0.00  0.00    +0.000 A 
ATOM      6  C   UNL     1       4.476   4.006  17.033  0.00  0.00    +0.000 A 
ENDROOT
BRANCH   4   7
ATOM      7  O   UNL     1       7.312   5.374  15.211  0.00  0.00    +0.000 OA
ATOM      8  H   UNL     1       7.222   6.076  14.546  0.00  0.00    +0.000 HD
ENDBRANCH   4   7
BRANCH   1   9
ATOM      9  C   UNL     1       2.557   5.074  18.280  0.00  0.00    +0.000 C 
BRANCH   9  10
ATOM     10  C   UNL     1       1.523   4.127  17.673  0.00  0.00    +0.000 C 
BRANCH  10  11
ATOM     11  C   UNL     1       1.174   3.033  18.648  0.00  0.00    +0.000 C 
ATOM     12  O   UNL     1       0.277   2.213  18.500  0.00  0.00    +0.000 OA
BRANCH  11  14
ATOM     13  C   UNL     1       1.341   2.867  20.970  0.00  0.00    +0.000 C 
ATOM     14  O   UNL     1       2.007   3.084  19.724  0.00  0.00    +0.000 OA
ENDBRANCH  11  14
ENDBRANCH  10  11
ENDBRANCH   9  10
ENDBRANCH   1   9
TORSDOF 5
ENDMDL
MODEL 5
REMARK VINA RESULT:      -5.6      1.223      1.504
REMARK  Name = 
REMARK  6 active torsions:
REMARK  status: ('A' for Active; 'I' for Inactive)
REMARK    1  A    between atoms: C_1  and  O_2
REMARK    2  A    between atoms: O_2  and  C_3
REMARK    3  A    between atoms: C_3  and  C_5
REMARK    4  A    between atoms: C_5  and  C_6
REMARK    5  A    between atoms: C_6  and  C_7
REMARK    6  A    between atoms: C_10  and  O_11
REMARK                            x       y       z     vdW  Elec       q    Type
REMARK                         _______ _______ _______ _____ _____    ______ ____
ROOT
ATOM      1  C   UNL     1       3.588   3.585  17.562  0.00  0.00    +0.000 A 
ATOM      2  C   UNL     1       3.151   2.303  17.929  0.00  0.00    +0.000 A 
ATOM      3  C   UNL     1       2.053   2.141  18.776  0.00  0.00    +0.000 A 
ATOM      4  C   UNL     1       1.396   3.263  19.266  0.00  0.00    +0.000 A 
ATOM      5  C   UNL     1       1.824   4.541  18.929  0.00  0.00    +0.000 A 
ATOM      6  C   UNL     1       2.919   4.703  18.078  0.00  0.00    +0.000 A 
ENDROOT
BRANCH   4   7
ATOM      7  O   UNL     1       0.317   3.151  20.092  0.00  0.00    +0.000 OA
ATOM      8  H   UNL     1      -0.489   3.243  19.558  0.00  0.00    +0.000 HD
ENDBRANCH   4   7
BRANCH   1   9
ATOM      9  C   UNL     1       4.777   3.763  16.650  0.00  0.00    +0.000 C 
BRANCH   9  10
ATOM     10  C   UNL     1       5.543   5.059  16.918  0.00  0.00    +0.000 C 
BRANCH  10  11
ATOM     11  C   UNL     1       6.927   4.985  16.327  0.00  0.00    +0.000 C 
ATOM     12  O   UNL     1       7.879   4.401  16.828  0.00  0.00    +0.000 OA
BRANCH  11  14
ATOM     13  C   UNL     1       7.012   4.805  14.001  0.00  0.00    +0.000 C 
ATOM     14  O   UNL     1       6.966   5.660  15.145  0.00  0.00    +0.000 OA
ENDBRANCH  11  14
ENDBRANCH  10  11
ENDBRANCH   9  10
ENDBRANCH   1   9
TORSDOF 5
ENDMDL
MODEL 6
REMARK VINA RESULT:      -5.6      1.372      1.759
REMARK  Name = 
REMARK  6 active torsions:
REMARK  status: ('A' for Active; 'I' for Inactive)
REMARK    1  A    between atoms: C_1  and  O_2
REMARK    2  A    between atoms: O_2  and  C_3
REMARK    3  A    between atoms: C_3  and  C_5
REMARK    4  A    between atoms: C_5  and  C_6
REMARK    5  A    between atoms: C_6  and  C_7
REMARK    6  A    between atoms: C_10  and  O_11
REMARK                            x       y       z     vdW  Elec       q    Type
REMARK                         _______ _______ _______ _____ _____    ______ ____
ROOT
ATOM      1  C   UNL     1       4.130   3.890  18.646  0.00  0.00    +0.000 A 
ATOM      2  C   UNL     1       3.232   4.277  17.639  0.00  0.00    +0.000 A 
ATOM      3  C   UNL     1       1.945   3.738  17.587  0.00  0.00    +0.000 A 
ATOM      4  C   UNL     1       1.558   2.801  18.538  0.00  0.00    +0.000 A 
ATOM      5  C   UNL     1       2.437   2.393  19.533  0.00  0.00    +0.000 A 
ATOM      6  C   UNL     1       3.722   2.935  19.587  0.00  0.00    +0.000 A 
ENDROOT
BRANCH   4   7
ATOM      7  O   UNL     1       0.310   2.253  18.527  0.00  0.00    +0.000 OA
ATOM      8  H   UNL     1      -0.021   2.261  17.614  0.00  0.00    +0.000 HD
ENDBRANCH   4   7
BRANCH   1   9
ATOM      9  C   UNL     1       5.523   4.468  18.701  0.00  0.00    +0.000 C 
BRANCH   9  10
ATOM     10  C   UNL     1       5.943   5.134  17.392  0.00  0.00    +0.000 C 
BRANCH  10  11
ATOM     11  C   UNL     1       7.282   4.611  16.940  0.00  0.00    +0.000 C 
ATOM     12  O   UNL     1       8.151   4.162  17.677  0.00  0.00    +0.000 OA
BRANCH  11  14
ATOM     13  C   UNL     1       6.319   4.062  14.886  0.00  0.00    +0.000 C 
ATOM     14  O   UNL     1       7.387   4.705  15.586  0.00  0.00    +0.000 OA
ENDBRANCH  11  14
ENDBRANCH  10  11
ENDBRANCH   9  10
ENDBRANCH   1   9
TORSDOF 5
ENDMDL
MODEL 7
REMARK VINA RESULT:      -5.6      0.855      1.660
REMARK  Name = 
REMARK  6 active torsions:
REMARK  status: ('A' for Active; 'I' for Inactive)
REMARK    1  A    between atoms: C_1  and  O_2
REMARK    2  A    between atoms: O_2  and  C_3
REMARK    3  A    between atoms: C_3  and  C_5
REMARK    4  A    between atoms: C_5  and  C_6
REMARK    5  A    between atoms: C_6  and  C_7
REMARK    6  A    between atoms: C_10  and  O_11
REMARK                            x       y       z     vdW  Elec       q    Type
REMARK                         _______ _______ _______ _____ _____    ______ ____
ROOT
ATOM      1  C   UNL     1       3.643   4.794  17.447  0.00  0.00    +0.000 A 
ATOM      2  C   UNL     1       2.385   5.062  18.009  0.00  0.00    +0.000 A 
ATOM      3  C   UNL     1       1.551   4.019  18.415  0.00  0.00    +0.000 A 
ATOM      4  C   UNL     1       1.969   2.704  18.249  0.00  0.00    +0.000 A 
ATOM      5  C   UNL     1       3.203   2.417  17.678  0.00  0.00    +0.000 A 
ATOM      6  C   UNL     1       4.040   3.460  17.277  0.00  0.00    +0.000 A 
ENDROOT
BRANCH   4   7
ATOM      7  O   UNL     1       1.188   1.656  18.636  0.00  0.00    +0.000 OA
ATOM      8  H   UNL     1       0.373   1.669  18.106  0.00  0.00    +0.000 HD
ENDBRANCH   4   7
BRANCH   1   9
ATOM      9  C   UNL     1       4.545   5.919  17.003  0.00  0.00    +0.000 C 
BRANCH   9  10
ATOM     10  C   UNL     1       5.905   5.901  17.700  0.00  0.00    +0.000 C 
BRANCH  10  11
ATOM     11  C   UNL     1       6.957   5.322  16.789  0.00  0.00    +0.000 C 
ATOM     12  O   UNL     1       7.821   4.522  17.126  0.00  0.00    +0.000 OA
BRANCH  11  14
ATOM     13  C   UNL     1       7.014   4.836  14.507  0.00  0.00    +0.000 C 
ATOM     14  O   UNL     1       6.804   5.813  15.528  0.00  0.00    +0.000 OA
ENDBRANCH  11  14
ENDBRANCH  10  11
ENDBRANCH   9  10
ENDBRANCH   1   9
TORSDOF 5
ENDMDL
MODEL 8
REMARK VINA RESULT:      -5.5      1.672      5.407
REMARK  Name = 
REMARK  6 active torsions:
REMARK  status: ('A' for Active; 'I' for Inactive)
REMARK    1  A    between atoms: C_1  and  O_2
REMARK    2  A    between atoms: O_2  and  C_3
REMARK    3  A    between atoms: C_3  and  C_5
REMARK    4  A    between atoms: C_5  and  C_6
REMARK    5  A    between atoms: C_6  and  C_7
REMARK    6  A    between atoms: C_10  and  O_11
REMARK                            x       y       z     vdW  Elec       q    Type
REMARK                         _______ _______ _______ _____ _____    ______ ____
ROOT
ATOM      1  C   UNL     1       3.981   5.060  17.979  0.00  0.00    +0.000 A 
ATOM      2  C   UNL     1       4.369   4.496  16.754  0.00  0.00    +0.000 A 
ATOM      3  C   UNL     1       5.716   4.252  16.479  0.00  0.00    +0.000 A 
ATOM      4  C   UNL     1       6.679   4.583  17.425  0.00  0.00    +0.000 A 
ATOM      5  C   UNL     1       6.316   5.158  18.636  0.00  0.00    +0.000 A 
ATOM      6  C   UNL     1       4.969   5.397  18.915  0.00  0.00    +0.000 A 
ENDROOT
BRANCH   4   7
ATOM      7  O   UNL     1       8.004   4.358  17.198  0.00  0.00    +0.000 OA
ATOM      8  H   UNL     1       8.091   3.554  16.659  0.00  0.00    +0.000 HD
ENDBRANCH   4   7
BRANCH   1   9
ATOM      9  C   UNL     1       2.526   5.329  18.279  0.00  0.00    +0.000 C 
BRANCH   9  10
ATOM     10  C   UNL     1       1.599   4.232  17.755  0.00  0.00    +0.000 C 
BRANCH  10  11
ATOM     11  C   UNL     1       1.480   3.118  18.762  0.00  0.00    +0.000 C 
ATOM     12  O   UNL     1       1.906   1.980  18.611  0.00  0.00    +0.000 OA
BRANCH  11  14
ATOM     13  C   UNL     1       1.308   2.970  21.085  0.00  0.00    +0.000 C 
ATOM     14  O   UNL     1       0.831   3.561  19.874  0.00  0.00    +0.000 OA
ENDBRANCH  11  14
ENDBRANCH  10  11
ENDBRANCH   9  10
ENDBRANCH   1   9
TORSDOF 5
ENDMDL
MODEL 9
REMARK VINA RESULT:      -5.5      1.288      2.295
REMARK  Name = 
REMARK  6 active torsions:
REMARK  status: ('A' for Active; 'I' for Inactive)
REMARK    1  A    between atoms: C_1  and  O_2
REMARK    2  A    between atoms: O_2  and  C_3
REMARK    3  A    between atoms: C_3  and  C_5
REMARK    4  A    between atoms: C_5  and  C_6
REMARK    5  A    between atoms: C_6  and  C_7
REMARK    6  A    between atoms: C_10  and  O_11
REMARK                            x       y       z     vdW  Elec       q    Type
REMARK                         _______ _______ _______ _____ _____    ______ ____
ROOT
ATOM      1  C   UNL     1       3.719   4.713  17.327  0.00  0.00    +0.000 A 
ATOM      2  C   UNL     1       2.429   4.973  17.813  0.00  0.00    +0.000 A 
ATOM      3  C   UNL     1       1.629   3.936  18.297  0.00  0.00    +0.000 A 
ATOM      4  C   UNL     1       2.115   2.635  18.286  0.00  0.00    +0.000 A 
ATOM      5  C   UNL     1       3.384   2.354  17.793  0.00  0.00    +0.000 A 
ATOM      6  C   UNL     1       4.186   3.391  17.313  0.00  0.00    +0.000 A 
ENDROOT
BRANCH   4   7
ATOM      7  O   UNL     1       1.369   1.594  18.753  0.00  0.00    +0.000 OA
ATOM      8  H   UNL     1       0.917   1.879  19.564  0.00  0.00    +0.000 HD
ENDBRANCH   4   7
BRANCH   1   9
ATOM      9  C   UNL     1       4.585   5.831  16.799  0.00  0.00    +0.000 C 
BRANCH   9  10
ATOM     10  C   UNL     1       5.747   6.175  17.731  0.00  0.00    +0.000 C 
BRANCH  10  11
ATOM     11  C   UNL     1       7.055   5.734  17.127  0.00  0.00    +0.000 C 
ATOM     12  O   UNL     1       7.407   5.942  15.973  0.00  0.00    +0.000 OA
BRANCH  11  14
ATOM     13  C   UNL     1       7.794   5.695  19.340  0.00  0.00    +0.000 C 
ATOM     14  O   UNL     1       7.797   5.069  18.056  0.00  0.00    +0.000 OA
ENDBRANCH  11  14
ENDBRANCH  10  11
ENDBRANCH   9  10
ENDBRANCH   1   9
TORSDOF 5
ENDMDL
