MODEL 1
REMARK VINA RESULT:      -7.8      0.000      0.000
REMARK  Name = 
REMARK  3 active torsions:
REMARK  status: ('A' for Active; 'I' for Inactive)
REMARK    1  A    between atoms: C_1  and  C_2
REMARK    2  A    between atoms: C_12  and  O_13
REMARK    3  A    between atoms: C_12  and  C_14
REMARK                            x       y       z     vdW  Elec       q    Type
REMARK                         _______ _______ _______ _____ _____    ______ ____
ROOT
ATOM      1  C   UNL     1       7.783   5.756  12.981  0.00  0.00    +0.000 C 
ATOM      2  C   UNL     1       7.009   4.891  13.931  0.00  0.00    +0.000 A 
ATOM      3  C   UNL     1       6.237   3.785  13.538  0.00  0.00    +0.000 A 
ATOM      4 CL   UNL     1       6.101   3.306  11.882  0.00  0.00    +0.000 Cl
ATOM      5  C   UNL     1       5.524   3.017  14.483  0.00  0.00    +0.000 A 
ATOM      6  C   UNL     1       5.556   3.330  15.845  0.00  0.00    +0.000 A 
ATOM      7  C   UNL     1       6.295   4.430  16.238  0.00  0.00    +0.000 A 
ATOM      8  C   UNL     1       7.008   5.177  15.292  0.00  0.00    +0.000 A 
ATOM      9  N   UNL     1       7.668   6.221  15.925  0.00  0.00    +0.000 N 
ATOM     10  C   UNL     1       7.422   6.240  17.295  0.00  0.00    +0.000 C 
ATOM     11  O   UNL     1       7.923   7.032  18.074  0.00  0.00    +0.000 OA
ATOM     12  C   UNL     1       6.455   5.045  17.611  0.00  0.00    +0.000 C 
ATOM     13  H   UNL     1       8.283   6.889  15.481  0.00  0.00    +0.000 HD
ENDROOT
BRANCH  12  14
ATOM     14  C   UNL     1       5.175   5.565  18.294  0.00  0.00    +0.000 C 
ATOM     15  C   UNL     1       3.904   5.679  17.399  0.00  0.00    +0.000 C 
ATOM     16  C   UNL     1       2.940   4.683  17.981  0.00  0.00    +0.000 A 
ATOM     17  C   UNL     1       1.676   4.332  17.532  0.00  0.00    +0.000 A 
ATOM     18  C   UNL     1       0.945   3.380  18.260  0.00  0.00    +0.000 A 
ATOM     19  C   UNL     1       1.475   2.787  19.419  0.00  0.00    +0.000 A 
ATOM     20  C   UNL     1       2.735   3.152  19.873  0.00  0.00    +0.000 A 
ATOM     21  C   UNL     1       3.429   4.103  19.141  0.00  0.00    +0.000 A 
ATOM     22  C   UNL     1       4.737   4.658  19.428  0.00  0.00    +0.000 C 
ATOM     23  O   UNL     1       5.326   4.412  20.471  0.00  0.00    +0.000 OA
ENDBRANCH  12  14
BRANCH  12  24
ATOM     24  O   UNL     1       7.164   4.152  18.465  0.00  0.00    +0.000 OA
ATOM     25  H   UNL     1       6.570   3.442  18.754  0.00  0.00    +0.000 HD
ENDBRANCH  12  24
TORSDOF 2
ENDMDL
MODEL 2
REMARK VINA RESULT:      -7.5      2.589      5.959
REMARK  Name = 
REMARK  3 active torsions:
REMARK  status: ('A' for Active; 'I' for Inactive)
REMARK    1  A    between atoms: C_1  and  C_2
REMARK    2  A    between atoms: C_12  and  O_13
REMARK    3  A    between atoms: C_12  and  C_14
REMARK                            x       y       z     vdW  Elec       q    Type
REMARK                         _______ _______ _______ _____ _____    ______ ____
ROOT
ATOM      1  C   UNL     1       2.544   4.121  21.179  0.00  0.00    +0.000 C 
ATOM      2  C   UNL     1       2.619   4.025  19.683  0.00  0.00    +0.000 A 
ATOM      3  C   UNL     1       1.686   3.333  18.892  0.00  0.00    +0.000 A 
ATOM      4 CL   UNL     1       0.333   2.507  19.583  0.00  0.00    +0.000 Cl
ATOM      5  C   UNL     1       1.820   3.272  17.488  0.00  0.00    +0.000 A 
ATOM      6  C   UNL     1       2.887   3.893  16.834  0.00  0.00    +0.000 A 
ATOM      7  C   UNL     1       3.821   4.557  17.606  0.00  0.00    +0.000 A 
ATOM      8  C   UNL     1       3.671   4.621  18.997  0.00  0.00    +0.000 A 
ATOM      9  N   UNL     1       4.725   5.337  19.547  0.00  0.00    +0.000 N 
ATOM     10  C   UNL     1       5.627   5.765  18.577  0.00  0.00    +0.000 C 
ATOM     11  O   UNL     1       6.610   6.449  18.805  0.00  0.00    +0.000 OA
ATOM     12  C   UNL     1       5.100   5.251  17.192  0.00  0.00    +0.000 C 
ATOM     13  H   UNL     1       4.841   5.564  20.525  0.00  0.00    +0.000 HD
ENDROOT
BRANCH  12  14
ATOM     14  C   UNL     1       6.172   4.381  16.505  0.00  0.00    +0.000 C 
ATOM     15  C   UNL     1       5.657   3.264  15.548  0.00  0.00    +0.000 C 
ATOM     16  C   UNL     1       6.156   3.669  14.190  0.00  0.00    +0.000 A 
ATOM     17  C   UNL     1       5.931   3.062  12.964  0.00  0.00    +0.000 A 
ATOM     18  C   UNL     1       6.526   3.617  11.819  0.00  0.00    +0.000 A 
ATOM     19  C   UNL     1       7.330   4.767  11.904  0.00  0.00    +0.000 A 
ATOM     20  C   UNL     1       7.564   5.364  13.135  0.00  0.00    +0.000 A 
ATOM     21  C   UNL     1       6.974   4.787  14.249  0.00  0.00    +0.000 A 
ATOM     22  C   UNL     1       7.092   5.211  15.631  0.00  0.00    +0.000 C 
ATOM     23  O   UNL     1       7.867   6.094  15.969  0.00  0.00    +0.000 OA
ENDBRANCH  12  14
BRANCH  12  24
ATOM     24  O   UNL     1       4.798   6.402  16.409  0.00  0.00    +0.000 OA
ATOM     25  H   UNL     1       5.619   6.772  16.048  0.00  0.00    +0.000 HD
ENDBRANCH  12  24
TORSDOF 2
ENDMDL
MODEL 3
REMARK VINA RESULT:      -6.7      8.748     10.264
REMARK  Name = 
REMARK  3 active torsions:
REMARK  status: ('A' for Active; 'I' for Inactive)
REMARK    1  A    between atoms: C_1  and  C_2
REMARK    2  A    between atoms: C_12  and  O_13
REMARK    3  A    between atoms: C_12  and  C_14
REMARK                            x       y       z     vdW  Elec       q    Type
REMARK                         _______ _______ _______ _____ _____    ______ ____
ROOT
ATOM      1  C   UNL     1       0.005  16.669  18.452  0.00  0.00    +0.000 C 
ATOM      2  C   UNL     1       0.697  15.413  18.890  0.00  0.00    +0.000 A 
ATOM      3  C   UNL     1       2.035  15.106  18.590  0.00  0.00    +0.000 A 
ATOM      4 CL   UNL     1       3.034  16.172  17.666  0.00  0.00    +0.000 Cl
ATOM      5  C   UNL     1       2.624  13.899  19.026  0.00  0.00    +0.000 A 
ATOM      6  C   UNL     1       1.897  12.963  19.767  0.00  0.00    +0.000 A 
ATOM      7  C   UNL     1       0.574  13.246  20.047  0.00  0.00    +0.000 A 
ATOM      8  C   UNL     1       0.005  14.452  19.620  0.00  0.00    +0.000 A 
ATOM      9  N   UNL     1      -1.323  14.508  20.020  0.00  0.00    +0.000 N 
ATOM     10  C   UNL     1      -1.710  13.359  20.704  0.00  0.00    +0.000 C 
ATOM     11  O   UNL     1      -2.813  13.187  21.195  0.00  0.00    +0.000 OA
ATOM     12  C   UNL     1      -0.465  12.405  20.755  0.00  0.00    +0.000 C 
ATOM     13  H   UNL     1      -1.954  15.283  19.875  0.00  0.00    +0.000 HD
ENDROOT
BRANCH  12  14
ATOM     14  C   UNL     1      -0.811  11.045  20.117  0.00  0.00    +0.000 C 
ATOM     15  C   UNL     1      -0.303  10.807  18.663  0.00  0.00    +0.000 C 
ATOM     16  C   UNL     1       0.683   9.679  18.787  0.00  0.00    +0.000 A 
ATOM     17  C   UNL     1       1.477   9.107  17.805  0.00  0.00    +0.000 A 
ATOM     18  C   UNL     1       2.316   8.038  18.157  0.00  0.00    +0.000 A 
ATOM     19  C   UNL     1       2.360   7.552  19.475  0.00  0.00    +0.000 A 
ATOM     20  C   UNL     1       1.552   8.118  20.453  0.00  0.00    +0.000 A 
ATOM     21  C   UNL     1       0.725   9.164  20.073  0.00  0.00    +0.000 A 
ATOM     22  C   UNL     1      -0.217   9.891  20.901  0.00  0.00    +0.000 C 
ATOM     23  O   UNL     1      -0.469   9.543  22.046  0.00  0.00    +0.000 OA
ENDBRANCH  12  14
BRANCH  12  24
ATOM     24  O   UNL     1      -0.114  12.253  22.128  0.00  0.00    +0.000 OA
ATOM     25  H   UNL     1      -0.759  12.721  22.679  0.00  0.00    +0.000 HD
ENDBRANCH  12  24
TORSDOF 2
ENDMDL
MODEL 4
REMARK VINA RESULT:      -6.4      9.330     11.055
REMARK  Name = 
REMARK  3 active torsions:
REMARK  status: ('A' for Active; 'I' for Inactive)
REMARK    1  A    between atoms: C_1  and  C_2
REMARK    2  A    between atoms: C_12  and  O_13
REMARK    3  A    between atoms: C_12  and  C_14
REMARK                            x       y       z     vdW  Elec       q    Type
REMARK                         _______ _______ _______ _____ _____    ______ ____
ROOT
ATOM      1  C   UNL     1      -2.787  10.017  15.724  0.00  0.00    +0.000 C 
ATOM      2  C   UNL     1      -2.713  10.659  17.078  0.00  0.00    +0.000 A 
ATOM      3  C   UNL     1      -3.769  11.373  17.669  0.00  0.00    +0.000 A 
ATOM      4 CL   UNL     1      -5.290  11.584  16.873  0.00  0.00    +0.000 Cl
ATOM      5  C   UNL     1      -3.631  11.962  18.944  0.00  0.00    +0.000 A 
ATOM      6  C   UNL     1      -2.437  11.862  19.663  0.00  0.00    +0.000 A 
ATOM      7  C   UNL     1      -1.385  11.182  19.080  0.00  0.00    +0.000 A 
ATOM      8  C   UNL     1      -1.539  10.591  17.820  0.00  0.00    +0.000 A 
ATOM      9  N   UNL     1      -0.355   9.968  17.450  0.00  0.00    +0.000 N 
ATOM     10  C   UNL     1       0.638  10.122  18.413  0.00  0.00    +0.000 C 
ATOM     11  O   UNL     1       1.751   9.629  18.340  0.00  0.00    +0.000 OA
ATOM     12  C   UNL     1       0.027  10.975  19.580  0.00  0.00    +0.000 C 
ATOM     13  H   UNL     1      -0.204   9.435  16.604  0.00  0.00    +0.000 HD
ENDROOT
BRANCH  12  14
ATOM     14  C   UNL     1       0.875  12.242  19.812  0.00  0.00    +0.000 C 
ATOM     15  C   UNL     1       0.915  13.278  18.648  0.00  0.00    +0.000 C 
ATOM     16  C   UNL     1       0.246  14.501  19.208  0.00  0.00    +0.000 A 
ATOM     17  C   UNL     1      -0.041  15.701  18.575  0.00  0.00    +0.000 A 
ATOM     18  C   UNL     1      -0.660  16.721  19.316  0.00  0.00    +0.000 A 
ATOM     19  C   UNL     1      -0.988  16.538  20.671  0.00  0.00    +0.000 A 
ATOM     20  C   UNL     1      -0.685  15.340  21.305  0.00  0.00    +0.000 A 
ATOM     21  C   UNL     1      -0.064  14.357  20.551  0.00  0.00    +0.000 A 
ATOM     22  C   UNL     1       0.370  13.045  20.994  0.00  0.00    +0.000 C 
ATOM     23  O   UNL     1       0.333  12.720  22.172  0.00  0.00    +0.000 OA
ENDBRANCH  12  14
BRANCH  12  24
ATOM     24  O   UNL     1       0.018  10.146  20.739  0.00  0.00    +0.000 OA
ATOM     25  H   UNL     1       0.920   9.847  20.929  0.00  0.00    +0.000 HD
ENDBRANCH  12  24
TORSDOF 2
ENDMDL
MODEL 5
REMARK VINA RESULT:      -6.4      9.511     12.479
REMARK  Name = 
REMARK  3 active torsions:
REMARK  status: ('A' for Active; 'I' for Inactive)
REMARK    1  A    between atoms: C_1  and  C_2
REMARK    2  A    between atoms: C_12  and  O_13
REMARK    3  A    between atoms: C_12  and  C_14
REMARK                            x       y       z     vdW  Elec       q    Type
REMARK                         _______ _______ _______ _____ _____    ______ ____
ROOT
ATOM      1  C   UNL     1       7.765  11.705  23.446  0.00  0.00    +0.000 C 
ATOM      2  C   UNL     1       8.649  12.705  22.760  0.00  0.00    +0.000 A 
ATOM      3  C   UNL     1       8.954  13.973  23.282  0.00  0.00    +0.000 A 
ATOM      4 CL   UNL     1       8.324  14.516  24.798  0.00  0.00    +0.000 Cl
ATOM      5  C   UNL     1       9.785  14.872  22.580  0.00  0.00    +0.000 A 
ATOM      6  C   UNL     1      10.332  14.535  21.338  0.00  0.00    +0.000 A 
ATOM      7  C   UNL     1      10.019  13.299  20.808  0.00  0.00    +0.000 A 
ATOM      8  C   UNL     1       9.203  12.411  21.519  0.00  0.00    +0.000 A 
ATOM      9  N   UNL     1       9.036  11.243  20.788  0.00  0.00    +0.000 N 
ATOM     10  C   UNL     1       9.702  11.294  19.566  0.00  0.00    +0.000 C 
ATOM     11  O   UNL     1       9.743  10.375  18.766  0.00  0.00    +0.000 OA
ATOM     12  C   UNL     1      10.399  12.696  19.473  0.00  0.00    +0.000 C 
ATOM     13  H   UNL     1       8.524  10.424  21.086  0.00  0.00    +0.000 HD
ENDROOT
BRANCH  12  14
ATOM     14  C   UNL     1       9.921  13.444  18.212  0.00  0.00    +0.000 C 
ATOM     15  C   UNL     1       8.703  14.401  18.387  0.00  0.00    +0.000 C 
ATOM     16  C   UNL     1       9.254  15.770  18.107  0.00  0.00    +0.000 A 
ATOM     17  C   UNL     1       8.613  16.997  18.182  0.00  0.00    +0.000 A 
ATOM     18  C   UNL     1       9.336  18.155  17.849  0.00  0.00    +0.000 A 
ATOM     19  C   UNL     1      10.682  18.081  17.451  0.00  0.00    +0.000 A 
ATOM     20  C   UNL     1      11.316  16.849  17.363  0.00  0.00    +0.000 A 
ATOM     21  C   UNL     1      10.574  15.724  17.686  0.00  0.00    +0.000 A 
ATOM     22  C   UNL     1      11.006  14.340  17.647  0.00  0.00    +0.000 C 
ATOM     23  O   UNL     1      12.088  14.017  17.180  0.00  0.00    +0.000 OA
ENDBRANCH  12  14
BRANCH  12  24
ATOM     24  O   UNL     1      11.803  12.460  19.426  0.00  0.00    +0.000 OA
ATOM     25  H   UNL     1      12.085  12.031  20.249  0.00  0.00    +0.000 HD
ENDBRANCH  12  24
TORSDOF 2
ENDMDL
MODEL 6
REMARK VINA RESULT:      -6.4      3.109      4.017
REMARK  Name = 
REMARK  3 active torsions:
REMARK  status: ('A' for Active; 'I' for Inactive)
REMARK    1  A    between atoms: C_1  and  C_2
REMARK    2  A    between atoms: C_12  and  O_13
REMARK    3  A    between atoms: C_12  and  C_14
REMARK                            x       y       z     vdW  Elec       q    Type
REMARK                         _______ _______ _______ _____ _____    ______ ____
ROOT
ATOM      1  C   UNL     1       8.605   5.643  19.705  0.00  0.00    +0.000 C 
ATOM      2  C   UNL     1       7.643   6.180  18.687  0.00  0.00    +0.000 A 
ATOM      3  C   UNL     1       7.686   7.488  18.177  0.00  0.00    +0.000 A 
ATOM      4 CL   UNL     1       8.882   8.629  18.683  0.00  0.00    +0.000 Cl
ATOM      5  C   UNL     1       6.742   7.934  17.226  0.00  0.00    +0.000 A 
ATOM      6  C   UNL     1       5.727   7.093  16.763  0.00  0.00    +0.000 A 
ATOM      7  C   UNL     1       5.662   5.812  17.277  0.00  0.00    +0.000 A 
ATOM      8  C   UNL     1       6.612   5.377  18.210  0.00  0.00    +0.000 A 
ATOM      9  N   UNL     1       6.341   4.065  18.573  0.00  0.00    +0.000 N 
ATOM     10  C   UNL     1       5.210   3.570  17.931  0.00  0.00    +0.000 C 
ATOM     11  O   UNL     1       4.794   2.429  18.050  0.00  0.00    +0.000 OA
ATOM     12  C   UNL     1       4.648   4.719  17.023  0.00  0.00    +0.000 C 
ATOM     13  H   UNL     1       6.893   3.498  19.202  0.00  0.00    +0.000 HD
ENDROOT
BRANCH  12  14
ATOM     14  C   UNL     1       3.185   5.027  17.400  0.00  0.00    +0.000 C 
ATOM     15  C   UNL     1       2.153   3.879  17.186  0.00  0.00    +0.000 C 
ATOM     16  C   UNL     1       1.676   3.535  18.568  0.00  0.00    +0.000 A 
ATOM     17  C   UNL     1       0.796   2.539  18.962  0.00  0.00    +0.000 A 
ATOM     18  C   UNL     1       0.480   2.420  20.325  0.00  0.00    +0.000 A 
ATOM     19  C   UNL     1       1.042   3.286  21.279  0.00  0.00    +0.000 A 
ATOM     20  C   UNL     1       1.912   4.292  20.879  0.00  0.00    +0.000 A 
ATOM     21  C   UNL     1       2.196   4.393  19.526  0.00  0.00    +0.000 A 
ATOM     22  C   UNL     1       3.046   5.368  18.871  0.00  0.00    +0.000 C 
ATOM     23  O   UNL     1       3.518   6.319  19.477  0.00  0.00    +0.000 OA
ENDBRANCH  12  14
BRANCH  12  24
ATOM     24  O   UNL     1       4.745   4.269  15.675  0.00  0.00    +0.000 OA
ATOM     25  H   UNL     1       5.653   4.391  15.358  0.00  0.00    +0.000 HD
ENDBRANCH  12  24
TORSDOF 2
ENDMDL
MODEL 7
REMARK VINA RESULT:      -6.1     11.462     13.505
REMARK  Name = 
REMARK  3 active torsions:
REMARK  status: ('A' for Active; 'I' for Inactive)
REMARK    1  A    between atoms: C_1  and  C_2
REMARK    2  A    between atoms: C_12  and  O_13
REMARK    3  A    between atoms: C_12  and  C_14
REMARK                            x       y       z     vdW  Elec       q    Type
REMARK                         _______ _______ _______ _____ _____    ______ ____
ROOT
ATOM      1  C   UNL     1      -7.400  12.372  22.745  0.00  0.00    +0.000 C 
ATOM      2  C   UNL     1      -6.131  12.600  21.978  0.00  0.00    +0.000 A 
ATOM      3  C   UNL     1      -5.956  12.257  20.627  0.00  0.00    +0.000 A 
ATOM      4 CL   UNL     1      -7.216  11.524  19.697  0.00  0.00    +0.000 Cl
ATOM      5  C   UNL     1      -4.731  12.490  19.966  0.00  0.00    +0.000 A 
ATOM      6  C   UNL     1      -3.645  13.064  20.633  0.00  0.00    +0.000 A 
ATOM      7  C   UNL     1      -3.801  13.383  21.968  0.00  0.00    +0.000 A 
ATOM      8  C   UNL     1      -5.025  13.159  22.609  0.00  0.00    +0.000 A 
ATOM      9  N   UNL     1      -4.937  13.558  23.935  0.00  0.00    +0.000 N 
ATOM     10  C   UNL     1      -3.670  14.043  24.251  0.00  0.00    +0.000 C 
ATOM     11  O   UNL     1      -3.357  14.495  25.339  0.00  0.00    +0.000 OA
ATOM     12  C   UNL     1      -2.796  13.940  22.952  0.00  0.00    +0.000 C 
ATOM     13  H   UNL     1      -5.688  13.541  24.612  0.00  0.00    +0.000 HD
ENDROOT
BRANCH  12  14
ATOM     14  C   UNL     1      -1.541  13.086  23.223  0.00  0.00    +0.000 C 
ATOM     15  C   UNL     1      -1.694  11.545  23.043  0.00  0.00    +0.000 C 
ATOM     16  C   UNL     1      -0.788  11.206  21.893  0.00  0.00    +0.000 A 
ATOM     17  C   UNL     1      -0.589   9.982  21.275  0.00  0.00    +0.000 A 
ATOM     18  C   UNL     1       0.335   9.903  20.220  0.00  0.00    +0.000 A 
ATOM     19  C   UNL     1       1.045  11.038  19.790  0.00  0.00    +0.000 A 
ATOM     20  C   UNL     1       0.852  12.260  20.421  0.00  0.00    +0.000 A 
ATOM     21  C   UNL     1      -0.056  12.304  21.467  0.00  0.00    +0.000 A 
ATOM     22  C   UNL     1      -0.404  13.448  22.288  0.00  0.00    +0.000 C 
ATOM     23  O   UNL     1       0.200  14.507  22.204  0.00  0.00    +0.000 OA
ENDBRANCH  12  14
BRANCH  12  24
ATOM     24  O   UNL     1      -2.440  15.270  22.585  0.00  0.00    +0.000 OA
ATOM     25  H   UNL     1      -2.089  15.271  21.681  0.00  0.00    +0.000 HD
ENDBRANCH  12  24
TORSDOF 2
ENDMDL
MODEL 8
REMARK VINA RESULT:      -6.1      9.463     11.908
REMARK  Name = 
REMARK  3 active torsions:
REMARK  status: ('A' for Active; 'I' for Inactive)
REMARK    1  A    between atoms: C_1  and  C_2
REMARK    2  A    between atoms: C_12  and  O_13
REMARK    3  A    between atoms: C_12  and  C_14
REMARK                            x       y       z     vdW  Elec       q    Type
REMARK                         _______ _______ _______ _____ _____    ______ ____
ROOT
ATOM      1  C   UNL     1       4.425  16.734  20.668  0.00  0.00    +0.000 C 
ATOM      2  C   UNL     1       5.319  16.088  19.651  0.00  0.00    +0.000 A 
ATOM      3  C   UNL     1       4.892  15.110  18.737  0.00  0.00    +0.000 A 
ATOM      4 CL   UNL     1       3.258  14.545  18.697  0.00  0.00    +0.000 Cl
ATOM      5  C   UNL     1       5.788  14.534  17.811  0.00  0.00    +0.000 A 
ATOM      6  C   UNL     1       7.133  14.911  17.772  0.00  0.00    +0.000 A 
ATOM      7  C   UNL     1       7.567  15.855  18.683  0.00  0.00    +0.000 A 
ATOM      8  C   UNL     1       6.666  16.429  19.588  0.00  0.00    +0.000 A 
ATOM      9  N   UNL     1       7.332  17.344  20.392  0.00  0.00    +0.000 N 
ATOM     10  C   UNL     1       8.688  17.416  20.086  0.00  0.00    +0.000 C 
ATOM     11  O   UNL     1       9.475  18.179  20.621  0.00  0.00    +0.000 OA
ATOM     12  C   UNL     1       8.958  16.399  18.923  0.00  0.00    +0.000 C 
ATOM     13  H   UNL     1       6.910  17.926  21.103  0.00  0.00    +0.000 HD
ENDROOT
BRANCH  12  14
ATOM     14  C   UNL     1      10.037  15.382  19.347  0.00  0.00    +0.000 C 
ATOM     15  C   UNL     1       9.677  14.435  20.532  0.00  0.00    +0.000 C 
ATOM     16  C   UNL     1       9.654  13.061  19.924  0.00  0.00    +0.000 A 
ATOM     17  C   UNL     1       9.328  11.853  20.520  0.00  0.00    +0.000 A 
ATOM     18  C   UNL     1       9.399  10.681  19.748  0.00  0.00    +0.000 A 
ATOM     19  C   UNL     1       9.788  10.724  18.398  0.00  0.00    +0.000 A 
ATOM     20  C   UNL     1      10.127  11.934  17.809  0.00  0.00    +0.000 A 
ATOM     21  C   UNL     1      10.059  13.072  18.598  0.00  0.00    +0.000 A 
ATOM     22  C   UNL     1      10.386  14.432  18.218  0.00  0.00    +0.000 C 
ATOM     23  O   UNL     1      10.898  14.693  17.139  0.00  0.00    +0.000 OA
ENDBRANCH  12  14
BRANCH  12  24
ATOM     24  O   UNL     1       9.385  17.159  17.796  0.00  0.00    +0.000 OA
ATOM     25  H   UNL     1       8.697  17.800  17.560  0.00  0.00    +0.000 HD
ENDBRANCH  12  24
TORSDOF 2
ENDMDL
MODEL 9
REMARK VINA RESULT:      -6.0      8.838     10.719
REMARK  Name = 
REMARK  3 active torsions:
REMARK  status: ('A' for Active; 'I' for Inactive)
REMARK    1  A    between atoms: C_1  and  C_2
REMARK    2  A    between atoms: C_12  and  O_13
REMARK    3  A    between atoms: C_12  and  C_14
REMARK                            x       y       z     vdW  Elec       q    Type
REMARK                         _______ _______ _______ _____ _____    ______ ____
ROOT
ATOM      1  C   UNL     1       1.127   7.791  21.111  0.00  0.00    +0.000 C 
ATOM      2  C   UNL     1       1.123   9.003  20.227  0.00  0.00    +0.000 A 
ATOM      3  C   UNL     1       1.638   9.025  18.920  0.00  0.00    +0.000 A 
ATOM      4 CL   UNL     1       2.341   7.625  18.188  0.00  0.00    +0.000 Cl
ATOM      5  C   UNL     1       1.613  10.204  18.144  0.00  0.00    +0.000 A 
ATOM      6  C   UNL     1       1.080  11.394  18.648  0.00  0.00    +0.000 A 
ATOM      7  C   UNL     1       0.593  11.387  19.941  0.00  0.00    +0.000 A 
ATOM      8  C   UNL     1       0.612  10.208  20.697  0.00  0.00    +0.000 A 
ATOM      9  N   UNL     1       0.071  10.451  21.952  0.00  0.00    +0.000 N 
ATOM     10  C   UNL     1      -0.313  11.780  22.106  0.00  0.00    +0.000 C 
ATOM     11  O   UNL     1      -0.855  12.229  23.102  0.00  0.00    +0.000 OA
ATOM     12  C   UNL     1       0.031  12.523  20.768  0.00  0.00    +0.000 C 
ATOM     13  H   UNL     1      -0.069   9.764  22.680  0.00  0.00    +0.000 HD
ENDROOT
BRANCH  12  14
ATOM     14  C   UNL     1       0.974  13.711  21.047  0.00  0.00    +0.000 C 
ATOM     15  C   UNL     1       2.485  13.491  20.737  0.00  0.00    +0.000 C 
ATOM     16  C   UNL     1       2.786  14.452  19.622  0.00  0.00    +0.000 A 
ATOM     17  C   UNL     1       3.970  14.628  18.922  0.00  0.00    +0.000 A 
ATOM     18  C   UNL     1       4.021  15.614  17.923  0.00  0.00    +0.000 A 
ATOM     19  C   UNL     1       2.899  16.408  17.629  0.00  0.00    +0.000 A 
ATOM     20  C   UNL     1       1.720  16.238  18.342  0.00  0.00    +0.000 A 
ATOM     21  C   UNL     1       1.703  15.266  19.330  0.00  0.00    +0.000 A 
ATOM     22  C   UNL     1       0.607  14.924  20.216  0.00  0.00    +0.000 C 
ATOM     23  O   UNL     1      -0.420  15.587  20.254  0.00  0.00    +0.000 OA
ENDBRANCH  12  14
BRANCH  12  24
ATOM     24  O   UNL     1      -1.202  12.968  20.210  0.00  0.00    +0.000 OA
ATOM     25  H   UNL     1      -1.939  12.605  20.726  0.00  0.00    +0.000 HD
ENDBRANCH  12  24
TORSDOF 2
ENDMDL
