MODEL 1
REMARK VINA RESULT:      -8.1      0.000      0.000
REMARK  Name = 
REMARK  5 active torsions:
REMARK  status: ('A' for Active; 'I' for Inactive)
REMARK    1  A    between atoms: C_2  and  O_3
REMARK    2  A    between atoms: C_2  and  C_4
REMARK    3  A    between atoms: C_4  and  C_5
REMARK    4  A    between atoms: C_5  and  C_6
REMARK    5  A    between atoms: C_11  and  C_12
REMARK                            x       y       z     vdW  Elec       q    Type
REMARK                         _______ _______ _______ _____ _____    ______ ____
ROOT
ATOM      1  C   UNL     1       4.309   4.530  17.702  0.00  0.00    +0.000 A 
ATOM      2  C   UNL     1       3.966   3.776  18.830  0.00  0.00    +0.000 A 
ATOM      3  C   UNL     1       3.164   4.308  19.852  0.00  0.00    +0.000 A 
ATOM      4  C   UNL     1       2.730   5.631  19.712  0.00  0.00    +0.000 A 
ATOM      5  N   UNL     1       1.968   6.422  20.544  0.00  0.00    +0.000 N 
ATOM      6  C   UNL     1       1.775   7.676  19.999  0.00  0.00    +0.000 A 
ATOM      7  C   UNL     1       2.433   7.667  18.781  0.00  0.00    +0.000 A 
ATOM      8  C   UNL     1       3.031   6.397  18.594  0.00  0.00    +0.000 A 
ATOM      9  C   UNL     1       3.808   5.835  17.567  0.00  0.00    +0.000 A 
ATOM     10  H   UNL     1       1.584   6.116  21.427  0.00  0.00    +0.000 HD
ENDROOT
BRANCH   6  11
ATOM     11  C   UNL     1       1.018   8.764  20.637  0.00  0.00    +0.000 A 
ATOM     12  C   UNL     1       0.997   8.807  22.046  0.00  0.00    +0.000 A 
ATOM     13  C   UNL     1       0.368   9.846  22.735  0.00  0.00    +0.000 A 
ATOM     14  C   UNL     1      -0.259  10.861  22.022  0.00  0.00    +0.000 A 
ATOM     15 CL   UNL     1      -1.007  12.158  22.866  0.00  0.00    +0.000 Cl
ATOM     16  C   UNL     1      -0.278  10.834  20.631  0.00  0.00    +0.000 A 
ATOM     17  C   UNL     1       0.353   9.791  19.939  0.00  0.00    +0.000 A 
ATOM     18 CL   UNL     1       0.291   9.870  18.210  0.00  0.00    +0.000 Cl
ENDBRANCH   6  11
BRANCH   1  19
ATOM     19  C   UNL     1       5.224   3.971  16.636  0.00  0.00    +0.000 C 
BRANCH  19  20
ATOM     20  C   UNL     1       5.603   5.049  15.617  0.00  0.00    +0.000 C 
BRANCH  20  22
ATOM     21  O   UNL     1       7.608   5.515  14.331  0.00  0.00    +0.000 OA
ATOM     22  C   UNL     1       7.082   5.065  15.337  0.00  0.00    +0.000 C 
BRANCH  22  23
ATOM     23  O   UNL     1       7.798   4.516  16.346  0.00  0.00    +0.000 OA
ATOM     24  H   UNL     1       7.701   3.547  16.416  0.00  0.00    +0.000 HD
ENDBRANCH  22  23
ENDBRANCH  20  22
ENDBRANCH  19  20
ENDBRANCH   1  19
TORSDOF 5
ENDMDL
MODEL 2
REMARK VINA RESULT:      -7.8      1.015      1.413
REMARK  Name = 
REMARK  5 active torsions:
REMARK  status: ('A' for Active; 'I' for Inactive)
REMARK    1  A    between atoms: C_2  and  O_3
REMARK    2  A    between atoms: C_2  and  C_4
REMARK    3  A    between atoms: C_4  and  C_5
REMARK    4  A    between atoms: C_5  and  C_6
REMARK    5  A    between atoms: C_11  and  C_12
REMARK                            x       y       z     vdW  Elec       q    Type
REMARK                         _______ _______ _______ _____ _____    ______ ____
ROOT
ATOM      1  C   UNL     1       4.080   6.068  17.484  0.00  0.00    +0.000 A 
ATOM      2  C   UNL     1       4.009   5.234  18.607  0.00  0.00    +0.000 A 
ATOM      3  C   UNL     1       3.232   5.574  19.725  0.00  0.00    +0.000 A 
ATOM      4  C   UNL     1       2.538   6.790  19.687  0.00  0.00    +0.000 A 
ATOM      5  N   UNL     1       1.731   7.395  20.624  0.00  0.00    +0.000 N 
ATOM      6  C   UNL     1       1.244   8.600  20.158  0.00  0.00    +0.000 A 
ATOM      7  C   UNL     1       1.760   8.750  18.881  0.00  0.00    +0.000 A 
ATOM      8  C   UNL     1       2.568   7.626  18.580  0.00  0.00    +0.000 A 
ATOM      9  C   UNL     1       3.325   7.253  17.458  0.00  0.00    +0.000 A 
ATOM     10  H   UNL     1       1.508   6.999  21.527  0.00  0.00    +0.000 HD
ENDROOT
BRANCH   6  11
ATOM     11  C   UNL     1       0.363   9.503  20.914  0.00  0.00    +0.000 A 
ATOM     12  C   UNL     1       0.187   9.244  22.289  0.00  0.00    +0.000 A 
ATOM     13  C   UNL     1      -0.569  10.092  23.100  0.00  0.00    +0.000 A 
ATOM     14  C   UNL     1      -1.171  11.215  22.546  0.00  0.00    +0.000 A 
ATOM     15 CL   UNL     1      -2.077  12.279  23.548  0.00  0.00    +0.000 Cl
ATOM     16  C   UNL     1      -1.038  11.485  21.187  0.00  0.00    +0.000 A 
ATOM     17  C   UNL     1      -0.278  10.634  20.373  0.00  0.00    +0.000 A 
ATOM     18 CL   UNL     1      -0.156  11.078  18.703  0.00  0.00    +0.000 Cl
ENDBRANCH   6  11
BRANCH   1  19
ATOM     19  C   UNL     1       4.968   5.726  16.310  0.00  0.00    +0.000 C 
BRANCH  19  20
ATOM     20  C   UNL     1       5.775   4.454  16.584  0.00  0.00    +0.000 C 
BRANCH  20  22
ATOM     21  O   UNL     1       8.110   4.205  17.197  0.00  0.00    +0.000 OA
ATOM     22  C   UNL     1       7.257   4.692  16.473  0.00  0.00    +0.000 C 
BRANCH  22  23
ATOM     23  O   UNL     1       7.564   5.525  15.450  0.00  0.00    +0.000 OA
ATOM     24  H   UNL     1       7.361   5.159  14.569  0.00  0.00    +0.000 HD
ENDBRANCH  22  23
ENDBRANCH  20  22
ENDBRANCH  19  20
ENDBRANCH   1  19
TORSDOF 5
ENDMDL
MODEL 3
REMARK VINA RESULT:      -7.7      1.038      1.237
REMARK  Name = 
REMARK  5 active torsions:
REMARK  status: ('A' for Active; 'I' for Inactive)
REMARK    1  A    between atoms: C_2  and  O_3
REMARK    2  A    between atoms: C_2  and  C_4
REMARK    3  A    between atoms: C_4  and  C_5
REMARK    4  A    between atoms: C_5  and  C_6
REMARK    5  A    between atoms: C_11  and  C_12
REMARK                            x       y       z     vdW  Elec       q    Type
REMARK                         _______ _______ _______ _____ _____    ______ ____
ROOT
ATOM      1  C   UNL     1       4.464   5.044  17.510  0.00  0.00    +0.000 A 
ATOM      2  C   UNL     1       4.243   4.232  18.629  0.00  0.00    +0.000 A 
ATOM      3  C   UNL     1       3.432   4.656  19.694  0.00  0.00    +0.000 A 
ATOM      4  C   UNL     1       2.863   5.932  19.606  0.00  0.00    +0.000 A 
ATOM      5  N   UNL     1       2.060   6.622  20.487  0.00  0.00    +0.000 N 
ATOM      6  C   UNL     1       1.721   7.863  19.985  0.00  0.00    +0.000 A 
ATOM      7  C   UNL     1       2.329   7.949  18.743  0.00  0.00    +0.000 A 
ATOM      8  C   UNL     1       3.042   6.751  18.500  0.00  0.00    +0.000 A 
ATOM      9  C   UNL     1       3.830   6.295  17.430  0.00  0.00    +0.000 A 
ATOM     10  H   UNL     1       1.743   6.258  21.375  0.00  0.00    +0.000 HD
ENDROOT
BRANCH   6  11
ATOM     11  C   UNL     1       0.885   8.854  20.680  0.00  0.00    +0.000 A 
ATOM     12  C   UNL     1       0.863   8.816  22.089  0.00  0.00    +0.000 A 
ATOM     13  C   UNL     1       0.158   9.765  22.833  0.00  0.00    +0.000 A 
ATOM     14  C   UNL     1      -0.544  10.768  22.176  0.00  0.00    +0.000 A 
ATOM     15 CL   UNL     1      -1.387  11.956  23.089  0.00  0.00    +0.000 Cl
ATOM     16  C   UNL     1      -0.563  10.818  20.786  0.00  0.00    +0.000 A 
ATOM     17  C   UNL     1       0.144   9.866  20.039  0.00  0.00    +0.000 A 
ATOM     18 CL   UNL     1       0.075  10.036  18.316  0.00  0.00    +0.000 Cl
ENDBRANCH   6  11
BRANCH   1  19
ATOM     19  C   UNL     1       5.388   4.606  16.396  0.00  0.00    +0.000 C 
BRANCH  19  20
ATOM     20  C   UNL     1       6.641   5.484  16.344  0.00  0.00    +0.000 C 
BRANCH  20  22
ATOM     21  O   UNL     1       7.916   4.415  18.110  0.00  0.00    +0.000 OA
ATOM     22  C   UNL     1       7.426   5.422  17.627  0.00  0.00    +0.000 C 
BRANCH  22  23
ATOM     23  O   UNL     1       7.543   6.638  18.212  0.00  0.00    +0.000 OA
ATOM     24  H   UNL     1       8.447   6.843  18.518  0.00  0.00    +0.000 HD
ENDBRANCH  22  23
ENDBRANCH  20  22
ENDBRANCH  19  20
ENDBRANCH   1  19
TORSDOF 5
ENDMDL
MODEL 4
REMARK VINA RESULT:      -7.6      6.305      7.474
REMARK  Name = 
REMARK  5 active torsions:
REMARK  status: ('A' for Active; 'I' for Inactive)
REMARK    1  A    between atoms: C_2  and  O_3
REMARK    2  A    between atoms: C_2  and  C_4
REMARK    3  A    between atoms: C_4  and  C_5
REMARK    4  A    between atoms: C_5  and  C_6
REMARK    5  A    between atoms: C_11  and  C_12
REMARK                            x       y       z     vdW  Elec       q    Type
REMARK                         _______ _______ _______ _____ _____    ______ ____
ROOT
ATOM      1  C   UNL     1       6.341   5.906  17.266  0.00  0.00    +0.000 A 
ATOM      2  C   UNL     1       7.069   5.341  18.320  0.00  0.00    +0.000 A 
ATOM      3  C   UNL     1       7.998   6.093  19.057  0.00  0.00    +0.000 A 
ATOM      4  C   UNL     1       8.185   7.430  18.690  0.00  0.00    +0.000 A 
ATOM      5  N   UNL     1       9.028   8.394  19.197  0.00  0.00    +0.000 N 
ATOM      6  C   UNL     1       8.876   9.592  18.528  0.00  0.00    +0.000 A 
ATOM      7  C   UNL     1       7.897   9.371  17.573  0.00  0.00    +0.000 A 
ATOM      8  C   UNL     1       7.462   8.027  17.667  0.00  0.00    +0.000 A 
ATOM      9  C   UNL     1       6.513   7.267  16.963  0.00  0.00    +0.000 A 
ATOM     10  H   UNL     1       9.661   8.247  19.972  0.00  0.00    +0.000 HD
ENDROOT
BRANCH   6  11
ATOM     11  C   UNL     1       9.634  10.819  18.813  0.00  0.00    +0.000 A 
ATOM     12  C   UNL     1      10.386  11.382  17.762  0.00  0.00    +0.000 A 
ATOM     13  C   UNL     1      11.075  12.586  17.920  0.00  0.00    +0.000 A 
ATOM     14  C   UNL     1      11.029  13.247  19.142  0.00  0.00    +0.000 A 
ATOM     15 CL   UNL     1      11.850  14.745  19.332  0.00  0.00    +0.000 Cl
ATOM     16  C   UNL     1      10.317  12.705  20.208  0.00  0.00    +0.000 A 
ATOM     17  C   UNL     1       9.625  11.496  20.049  0.00  0.00    +0.000 A 
ATOM     18 CL   UNL     1       8.751  10.925  21.431  0.00  0.00    +0.000 Cl
ENDBRANCH   6  11
BRANCH   1  19
ATOM     19  C   UNL     1       5.389   5.074  16.438  0.00  0.00    +0.000 C 
BRANCH  19  20
ATOM     20  C   UNL     1       6.136   3.966  15.690  0.00  0.00    +0.000 C 
BRANCH  20  22
ATOM     21  O   UNL     1       7.646   5.277  14.314  0.00  0.00    +0.000 OA
ATOM     22  C   UNL     1       6.740   4.463  14.403  0.00  0.00    +0.000 C 
BRANCH  22  23
ATOM     23  O   UNL     1       6.164   3.897  13.317  0.00  0.00    +0.000 OA
ATOM     24  H   UNL     1       6.688   3.172  12.926  0.00  0.00    +0.000 HD
ENDBRANCH  22  23
ENDBRANCH  20  22
ENDBRANCH  19  20
ENDBRANCH   1  19
TORSDOF 5
ENDMDL
MODEL 5
REMARK VINA RESULT:      -7.6      5.179      8.838
REMARK  Name = 
REMARK  5 active torsions:
REMARK  status: ('A' for Active; 'I' for Inactive)
REMARK    1  A    between atoms: C_2  and  O_3
REMARK    2  A    between atoms: C_2  and  C_4
REMARK    3  A    between atoms: C_4  and  C_5
REMARK    4  A    between atoms: C_5  and  C_6
REMARK    5  A    between atoms: C_11  and  C_12
REMARK                            x       y       z     vdW  Elec       q    Type
REMARK                         _______ _______ _______ _____ _____    ______ ____
ROOT
ATOM      1  C   UNL     1      -0.095  10.035  21.699  0.00  0.00    +0.000 A 
ATOM      2  C   UNL     1      -0.142  10.833  20.550  0.00  0.00    +0.000 A 
ATOM      3  C   UNL     1       0.483  10.438  19.356  0.00  0.00    +0.000 A 
ATOM      4  C   UNL     1       1.172   9.219  19.359  0.00  0.00    +0.000 A 
ATOM      5  N   UNL     1       1.892   8.590  18.368  0.00  0.00    +0.000 N 
ATOM      6  C   UNL     1       2.404   7.387  18.811  0.00  0.00    +0.000 A 
ATOM      7  C   UNL     1       1.984   7.256  20.125  0.00  0.00    +0.000 A 
ATOM      8  C   UNL     1       1.217   8.394  20.473  0.00  0.00    +0.000 A 
ATOM      9  C   UNL     1       0.557   8.792  21.648  0.00  0.00    +0.000 A 
ATOM     10  H   UNL     1       2.011   8.952  17.431  0.00  0.00    +0.000 HD
ENDROOT
BRANCH   6  11
ATOM     11  C   UNL     1       3.229   6.474  18.006  0.00  0.00    +0.000 A 
ATOM     12  C   UNL     1       4.363   7.013  17.364  0.00  0.00    +0.000 A 
ATOM     13  C   UNL     1       5.246   6.206  16.642  0.00  0.00    +0.000 A 
ATOM     14  C   UNL     1       5.002   4.841  16.544  0.00  0.00    +0.000 A 
ATOM     15 CL   UNL     1       6.103   3.839  15.683  0.00  0.00    +0.000 Cl
ATOM     16  C   UNL     1       3.878   4.282  17.144  0.00  0.00    +0.000 A 
ATOM     17  C   UNL     1       2.993   5.092  17.869  0.00  0.00    +0.000 A 
ATOM     18 CL   UNL     1       1.641   4.290  18.596  0.00  0.00    +0.000 Cl
ENDBRANCH   6  11
BRANCH   1  19
ATOM     19  C   UNL     1      -0.717  10.497  22.998  0.00  0.00    +0.000 C 
BRANCH  19  20
ATOM     20  C   UNL     1      -1.151  11.962  22.908  0.00  0.00    +0.000 C 
BRANCH  20  22
ATOM     21  O   UNL     1      -3.394  11.832  23.826  0.00  0.00    +0.000 OA
ATOM     22  C   UNL     1      -2.649  12.106  22.898  0.00  0.00    +0.000 C 
BRANCH  22  23
ATOM     23  O   UNL     1      -3.106  12.592  21.720  0.00  0.00    +0.000 OA
ATOM     24  H   UNL     1      -2.847  13.517  21.548  0.00  0.00    +0.000 HD
ENDBRANCH  22  23
ENDBRANCH  20  22
ENDBRANCH  19  20
ENDBRANCH   1  19
TORSDOF 5
ENDMDL
MODEL 6
REMARK VINA RESULT:      -7.6      5.297      8.787
REMARK  Name = 
REMARK  5 active torsions:
REMARK  status: ('A' for Active; 'I' for Inactive)
REMARK    1  A    between atoms: C_2  and  O_3
REMARK    2  A    between atoms: C_2  and  C_4
REMARK    3  A    between atoms: C_4  and  C_5
REMARK    4  A    between atoms: C_5  and  C_6
REMARK    5  A    between atoms: C_11  and  C_12
REMARK                            x       y       z     vdW  Elec       q    Type
REMARK                         _______ _______ _______ _____ _____    ______ ____
ROOT
ATOM      1  C   UNL     1      -0.066  10.450  20.984  0.00  0.00    +0.000 A 
ATOM      2  C   UNL     1       0.278   9.616  22.054  0.00  0.00    +0.000 A 
ATOM      3  C   UNL     1       1.097   8.490  21.874  0.00  0.00    +0.000 A 
ATOM      4  C   UNL     1       1.549   8.219  20.577  0.00  0.00    +0.000 A 
ATOM      5  N   UNL     1       2.329   7.193  20.091  0.00  0.00    +0.000 N 
ATOM      6  C   UNL     1       2.534   7.324  18.732  0.00  0.00    +0.000 A 
ATOM      7  C   UNL     1       1.864   8.476  18.356  0.00  0.00    +0.000 A 
ATOM      8  C   UNL     1       1.247   9.039  19.499  0.00  0.00    +0.000 A 
ATOM      9  C   UNL     1       0.453  10.180  19.706  0.00  0.00    +0.000 A 
ATOM     10  H   UNL     1       2.718   6.453  20.660  0.00  0.00    +0.000 HD
ENDROOT
BRANCH   6  11
ATOM     11  C   UNL     1       3.312   6.390  17.904  0.00  0.00    +0.000 A 
ATOM     12  C   UNL     1       4.464   6.890  17.263  0.00  0.00    +0.000 A 
ATOM     13  C   UNL     1       5.304   6.058  16.519  0.00  0.00    +0.000 A 
ATOM     14  C   UNL     1       4.999   4.708  16.398  0.00  0.00    +0.000 A 
ATOM     15 CL   UNL     1       6.047   3.674  15.509  0.00  0.00    +0.000 Cl
ATOM     16  C   UNL     1       3.856   4.188  16.997  0.00  0.00    +0.000 A 
ATOM     17  C   UNL     1       3.013   5.023  17.744  0.00  0.00    +0.000 A 
ATOM     18 CL   UNL     1       1.633   4.268  18.469  0.00  0.00    +0.000 Cl
ENDBRANCH   6  11
BRANCH   1  19
ATOM     19  C   UNL     1      -0.999  11.624  21.175  0.00  0.00    +0.000 C 
BRANCH  19  20
ATOM     20  C   UNL     1      -1.396  11.776  22.645  0.00  0.00    +0.000 C 
BRANCH  20  22
ATOM     21  O   UNL     1      -3.259  13.228  22.087  0.00  0.00    +0.000 OA
ATOM     22  C   UNL     1      -2.773  12.363  22.799  0.00  0.00    +0.000 C 
BRANCH  22  23
ATOM     23  O   UNL     1      -3.448  11.816  23.838  0.00  0.00    +0.000 OA
ATOM     24  H   UNL     1      -4.277  11.371  23.579  0.00  0.00    +0.000 HD
ENDBRANCH  22  23
ENDBRANCH  20  22
ENDBRANCH  19  20
ENDBRANCH   1  19
TORSDOF 5
ENDMDL
MODEL 7
REMARK VINA RESULT:      -7.4      1.524      1.972
REMARK  Name = 
REMARK  5 active torsions:
REMARK  status: ('A' for Active; 'I' for Inactive)
REMARK    1  A    between atoms: C_2  and  O_3
REMARK    2  A    between atoms: C_2  and  C_4
REMARK    3  A    between atoms: C_4  and  C_5
REMARK    4  A    between atoms: C_5  and  C_6
REMARK    5  A    between atoms: C_11  and  C_12
REMARK                            x       y       z     vdW  Elec       q    Type
REMARK                         _______ _______ _______ _____ _____    ______ ____
ROOT
ATOM      1  C   UNL     1       4.925   4.877  17.660  0.00  0.00    +0.000 A 
ATOM      2  C   UNL     1       4.617   4.389  18.935  0.00  0.00    +0.000 A 
ATOM      3  C   UNL     1       3.715   5.058  19.778  0.00  0.00    +0.000 A 
ATOM      4  C   UNL     1       3.143   6.244  19.304  0.00  0.00    +0.000 A 
ATOM      5  N   UNL     1       2.261   7.119  19.899  0.00  0.00    +0.000 N 
ATOM      6  C   UNL     1       1.955   8.168  19.055  0.00  0.00    +0.000 A 
ATOM      7  C   UNL     1       2.665   7.937  17.888  0.00  0.00    +0.000 A 
ATOM      8  C   UNL     1       3.408   6.741  18.035  0.00  0.00    +0.000 A 
ATOM      9  C   UNL     1       4.288   6.039  17.194  0.00  0.00    +0.000 A 
ATOM     10  H   UNL     1       1.873   6.997  20.824  0.00  0.00    +0.000 HD
ENDROOT
BRANCH   6  11
ATOM     11  C   UNL     1       1.054   9.282  19.387  0.00  0.00    +0.000 A 
ATOM     12  C   UNL     1       0.400   9.933  18.322  0.00  0.00    +0.000 A 
ATOM     13  C   UNL     1      -0.531  10.950  18.549  0.00  0.00    +0.000 A 
ATOM     14  C   UNL     1      -0.818  11.338  19.852  0.00  0.00    +0.000 A 
ATOM     15 CL   UNL     1      -1.985  12.567  20.137  0.00  0.00    +0.000 Cl
ATOM     16  C   UNL     1      -0.170  10.733  20.925  0.00  0.00    +0.000 A 
ATOM     17  C   UNL     1       0.763   9.712  20.697  0.00  0.00    +0.000 A 
ATOM     18 CL   UNL     1       1.490   9.009  22.103  0.00  0.00    +0.000 Cl
ENDBRANCH   6  11
BRANCH   1  19
ATOM     19  C   UNL     1       5.944   4.185  16.783  0.00  0.00    +0.000 C 
BRANCH  19  20
ATOM     20  C   UNL     1       6.857   5.203  16.094  0.00  0.00    +0.000 C 
BRANCH  20  22
ATOM     21  O   UNL     1       7.728   5.535  13.853  0.00  0.00    +0.000 OA
ATOM     22  C   UNL     1       7.086   4.864  14.645  0.00  0.00    +0.000 C 
BRANCH  22  23
ATOM     23  O   UNL     1       6.495   3.697  14.295  0.00  0.00    +0.000 OA
ATOM     24  H   UNL     1       6.718   2.950  14.882  0.00  0.00    +0.000 HD
ENDBRANCH  22  23
ENDBRANCH  20  22
ENDBRANCH  19  20
ENDBRANCH   1  19
TORSDOF 5
ENDMDL
MODEL 8
REMARK VINA RESULT:      -7.4      1.511      2.004
REMARK  Name = 
REMARK  5 active torsions:
REMARK  status: ('A' for Active; 'I' for Inactive)
REMARK    1  A    between atoms: C_2  and  O_3
REMARK    2  A    between atoms: C_2  and  C_4
REMARK    3  A    between atoms: C_4  and  C_5
REMARK    4  A    between atoms: C_5  and  C_6
REMARK    5  A    between atoms: C_11  and  C_12
REMARK                            x       y       z     vdW  Elec       q    Type
REMARK                         _______ _______ _______ _____ _____    ______ ____
ROOT
ATOM      1  C   UNL     1       5.157   5.336  15.951  0.00  0.00    +0.000 A 
ATOM      2  C   UNL     1       4.612   4.230  16.614  0.00  0.00    +0.000 A 
ATOM      3  C   UNL     1       3.668   4.382  17.642  0.00  0.00    +0.000 A 
ATOM      4  C   UNL     1       3.300   5.686  17.995  0.00  0.00    +0.000 A 
ATOM      5  N   UNL     1       2.435   6.146  18.962  0.00  0.00    +0.000 N 
ATOM      6  C   UNL     1       2.368   7.525  18.956  0.00  0.00    +0.000 A 
ATOM      7  C   UNL     1       3.217   7.942  17.944  0.00  0.00    +0.000 A 
ATOM      8  C   UNL     1       3.802   6.802  17.340  0.00  0.00    +0.000 A 
ATOM      9  C   UNL     1       4.720   6.627  16.292  0.00  0.00    +0.000 A 
ATOM     10  H   UNL     1       1.902   5.550  19.582  0.00  0.00    +0.000 HD
ENDROOT
BRANCH   6  11
ATOM     11  C   UNL     1       1.548   8.334  19.870  0.00  0.00    +0.000 A 
ATOM     12  C   UNL     1       1.609   8.030  21.245  0.00  0.00    +0.000 A 
ATOM     13  C   UNL     1       0.924   8.793  22.193  0.00  0.00    +0.000 A 
ATOM     14  C   UNL     1       0.156   9.874  21.777  0.00  0.00    +0.000 A 
ATOM     15 CL   UNL     1      -0.664  10.835  22.943  0.00  0.00    +0.000 Cl
ATOM     16  C   UNL     1       0.054  10.185  20.425  0.00  0.00    +0.000 A 
ATOM     17  C   UNL     1       0.742   9.419  19.474  0.00  0.00    +0.000 A 
ATOM     18 CL   UNL     1       0.566   9.910  17.822  0.00  0.00    +0.000 Cl
ENDBRANCH   6  11
BRANCH   1  19
ATOM     19  C   UNL     1       6.218   5.167  14.888  0.00  0.00    +0.000 C 
BRANCH  19  20
ATOM     20  C   UNL     1       6.227   3.735  14.344  0.00  0.00    +0.000 C 
BRANCH  20  22
ATOM     21  O   UNL     1       5.292   3.238  12.160  0.00  0.00    +0.000 OA
ATOM     22  C   UNL     1       6.193   3.704  12.839  0.00  0.00    +0.000 C 
BRANCH  22  23
ATOM     23  O   UNL     1       7.296   4.268  12.293  0.00  0.00    +0.000 OA
ATOM     24  H   UNL     1       7.998   3.627  12.070  0.00  0.00    +0.000 HD
ENDBRANCH  22  23
ENDBRANCH  20  22
ENDBRANCH  19  20
ENDBRANCH   1  19
TORSDOF 5
ENDMDL
MODEL 9
REMARK VINA RESULT:      -7.4      1.881      2.431
REMARK  Name = 
REMARK  5 active torsions:
REMARK  status: ('A' for Active; 'I' for Inactive)
REMARK    1  A    between atoms: C_2  and  O_3
REMARK    2  A    between atoms: C_2  and  C_4
REMARK    3  A    between atoms: C_4  and  C_5
REMARK    4  A    between atoms: C_5  and  C_6
REMARK    5  A    between atoms: C_11  and  C_12
REMARK                            x       y       z     vdW  Elec       q    Type
REMARK                         _______ _______ _______ _____ _____    ______ ____
ROOT
ATOM      1  C   UNL     1       4.211   6.116  17.820  0.00  0.00    +0.000 A 
ATOM      2  C   UNL     1       3.767   5.542  19.017  0.00  0.00    +0.000 A 
ATOM      3  C   UNL     1       2.797   6.168  19.816  0.00  0.00    +0.000 A 
ATOM      4  C   UNL     1       2.297   7.401  19.380  0.00  0.00    +0.000 A 
ATOM      5  N   UNL     1       1.376   8.252  19.950  0.00  0.00    +0.000 N 
ATOM      6  C   UNL     1       1.176   9.369  19.163  0.00  0.00    +0.000 A 
ATOM      7  C   UNL     1       1.996   9.208  18.059  0.00  0.00    +0.000 A 
ATOM      8  C   UNL     1       2.698   7.985  18.186  0.00  0.00    +0.000 A 
ATOM      9  C   UNL     1       3.646   7.326  17.385  0.00  0.00    +0.000 A 
ATOM     10  H   UNL     1       0.895   8.071  20.820  0.00  0.00    +0.000 HD
ENDROOT
BRANCH   6  11
ATOM     11  C   UNL     1       0.266  10.477  19.490  0.00  0.00    +0.000 A 
ATOM     12  C   UNL     1       0.601  11.296  20.587  0.00  0.00    +0.000 A 
ATOM     13  C   UNL     1      -0.163  12.416  20.923  0.00  0.00    +0.000 A 
ATOM     14  C   UNL     1      -1.284  12.732  20.166  0.00  0.00    +0.000 A 
ATOM     15 CL   UNL     1      -2.210  14.128  20.556  0.00  0.00    +0.000 Cl
ATOM     16  C   UNL     1      -1.657  11.930  19.092  0.00  0.00    +0.000 A 
ATOM     17  C   UNL     1      -0.890  10.806  18.755  0.00  0.00    +0.000 A 
ATOM     18 CL   UNL     1      -1.428   9.893  17.385  0.00  0.00    +0.000 Cl
ENDBRANCH   6  11
BRANCH   1  19
ATOM     19  C   UNL     1       5.301   5.466  16.998  0.00  0.00    +0.000 C 
BRANCH  19  20
ATOM     20  C   UNL     1       6.676   6.034  17.361  0.00  0.00    +0.000 C 
BRANCH  20  22
ATOM     21  O   UNL     1       7.517   5.358  19.534  0.00  0.00    +0.000 OA
ATOM     22  C   UNL     1       7.410   5.153  18.336  0.00  0.00    +0.000 C 
BRANCH  22  23
ATOM     23  O   UNL     1       7.955   4.070  17.733  0.00  0.00    +0.000 OA
ATOM     24  H   UNL     1       8.280   3.394  18.357  0.00  0.00    +0.000 HD
ENDBRANCH  22  23
ENDBRANCH  20  22
ENDBRANCH  19  20
ENDBRANCH   1  19
TORSDOF 5
ENDMDL
