MODEL 1
REMARK VINA RESULT:      -6.4      0.000      0.000
REMARK  Name = 
REMARK  5 active torsions:
REMARK  status: ('A' for Active; 'I' for Inactive)
REMARK    1  A    between atoms: C_1  and  C_2
REMARK    2  A    between atoms: N_8  and  C_9
REMARK    3  A    between atoms: C_10  and  C_11
REMARK    4  A    between atoms: C_19  and  C_20
REMARK    5  A    between atoms: C_22  and  N_23
REMARK                            x       y       z     vdW  Elec       q    Type
REMARK                         _______ _______ _______ _____ _____    ______ ____
ROOT
ATOM      1  C   UNL     1       6.947   5.693  14.673  0.00  0.00    +0.000 C 
ATOM      2  C   UNL     1       6.030   5.939  15.840  0.00  0.00    +0.000 A 
ATOM      3  C   UNL     1       5.151   6.960  15.829  0.00  0.00    +0.000 A 
ATOM      4  C   UNL     1       4.250   7.158  16.932  0.00  0.00    +0.000 A 
ATOM      5  C   UNL     1       4.273   6.340  17.990  0.00  0.00    +0.000 A 
ATOM      6  C   UNL     1       5.321   5.295  18.093  0.00  0.00    +0.000 A 
ATOM      7  O   UNL     1       5.447   4.665  19.141  0.00  0.00    +0.000 OA
ATOM      8  N   UNL     1       6.107   5.100  16.956  0.00  0.00    +0.000 N 
ATOM      9  C   UNL     1       7.060   3.995  16.997  0.00  0.00    +0.000 C 
ATOM     10  C   UNL     1       3.291   6.467  19.103  0.00  0.00    +0.000 C 
ATOM     11  C   UNL     1       2.421   7.699  18.943  0.00  0.00    +0.000 C 
ATOM     12  C   UNL     1       2.481   8.504  17.868  0.00  0.00    +0.000 C 
ATOM     13  O   UNL     1       3.354   8.212  16.811  0.00  0.00    +0.000 OA
ENDROOT
BRANCH  10  14
ATOM     14  C   UNL     1       2.407   5.226  19.251  0.00  0.00    +0.000 A 
ATOM     15  C   UNL     1       1.753   4.698  18.124  0.00  0.00    +0.000 A 
ATOM     16  C   UNL     1       1.029   3.510  18.220  0.00  0.00    +0.000 A 
ATOM     17  C   UNL     1       0.952   2.845  19.440  0.00  0.00    +0.000 A 
ATOM     18  F   UNL     1       0.271   1.692  19.500  0.00  0.00    +0.000 F 
ATOM     19  C   UNL     1       1.579   3.362  20.570  0.00  0.00    +0.000 A 
ATOM     20 BR   UNL     1       1.499   2.449  22.224  0.00  0.00    +0.000 Br
ATOM     21  C   UNL     1       2.298   4.554  20.483  0.00  0.00    +0.000 A 
ENDBRANCH  10  14
BRANCH  12  22
ATOM     22  N   UNL     1       1.732   9.639  17.679  0.00  0.00    +0.000 N 
ATOM     23  H   UNL     1       1.410   9.812  16.729  0.00  0.00    +0.000 HD
ATOM     24  H   UNL     1       2.129  10.459  18.130  0.00  0.00    +0.000 HD
ENDBRANCH  12  22
BRANCH  11  25
ATOM     25  C   UNL     1       1.479   7.919  20.116  0.00  0.00    +0.000 C 
ATOM     26  N   UNL     1       0.699   8.101  21.090  0.00  0.00    +0.000 NA
ENDBRANCH  11  25
TORSDOF 3
ENDMDL
MODEL 2
REMARK VINA RESULT:      -6.2      3.155      5.328
REMARK  Name = 
REMARK  5 active torsions:
REMARK  status: ('A' for Active; 'I' for Inactive)
REMARK    1  A    between atoms: C_1  and  C_2
REMARK    2  A    between atoms: N_8  and  C_9
REMARK    3  A    between atoms: C_10  and  C_11
REMARK    4  A    between atoms: C_19  and  C_20
REMARK    5  A    between atoms: C_22  and  N_23
REMARK                            x       y       z     vdW  Elec       q    Type
REMARK                         _______ _______ _______ _____ _____    ______ ____
ROOT
ATOM      1  C   UNL     1       1.839   1.650  21.687  0.00  0.00    +0.000 C 
ATOM      2  C   UNL     1       1.958   2.857  20.798  0.00  0.00    +0.000 A 
ATOM      3  C   UNL     1       1.729   4.095  21.273  0.00  0.00    +0.000 A 
ATOM      4  C   UNL     1       1.889   5.245  20.424  0.00  0.00    +0.000 A 
ATOM      5  C   UNL     1       2.260   5.105  19.147  0.00  0.00    +0.000 A 
ATOM      6  C   UNL     1       2.384   3.749  18.558  0.00  0.00    +0.000 A 
ATOM      7  O   UNL     1       2.552   3.628  17.346  0.00  0.00    +0.000 OA
ATOM      8  N   UNL     1       2.300   2.681  19.452  0.00  0.00    +0.000 N 
ATOM      9  C   UNL     1       2.541   1.348  18.910  0.00  0.00    +0.000 C 
ATOM     10  C   UNL     1       2.522   6.281  18.272  0.00  0.00    +0.000 C 
ATOM     11  C   UNL     1       2.160   7.583  18.961  0.00  0.00    +0.000 C 
ATOM     12  C   UNL     1       1.751   7.646  20.241  0.00  0.00    +0.000 C 
ATOM     13  O   UNL     1       1.668   6.482  21.016  0.00  0.00    +0.000 OA
ENDROOT
BRANCH  10  14
ATOM     14  C   UNL     1       3.972   6.341  17.785  0.00  0.00    +0.000 A 
ATOM     15  C   UNL     1       4.254   6.812  16.491  0.00  0.00    +0.000 A 
ATOM     16  C   UNL     1       5.573   6.972  16.068  0.00  0.00    +0.000 A 
ATOM     17  C   UNL     1       6.617   6.661  16.934  0.00  0.00    +0.000 A 
ATOM     18  F   UNL     1       7.876   6.847  16.514  0.00  0.00    +0.000 F 
ATOM     19  C   UNL     1       6.358   6.177  18.213  0.00  0.00    +0.000 A 
ATOM     20 BR   UNL     1       7.772   5.777  19.403  0.00  0.00    +0.000 Br
ATOM     21  C   UNL     1       5.040   6.007  18.639  0.00  0.00    +0.000 A 
ENDBRANCH  10  14
BRANCH  12  22
ATOM     22  N   UNL     1       1.394   8.791  20.908  0.00  0.00    +0.000 N 
ATOM     23  H   UNL     1       1.808   8.922  21.829  0.00  0.00    +0.000 HD
ATOM     24  H   UNL     1       0.395   8.973  20.882  0.00  0.00    +0.000 HD
ENDBRANCH  12  22
BRANCH  11  25
ATOM     25  C   UNL     1       2.313   8.797  18.059  0.00  0.00    +0.000 C 
ATOM     26  N   UNL     1       2.440   9.804  17.310  0.00  0.00    +0.000 NA
ENDBRANCH  11  25
TORSDOF 3
ENDMDL
MODEL 3
REMARK VINA RESULT:      -6.1      1.107      1.523
REMARK  Name = 
REMARK  5 active torsions:
REMARK  status: ('A' for Active; 'I' for Inactive)
REMARK    1  A    between atoms: C_1  and  C_2
REMARK    2  A    between atoms: N_8  and  C_9
REMARK    3  A    between atoms: C_10  and  C_11
REMARK    4  A    between atoms: C_19  and  C_20
REMARK    5  A    between atoms: C_22  and  N_23
REMARK                            x       y       z     vdW  Elec       q    Type
REMARK                         _______ _______ _______ _____ _____    ______ ____
ROOT
ATOM      1  C   UNL     1       6.870   5.422  14.872  0.00  0.00    +0.000 C 
ATOM      2  C   UNL     1       6.016   5.789  16.054  0.00  0.00    +0.000 A 
ATOM      3  C   UNL     1       4.972   6.630  15.922  0.00  0.00    +0.000 A 
ATOM      4  C   UNL     1       4.137   6.939  17.051  0.00  0.00    +0.000 A 
ATOM      5  C   UNL     1       4.385   6.406  18.252  0.00  0.00    +0.000 A 
ATOM      6  C   UNL     1       5.606   5.589  18.459  0.00  0.00    +0.000 A 
ATOM      7  O   UNL     1       5.922   5.250  19.598  0.00  0.00    +0.000 OA
ATOM      8  N   UNL     1       6.326   5.257  17.310  0.00  0.00    +0.000 N 
ATOM      9  C   UNL     1       7.459   4.354  17.481  0.00  0.00    +0.000 C 
ATOM     10  C   UNL     1       3.485   6.636  19.416  0.00  0.00    +0.000 C 
ATOM     11  C   UNL     1       2.400   7.646  19.092  0.00  0.00    +0.000 C 
ATOM     12  C   UNL     1       2.233   8.176  17.868  0.00  0.00    +0.000 C 
ATOM     13  O   UNL     1       3.062   7.784  16.807  0.00  0.00    +0.000 OA
ENDROOT
BRANCH  10  14
ATOM     14  C   UNL     1       2.848   5.343  19.932  0.00  0.00    +0.000 A 
ATOM     15  C   UNL     1       2.823   5.081  21.313  0.00  0.00    +0.000 A 
ATOM     16  C   UNL     1       2.157   3.961  21.808  0.00  0.00    +0.000 A 
ATOM     17  C   UNL     1       1.513   3.096  20.928  0.00  0.00    +0.000 A 
ATOM     18  F   UNL     1       0.858   2.040  21.431  0.00  0.00    +0.000 F 
ATOM     19  C   UNL     1       1.541   3.330  19.557  0.00  0.00    +0.000 A 
ATOM     20 BR   UNL     1       0.648   2.172  18.359  0.00  0.00    +0.000 Br
ATOM     21  C   UNL     1       2.214   4.444  19.054  0.00  0.00    +0.000 A 
ENDBRANCH  10  14
BRANCH  12  22
ATOM     22  N   UNL     1       1.283   9.105  17.523  0.00  0.00    +0.000 N 
ATOM     23  H   UNL     1       0.319   8.860  17.735  0.00  0.00    +0.000 HD
ATOM     24  H   UNL     1       1.412   9.480  16.587  0.00  0.00    +0.000 HD
ENDBRANCH  12  22
BRANCH  11  25
ATOM     25  C   UNL     1       1.527   7.986  20.290  0.00  0.00    +0.000 C 
ATOM     26  N   UNL     1       0.803   8.268  21.283  0.00  0.00    +0.000 NA
ENDBRANCH  11  25
TORSDOF 3
ENDMDL
MODEL 4
REMARK VINA RESULT:      -6.0      7.858     11.186
REMARK  Name = 
REMARK  5 active torsions:
REMARK  status: ('A' for Active; 'I' for Inactive)
REMARK    1  A    between atoms: C_1  and  C_2
REMARK    2  A    between atoms: N_8  and  C_9
REMARK    3  A    between atoms: C_10  and  C_11
REMARK    4  A    between atoms: C_19  and  C_20
REMARK    5  A    between atoms: C_22  and  N_23
REMARK                            x       y       z     vdW  Elec       q    Type
REMARK                         _______ _______ _______ _____ _____    ______ ____
ROOT
ATOM      1  C   UNL     1      -7.894  12.421  22.715  0.00  0.00    +0.000 C 
ATOM      2  C   UNL     1      -6.449  12.775  22.494  0.00  0.00    +0.000 A 
ATOM      3  C   UNL     1      -5.772  13.520  23.388  0.00  0.00    +0.000 A 
ATOM      4  C   UNL     1      -4.379  13.815  23.187  0.00  0.00    +0.000 A 
ATOM      5  C   UNL     1      -3.733  13.363  22.106  0.00  0.00    +0.000 A 
ATOM      6  C   UNL     1      -4.484  12.660  21.038  0.00  0.00    +0.000 A 
ATOM      7  O   UNL     1      -3.926  12.403  19.973  0.00  0.00    +0.000 OA
ATOM      8  N   UNL     1      -5.809  12.332  21.331  0.00  0.00    +0.000 N 
ATOM      9  C   UNL     1      -6.525  11.534  20.341  0.00  0.00    +0.000 C 
ATOM     10  C   UNL     1      -2.271  13.576  21.919  0.00  0.00    +0.000 C 
ATOM     11  C   UNL     1      -1.694  14.476  22.994  0.00  0.00    +0.000 C 
ATOM     12  C   UNL     1      -2.415  14.931  24.034  0.00  0.00    +0.000 C 
ATOM     13  O   UNL     1      -3.758  14.556  24.184  0.00  0.00    +0.000 OA
ENDROOT
BRANCH  10  14
ATOM     14  C   UNL     1      -1.487  12.262  21.871  0.00  0.00    +0.000 A 
ATOM     15  C   UNL     1      -1.459  11.426  23.001  0.00  0.00    +0.000 A 
ATOM     16  C   UNL     1      -0.838  10.179  22.942  0.00  0.00    +0.000 A 
ATOM     17  C   UNL     1      -0.241   9.760  21.757  0.00  0.00    +0.000 A 
ATOM     18  F   UNL     1       0.327   8.547  21.718  0.00  0.00    +0.000 F 
ATOM     19  C   UNL     1      -0.244  10.581  20.633  0.00  0.00    +0.000 A 
ATOM     20 BR   UNL     1       0.544  10.008  19.013  0.00  0.00    +0.000 Br
ATOM     21  C   UNL     1      -0.856  11.834  20.688  0.00  0.00    +0.000 A 
ENDBRANCH  10  14
BRANCH  12  22
ATOM     22  N   UNL     1      -1.951  15.761  25.024  0.00  0.00    +0.000 N 
ATOM     23  H   UNL     1      -1.289  15.352  25.679  0.00  0.00    +0.000 HD
ATOM     24  H   UNL     1      -2.689  16.298  25.472  0.00  0.00    +0.000 HD
ENDBRANCH  12  22
BRANCH  11  25
ATOM     25  C   UNL     1      -0.226  14.802  22.773  0.00  0.00    +0.000 C 
ATOM     26  N   UNL     1       0.992  15.073  22.589  0.00  0.00    +0.000 NA
ENDBRANCH  11  25
TORSDOF 3
ENDMDL
MODEL 5
REMARK VINA RESULT:      -5.9      6.683      9.809
REMARK  Name = 
REMARK  5 active torsions:
REMARK  status: ('A' for Active; 'I' for Inactive)
REMARK    1  A    between atoms: C_1  and  C_2
REMARK    2  A    between atoms: N_8  and  C_9
REMARK    3  A    between atoms: C_10  and  C_11
REMARK    4  A    between atoms: C_19  and  C_20
REMARK    5  A    between atoms: C_22  and  N_23
REMARK                            x       y       z     vdW  Elec       q    Type
REMARK                         _______ _______ _______ _____ _____    ______ ____
ROOT
ATOM      1  C   UNL     1      -7.049  11.833  20.066  0.00  0.00    +0.000 C 
ATOM      2  C   UNL     1      -5.588  12.171  20.177  0.00  0.00    +0.000 A 
ATOM      3  C   UNL     1      -5.113  12.866  21.228  0.00  0.00    +0.000 A 
ATOM      4  C   UNL     1      -3.707  13.146  21.344  0.00  0.00    +0.000 A 
ATOM      5  C   UNL     1      -2.848  12.728  20.408  0.00  0.00    +0.000 A 
ATOM      6  C   UNL     1      -3.357  12.083  19.173  0.00  0.00    +0.000 A 
ATOM      7  O   UNL     1      -2.584  11.862  18.242  0.00  0.00    +0.000 OA
ATOM      8  N   UNL     1      -4.716  11.766  19.160  0.00  0.00    +0.000 N 
ATOM      9  C   UNL     1      -5.208  11.023  18.005  0.00  0.00    +0.000 C 
ATOM     10  C   UNL     1      -1.378  12.923  20.548  0.00  0.00    +0.000 C 
ATOM     11  C   UNL     1      -1.039  13.767  21.761  0.00  0.00    +0.000 C 
ATOM     12  C   UNL     1      -1.963  14.190  22.642  0.00  0.00    +0.000 C 
ATOM     13  O   UNL     1      -3.309  13.833  22.483  0.00  0.00    +0.000 OA
ENDROOT
BRANCH  10  14
ATOM     14  C   UNL     1      -0.612  11.598  20.611  0.00  0.00    +0.000 A 
ATOM     15  C   UNL     1      -0.762  10.760  21.730  0.00  0.00    +0.000 A 
ATOM     16  C   UNL     1      -0.155   9.505  21.758  0.00  0.00    +0.000 A 
ATOM     17  C   UNL     1       0.604   9.081  20.672  0.00  0.00    +0.000 A 
ATOM     18  F   UNL     1       1.156   7.860  20.712  0.00  0.00    +0.000 F 
ATOM     19  C   UNL     1       0.777   9.904  19.563  0.00  0.00    +0.000 A 
ATOM     20 BR   UNL     1       1.787   9.323  18.074  0.00  0.00    +0.000 Br
ATOM     21  C   UNL     1       0.180  11.165  19.532  0.00  0.00    +0.000 A 
ENDBRANCH  10  14
BRANCH  12  22
ATOM     22  N   UNL     1      -1.717  14.970  23.744  0.00  0.00    +0.000 N 
ATOM     23  H   UNL     1      -2.220  14.721  24.592  0.00  0.00    +0.000 HD
ATOM     24  H   UNL     1      -1.731  15.966  23.540  0.00  0.00    +0.000 HD
ENDBRANCH  12  22
BRANCH  11  25
ATOM     25  C   UNL     1       0.445  14.077  21.875  0.00  0.00    +0.000 C 
ATOM     26  N   UNL     1       1.676  14.334  21.969  0.00  0.00    +0.000 NA
ENDBRANCH  11  25
TORSDOF 3
ENDMDL
MODEL 6
REMARK VINA RESULT:      -5.8      6.900      9.876
REMARK  Name = 
REMARK  5 active torsions:
REMARK  status: ('A' for Active; 'I' for Inactive)
REMARK    1  A    between atoms: C_1  and  C_2
REMARK    2  A    between atoms: N_8  and  C_9
REMARK    3  A    between atoms: C_10  and  C_11
REMARK    4  A    between atoms: C_19  and  C_20
REMARK    5  A    between atoms: C_22  and  N_23
REMARK                            x       y       z     vdW  Elec       q    Type
REMARK                         _______ _______ _______ _____ _____    ______ ____
ROOT
ATOM      1  C   UNL     1      -2.682  17.763  19.485  0.00  0.00    +0.000 C 
ATOM      2  C   UNL     1      -2.109  16.495  20.056  0.00  0.00    +0.000 A 
ATOM      3  C   UNL     1      -2.814  15.741  20.920  0.00  0.00    +0.000 A 
ATOM      4  C   UNL     1      -2.271  14.509  21.425  0.00  0.00    +0.000 A 
ATOM      5  C   UNL     1      -1.055  14.094  21.053  0.00  0.00    +0.000 A 
ATOM      6  C   UNL     1      -0.201  14.969  20.214  0.00  0.00    +0.000 A 
ATOM      7  O   UNL     1       0.975  14.664  20.022  0.00  0.00    +0.000 OA
ATOM      8  N   UNL     1      -0.815  16.108  19.690  0.00  0.00    +0.000 N 
ATOM      9  C   UNL     1      -0.026  16.914  18.764  0.00  0.00    +0.000 C 
ATOM     10  C   UNL     1      -0.507  12.779  21.488  0.00  0.00    +0.000 C 
ATOM     11  C   UNL     1      -1.416  12.100  22.495  0.00  0.00    +0.000 C 
ATOM     12  C   UNL     1      -2.612  12.598  22.856  0.00  0.00    +0.000 C 
ATOM     13  O   UNL     1      -3.090  13.782  22.279  0.00  0.00    +0.000 OA
ENDROOT
BRANCH  10  14
ATOM     14  C   UNL     1      -0.242  11.835  20.313  0.00  0.00    +0.000 A 
ATOM     15  C   UNL     1       1.033  11.265  20.150  0.00  0.00    +0.000 A 
ATOM     16  C   UNL     1       1.263  10.323  19.148  0.00  0.00    +0.000 A 
ATOM     17  C   UNL     1       0.224   9.946  18.303  0.00  0.00    +0.000 A 
ATOM     18  F   UNL     1       0.464   9.020  17.365  0.00  0.00    +0.000 F 
ATOM     19  C   UNL     1      -1.041  10.511  18.438  0.00  0.00    +0.000 A 
ATOM     20 BR   UNL     1      -2.463   9.984  17.310  0.00  0.00    +0.000 Br
ATOM     21  C   UNL     1      -1.276  11.461  19.433  0.00  0.00    +0.000 A 
ENDBRANCH  10  14
BRANCH  12  22
ATOM     22  N   UNL     1      -3.465  12.037  23.774  0.00  0.00    +0.000 N 
ATOM     23  H   UNL     1      -4.365  12.497  23.891  0.00  0.00    +0.000 HD
ATOM     24  H   UNL     1      -3.009  11.804  24.652  0.00  0.00    +0.000 HD
ENDBRANCH  12  22
BRANCH  11  25
ATOM     25  C   UNL     1      -0.835  10.805  23.042  0.00  0.00    +0.000 C 
ATOM     26  N   UNL     1      -0.354   9.732  23.496  0.00  0.00    +0.000 NA
ENDBRANCH  11  25
TORSDOF 3
ENDMDL
MODEL 7
REMARK VINA RESULT:      -5.8      5.857      8.824
REMARK  Name = 
REMARK  5 active torsions:
REMARK  status: ('A' for Active; 'I' for Inactive)
REMARK    1  A    between atoms: C_1  and  C_2
REMARK    2  A    between atoms: N_8  and  C_9
REMARK    3  A    between atoms: C_10  and  C_11
REMARK    4  A    between atoms: C_19  and  C_20
REMARK    5  A    between atoms: C_22  and  N_23
REMARK                            x       y       z     vdW  Elec       q    Type
REMARK                         _______ _______ _______ _____ _____    ______ ____
ROOT
ATOM      1  C   UNL     1      -6.150  11.733  18.884  0.00  0.00    +0.000 C 
ATOM      2  C   UNL     1      -4.676  11.952  19.086  0.00  0.00    +0.000 A 
ATOM      3  C   UNL     1      -4.219  12.713  20.099  0.00  0.00    +0.000 A 
ATOM      4  C   UNL     1      -2.806  12.880  20.307  0.00  0.00    +0.000 A 
ATOM      5  C   UNL     1      -1.921  12.290  19.496  0.00  0.00    +0.000 A 
ATOM      6  C   UNL     1      -2.393  11.562  18.293  0.00  0.00    +0.000 A 
ATOM      7  O   UNL     1      -1.576  11.174  17.459  0.00  0.00    +0.000 OA
ATOM      8  N   UNL     1      -3.772  11.365  18.195  0.00  0.00    +0.000 N 
ATOM      9  C   UNL     1      -4.243  10.546  17.082  0.00  0.00    +0.000 C 
ATOM     10  C   UNL     1      -0.455  12.370  19.742  0.00  0.00    +0.000 C 
ATOM     11  C   UNL     1      -0.131  13.308  20.889  0.00  0.00    +0.000 C 
ATOM     12  C   UNL     1      -1.075  13.903  21.639  0.00  0.00    +0.000 C 
ATOM     13  O   UNL     1      -2.433  13.649  21.401  0.00  0.00    +0.000 OA
ENDROOT
BRANCH  10  14
ATOM     14  C   UNL     1       0.173  10.998  20.005  0.00  0.00    +0.000 A 
ATOM     15  C   UNL     1      -0.157  10.293  21.175  0.00  0.00    +0.000 A 
ATOM     16  C   UNL     1       0.323   9.001  21.381  0.00  0.00    +0.000 A 
ATOM     17  C   UNL     1       1.136   8.405  20.421  0.00  0.00    +0.000 A 
ATOM     18  F   UNL     1       1.565   7.153  20.629  0.00  0.00    +0.000 F 
ATOM     19  C   UNL     1       1.488   9.095  19.264  0.00  0.00    +0.000 A 
ATOM     20 BR   UNL     1       2.571   8.283  17.944  0.00  0.00    +0.000 Br
ATOM     21  C   UNL     1       1.018  10.392  19.056  0.00  0.00    +0.000 A 
ENDBRANCH  10  14
BRANCH  12  22
ATOM     22  N   UNL     1      -0.840  14.773  22.674  0.00  0.00    +0.000 N 
ATOM     23  H   UNL     1      -1.159  14.474  23.593  0.00  0.00    +0.000 HD
ATOM     24  H   UNL     1      -1.085  15.734  22.451  0.00  0.00    +0.000 HD
ENDBRANCH  12  22
BRANCH  11  25
ATOM     25  C   UNL     1       1.363  13.498  21.099  0.00  0.00    +0.000 C 
ATOM     26  N   UNL     1       2.602  13.655  21.273  0.00  0.00    +0.000 NA
ENDBRANCH  11  25
TORSDOF 3
ENDMDL
MODEL 8
REMARK VINA RESULT:      -5.6      6.385      9.226
REMARK  Name = 
REMARK  5 active torsions:
REMARK  status: ('A' for Active; 'I' for Inactive)
REMARK    1  A    between atoms: C_1  and  C_2
REMARK    2  A    between atoms: N_8  and  C_9
REMARK    3  A    between atoms: C_10  and  C_11
REMARK    4  A    between atoms: C_19  and  C_20
REMARK    5  A    between atoms: C_22  and  N_23
REMARK                            x       y       z     vdW  Elec       q    Type
REMARK                         _______ _______ _______ _____ _____    ______ ____
ROOT
ATOM      1  C   UNL     1      -1.866  16.261  22.666  0.00  0.00    +0.000 C 
ATOM      2  C   UNL     1      -1.265  14.983  22.148  0.00  0.00    +0.000 A 
ATOM      3  C   UNL     1      -1.242  13.870  22.905  0.00  0.00    +0.000 A 
ATOM      4  C   UNL     1      -0.703  12.643  22.383  0.00  0.00    +0.000 A 
ATOM      5  C   UNL     1      -0.209  12.587  21.142  0.00  0.00    +0.000 A 
ATOM      6  C   UNL     1      -0.093  13.827  20.336  0.00  0.00    +0.000 A 
ATOM      7  O   UNL     1       0.520  13.802  19.270  0.00  0.00    +0.000 OA
ATOM      8  N   UNL     1      -0.709  14.963  20.864  0.00  0.00    +0.000 N 
ATOM      9  C   UNL     1      -0.710  16.160  20.029  0.00  0.00    +0.000 C 
ATOM     10  C   UNL     1       0.270  11.310  20.544  0.00  0.00    +0.000 C 
ATOM     11  C   UNL     1       0.269  10.182  21.558  0.00  0.00    +0.000 C 
ATOM     12  C   UNL     1      -0.207  10.321  22.809  0.00  0.00    +0.000 C 
ATOM     13  O   UNL     1      -0.761  11.540  23.225  0.00  0.00    +0.000 OA
ENDROOT
BRANCH  10  14
ATOM     14  C   UNL     1      -0.540  10.896  19.312  0.00  0.00    +0.000 A 
ATOM     15  C   UNL     1       0.063  10.113  18.313  0.00  0.00    +0.000 A 
ATOM     16  C   UNL     1      -0.688   9.640  17.237  0.00  0.00    +0.000 A 
ATOM     17  C   UNL     1      -2.043   9.948  17.152  0.00  0.00    +0.000 A 
ATOM     18  F   UNL     1      -2.749   9.460  16.122  0.00  0.00    +0.000 F 
ATOM     19  C   UNL     1      -2.653  10.736  18.124  0.00  0.00    +0.000 A 
ATOM     20 BR   UNL     1      -4.498  11.136  18.028  0.00  0.00    +0.000 Br
ATOM     21  C   UNL     1      -1.905  11.219  19.198  0.00  0.00    +0.000 A 
ENDBRANCH  10  14
BRANCH  12  22
ATOM     22  N   UNL     1      -0.216   9.343  23.772  0.00  0.00    +0.000 N 
ATOM     23  H   UNL     1      -0.872   9.474  24.539  0.00  0.00    +0.000 HD
ATOM     24  H   UNL     1       0.716   9.073  24.075  0.00  0.00    +0.000 HD
ENDBRANCH  12  22
BRANCH  11  25
ATOM     25  C   UNL     1       0.853   8.889  21.012  0.00  0.00    +0.000 C 
ATOM     26  N   UNL     1       1.338   7.817  20.559  0.00  0.00    +0.000 NA
ENDBRANCH  11  25
TORSDOF 3
ENDMDL
MODEL 9
REMARK VINA RESULT:      -5.6      7.043      9.298
REMARK  Name = 
REMARK  5 active torsions:
REMARK  status: ('A' for Active; 'I' for Inactive)
REMARK    1  A    between atoms: C_1  and  C_2
REMARK    2  A    between atoms: N_8  and  C_9
REMARK    3  A    between atoms: C_10  and  C_11
REMARK    4  A    between atoms: C_19  and  C_20
REMARK    5  A    between atoms: C_22  and  N_23
REMARK                            x       y       z     vdW  Elec       q    Type
REMARK                         _______ _______ _______ _____ _____    ______ ____
ROOT
ATOM      1  C   UNL     1       3.882  15.860  20.203  0.00  0.00    +0.000 C 
ATOM      2  C   UNL     1       2.672  15.026  19.888  0.00  0.00    +0.000 A 
ATOM      3  C   UNL     1       2.796  13.784  19.382  0.00  0.00    +0.000 A 
ATOM      4  C   UNL     1       1.632  12.980  19.125  0.00  0.00    +0.000 A 
ATOM      5  C   UNL     1       0.406  13.452  19.377  0.00  0.00    +0.000 A 
ATOM      6  C   UNL     1       0.230  14.862  19.803  0.00  0.00    +0.000 A 
ATOM      7  O   UNL     1      -0.901  15.340  19.863  0.00  0.00    +0.000 OA
ATOM      8  N   UNL     1       1.398  15.560  20.114  0.00  0.00    +0.000 N 
ATOM      9  C   UNL     1       1.237  16.908  20.650  0.00  0.00    +0.000 C 
ATOM     10  C   UNL     1      -0.810  12.609  19.208  0.00  0.00    +0.000 C 
ATOM     11  C   UNL     1      -0.478  11.267  18.582  0.00  0.00    +0.000 C 
ATOM     12  C   UNL     1       0.780  10.874  18.316  0.00  0.00    +0.000 C 
ATOM     13  O   UNL     1       1.865  11.699  18.641  0.00  0.00    +0.000 OA
ENDROOT
BRANCH  10  14
ATOM     14  C   UNL     1      -1.563  12.391  20.524  0.00  0.00    +0.000 A 
ATOM     15  C   UNL     1      -0.881  11.872  21.639  0.00  0.00    +0.000 A 
ATOM     16  C   UNL     1      -1.523  11.765  22.872  0.00  0.00    +0.000 A 
ATOM     17  C   UNL     1      -2.847  12.175  22.999  0.00  0.00    +0.000 A 
ATOM     18  F   UNL     1      -3.434  12.086  24.201  0.00  0.00    +0.000 F 
ATOM     19  C   UNL     1      -3.542  12.676  21.903  0.00  0.00    +0.000 A 
ATOM     20 BR   UNL     1      -5.333  13.257  22.075  0.00  0.00    +0.000 Br
ATOM     21  C   UNL     1      -2.909  12.777  20.664  0.00  0.00    +0.000 A 
ENDBRANCH  10  14
BRANCH  12  22
ATOM     22  N   UNL     1       1.136   9.683  17.734  0.00  0.00    +0.000 N 
ATOM     23  H   UNL     1       1.791   9.106  18.258  0.00  0.00    +0.000 HD
ATOM     24  H   UNL     1       1.370   9.774  16.749  0.00  0.00    +0.000 HD
ENDBRANCH  12  22
BRANCH  11  25
ATOM     25  C   UNL     1      -1.710  10.424  18.296  0.00  0.00    +0.000 C 
ATOM     26  N   UNL     1      -2.731   9.724  18.058  0.00  0.00    +0.000 NA
ENDBRANCH  11  25
TORSDOF 3
ENDMDL
