MODEL 1
REMARK VINA RESULT:      -6.8      0.000      0.000
REMARK  Name = 
REMARK  10 active torsions:
REMARK  status: ('A' for Active; 'I' for Inactive)
REMARK    1  A    between atoms: C_1  and  C_2
REMARK    2  A    between atoms: C_5  and  N_6
REMARK    3  A    between atoms: N_6  and  C_7
REMARK    4  A    between atoms: C_7  and  N_9
REMARK    5  A    between atoms: C_13  and  O_15
REMARK    6  A    between atoms: O_15  and  C_16
REMARK    7  A    between atoms: C_16  and  C_17
REMARK    8  A    between atoms: C_16  and  C_18
REMARK    9  A    between atoms: C_16  and  C_19
REMARK   10  A    between atoms: C_21  and  C_22
REMARK                            x       y       z     vdW  Elec       q    Type
REMARK                         _______ _______ _______ _____ _____    ______ ____
ROOT
ATOM      1  N   UNL     1       3.421   4.818  19.403  0.00  0.00    +0.000 N 
ATOM      2  C   UNL     1       4.626   5.657  19.522  0.00  0.00    +0.000 C 
ATOM      3  C   UNL     1       5.892   4.869  19.189  0.00  0.00    +0.000 C 
ATOM      4  N   UNL     1       5.773   4.207  17.893  0.00  0.00    +0.000 N 
ATOM      5  C   UNL     1       6.735   4.456  16.931  0.00  0.00    +0.000 C 
ATOM      6  O   UNL     1       7.672   5.215  17.150  0.00  0.00    +0.000 OA
ATOM      7  C   UNL     1       4.618   3.324  17.752  0.00  0.00    +0.000 C 
ATOM      8  C   UNL     1       3.299   4.046  18.132  0.00  0.00    +0.000 C 
ATOM      9  C   UNL     1       2.860   4.988  17.003  0.00  0.00    +0.000 C 
ENDROOT
BRANCH   1  10
ATOM     10  C   UNL     1       2.346   5.002  20.286  0.00  0.00    +0.000 C 
ATOM     11  S   UNL     1       1.199   3.813  20.570  0.00  0.00    +0.000 S 
BRANCH  10  12
ATOM     12  N   UNL     1       2.339   6.281  20.828  0.00  0.00    +0.000 N 
ATOM     13  H   UNL     1       3.070   6.416  21.514  0.00  0.00    +0.000 HD
BRANCH  12  18
ATOM     14  C   UNL     1       0.049  11.167  18.911  0.00  0.00    +0.000 C 
ATOM     15  C   UNL     1       0.625   9.883  19.431  0.00  0.00    +0.000 A 
ATOM     16  C   UNL     1       0.331   9.427  20.719  0.00  0.00    +0.000 A 
ATOM     17  C   UNL     1       0.864   8.221  21.190  0.00  0.00    +0.000 A 
ATOM     18  C   UNL     1       1.704   7.457  20.381  0.00  0.00    +0.000 A 
ATOM     19  C   UNL     1       2.025   7.927  19.103  0.00  0.00    +0.000 A 
ATOM     20  C   UNL     1       1.476   9.121  18.625  0.00  0.00    +0.000 A 
ENDBRANCH  12  18
ENDBRANCH  10  12
ENDBRANCH   1  10
BRANCH   5  21
ATOM     21  O   UNL     1       6.532   3.820  15.745  0.00  0.00    +0.000 OA
BRANCH  21  22
ATOM     22  C   UNL     1       6.233   4.638  14.572  0.00  0.00    +0.000 C 
ATOM     23  C   UNL     1       7.508   4.991  13.787  0.00  0.00    +0.000 C 
ATOM     24  C   UNL     1       5.340   3.786  13.652  0.00  0.00    +0.000 C 
ATOM     25  C   UNL     1       5.429   5.889  14.962  0.00  0.00    +0.000 C 
ENDBRANCH  21  22
ENDBRANCH   5  21
TORSDOF 5
ENDMDL
MODEL 2
REMARK VINA RESULT:      -6.7      0.071      1.326
REMARK  Name = 
REMARK  10 active torsions:
REMARK  status: ('A' for Active; 'I' for Inactive)
REMARK    1  A    between atoms: C_1  and  C_2
REMARK    2  A    between atoms: C_5  and  N_6
REMARK    3  A    between atoms: N_6  and  C_7
REMARK    4  A    between atoms: C_7  and  N_9
REMARK    5  A    between atoms: C_13  and  O_15
REMARK    6  A    between atoms: O_15  and  C_16
REMARK    7  A    between atoms: C_16  and  C_17
REMARK    8  A    between atoms: C_16  and  C_18
REMARK    9  A    between atoms: C_16  and  C_19
REMARK   10  A    between atoms: C_21  and  C_22
REMARK                            x       y       z     vdW  Elec       q    Type
REMARK                         _______ _______ _______ _____ _____    ______ ____
ROOT
ATOM      1  N   UNL     1       3.396   4.789  19.398  0.00  0.00    +0.000 N 
ATOM      2  C   UNL     1       4.596   5.635  19.514  0.00  0.00    +0.000 C 
ATOM      3  C   UNL     1       5.867   4.852  19.187  0.00  0.00    +0.000 C 
ATOM      4  N   UNL     1       5.754   4.181  17.896  0.00  0.00    +0.000 N 
ATOM      5  C   UNL     1       6.716   4.429  16.933  0.00  0.00    +0.000 C 
ATOM      6  O   UNL     1       7.649   5.195  17.150  0.00  0.00    +0.000 OA
ATOM      7  C   UNL     1       4.604   3.290  17.758  0.00  0.00    +0.000 C 
ATOM      8  C   UNL     1       3.280   4.007  18.131  0.00  0.00    +0.000 C 
ATOM      9  C   UNL     1       2.838   4.940  16.996  0.00  0.00    +0.000 C 
ENDROOT
BRANCH   1  10
ATOM     10  C   UNL     1       2.319   4.972  20.278  0.00  0.00    +0.000 C 
ATOM     11  S   UNL     1       1.161   3.788  20.546  0.00  0.00    +0.000 S 
BRANCH  10  12
ATOM     12  N   UNL     1       2.317   6.245  20.832  0.00  0.00    +0.000 N 
ATOM     13  H   UNL     1       2.962   6.332  21.607  0.00  0.00    +0.000 HD
BRANCH  12  18
ATOM     14  C   UNL     1      -0.016  11.091  18.864  0.00  0.00    +0.000 C 
ATOM     15  C   UNL     1       0.619   9.826  19.362  0.00  0.00    +0.000 A 
ATOM     16  C   UNL     1       1.465   9.071  18.545  0.00  0.00    +0.000 A 
ATOM     17  C   UNL     1       2.063   7.898  19.023  0.00  0.00    +0.000 A 
ATOM     18  C   UNL     1       1.816   7.460  20.323  0.00  0.00    +0.000 A 
ATOM     19  C   UNL     1       0.945   8.197  21.132  0.00  0.00    +0.000 A 
ATOM     20  C   UNL     1       0.365   9.379  20.662  0.00  0.00    +0.000 A 
ENDBRANCH  12  18
ENDBRANCH  10  12
ENDBRANCH   1  10
BRANCH   5  21
ATOM     21  O   UNL     1       6.519   3.785  15.751  0.00  0.00    +0.000 OA
BRANCH  21  22
ATOM     22  C   UNL     1       6.142   4.587  14.590  0.00  0.00    +0.000 C 
ATOM     23  C   UNL     1       5.426   5.883  15.004  0.00  0.00    +0.000 C 
ATOM     24  C   UNL     1       7.450   4.983  13.881  0.00  0.00    +0.000 C 
ATOM     25  C   UNL     1       5.312   3.761  13.594  0.00  0.00    +0.000 C 
ENDBRANCH  21  22
ENDBRANCH   5  21
TORSDOF 5
ENDMDL
MODEL 3
REMARK VINA RESULT:      -6.3      4.926      9.442
REMARK  Name = 
REMARK  10 active torsions:
REMARK  status: ('A' for Active; 'I' for Inactive)
REMARK    1  A    between atoms: C_1  and  C_2
REMARK    2  A    between atoms: C_5  and  N_6
REMARK    3  A    between atoms: N_6  and  C_7
REMARK    4  A    between atoms: C_7  and  N_9
REMARK    5  A    between atoms: C_13  and  O_15
REMARK    6  A    between atoms: O_15  and  C_16
REMARK    7  A    between atoms: C_16  and  C_17
REMARK    8  A    between atoms: C_16  and  C_18
REMARK    9  A    between atoms: C_16  and  C_19
REMARK   10  A    between atoms: C_21  and  C_22
REMARK                            x       y       z     vdW  Elec       q    Type
REMARK                         _______ _______ _______ _____ _____    ______ ____
ROOT
ATOM      1  N   UNL     1       0.994   9.118  20.258  0.00  0.00    +0.000 N 
ATOM      2  C   UNL     1       0.279   8.713  21.480  0.00  0.00    +0.000 C 
ATOM      3  C   UNL     1       0.176   9.865  22.478  0.00  0.00    +0.000 C 
ATOM      4  N   UNL     1      -0.383  11.058  21.849  0.00  0.00    +0.000 N 
ATOM      5  C   UNL     1      -1.507  11.637  22.409  0.00  0.00    +0.000 C 
ATOM      6  O   UNL     1      -2.031  11.168  23.413  0.00  0.00    +0.000 OA
ATOM      7  C   UNL     1       0.330  11.524  20.662  0.00  0.00    +0.000 C 
ATOM      8  C   UNL     1       0.520  10.385  19.627  0.00  0.00    +0.000 C 
ATOM      9  C   UNL     1      -0.791  10.120  18.875  0.00  0.00    +0.000 C 
ENDROOT
BRANCH   1  10
ATOM     10  C   UNL     1       1.827   8.205  19.595  0.00  0.00    +0.000 C 
ATOM     11  S   UNL     1       2.297   8.408  17.998  0.00  0.00    +0.000 S 
BRANCH  10  12
ATOM     12  N   UNL     1       2.150   7.122  20.402  0.00  0.00    +0.000 N 
ATOM     13  H   UNL     1       1.988   7.308  21.383  0.00  0.00    +0.000 HD
BRANCH  12  18
ATOM     14  C   UNL     1       3.156   1.727  18.768  0.00  0.00    +0.000 C 
ATOM     15  C   UNL     1       2.873   3.130  19.216  0.00  0.00    +0.000 A 
ATOM     16  C   UNL     1       1.618   3.491  19.714  0.00  0.00    +0.000 A 
ATOM     17  C   UNL     1       1.367   4.801  20.142  0.00  0.00    +0.000 A 
ATOM     18  C   UNL     1       2.367   5.770  20.070  0.00  0.00    +0.000 A 
ATOM     19  C   UNL     1       3.614   5.419  19.542  0.00  0.00    +0.000 A 
ATOM     20  C   UNL     1       3.871   4.106  19.134  0.00  0.00    +0.000 A 
ENDBRANCH  12  18
ENDBRANCH  10  12
ENDBRANCH   1  10
BRANCH   5  21
ATOM     21  O   UNL     1      -1.977  12.727  21.744  0.00  0.00    +0.000 OA
BRANCH  21  22
ATOM     22  C   UNL     1      -2.216  13.947  22.512  0.00  0.00    +0.000 C 
ATOM     23  C   UNL     1      -1.100  14.197  23.541  0.00  0.00    +0.000 C 
ATOM     24  C   UNL     1      -2.196  15.115  21.509  0.00  0.00    +0.000 C 
ATOM     25  C   UNL     1      -3.608  13.925  23.162  0.00  0.00    +0.000 C 
ENDBRANCH  21  22
ENDBRANCH   5  21
TORSDOF 5
ENDMDL
MODEL 4
REMARK VINA RESULT:      -6.3      5.019      9.589
REMARK  Name = 
REMARK  10 active torsions:
REMARK  status: ('A' for Active; 'I' for Inactive)
REMARK    1  A    between atoms: C_1  and  C_2
REMARK    2  A    between atoms: C_5  and  N_6
REMARK    3  A    between atoms: N_6  and  C_7
REMARK    4  A    between atoms: C_7  and  N_9
REMARK    5  A    between atoms: C_13  and  O_15
REMARK    6  A    between atoms: O_15  and  C_16
REMARK    7  A    between atoms: C_16  and  C_17
REMARK    8  A    between atoms: C_16  and  C_18
REMARK    9  A    between atoms: C_16  and  C_19
REMARK   10  A    between atoms: C_21  and  C_22
REMARK                            x       y       z     vdW  Elec       q    Type
REMARK                         _______ _______ _______ _____ _____    ______ ____
ROOT
ATOM      1  N   UNL     1       0.850   9.417  20.195  0.00  0.00    +0.000 N 
ATOM      2  C   UNL     1       0.186   8.954  21.426  0.00  0.00    +0.000 C 
ATOM      3  C   UNL     1       0.056  10.081  22.450  0.00  0.00    +0.000 C 
ATOM      4  N   UNL     1      -0.575  11.258  21.859  0.00  0.00    +0.000 N 
ATOM      5  C   UNL     1      -1.710  11.772  22.459  0.00  0.00    +0.000 C 
ATOM      6  O   UNL     1      -2.186  11.259  23.466  0.00  0.00    +0.000 OA
ATOM      7  C   UNL     1       0.083  11.780  20.664  0.00  0.00    +0.000 C 
ATOM      8  C   UNL     1       0.301  10.672  19.602  0.00  0.00    +0.000 C 
ATOM      9  C   UNL     1      -1.015  10.359  18.878  0.00  0.00    +0.000 C 
ENDROOT
BRANCH   1  10
ATOM     10  C   UNL     1       1.708   8.558  19.492  0.00  0.00    +0.000 C 
ATOM     11  S   UNL     1       2.139   8.822  17.894  0.00  0.00    +0.000 S 
BRANCH  10  12
ATOM     12  N   UNL     1       2.091   7.468  20.265  0.00  0.00    +0.000 N 
ATOM     13  H   UNL     1       2.063   7.667  21.256  0.00  0.00    +0.000 HD
BRANCH  12  18
ATOM     14  C   UNL     1       2.559   1.862  19.193  0.00  0.00    +0.000 C 
ATOM     15  C   UNL     1       2.449   3.337  19.448  0.00  0.00    +0.000 A 
ATOM     16  C   UNL     1       3.360   4.238  18.889  0.00  0.00    +0.000 A 
ATOM     17  C   UNL     1       3.240   5.614  19.122  0.00  0.00    +0.000 A 
ATOM     18  C   UNL     1       2.212   6.107  19.923  0.00  0.00    +0.000 A 
ATOM     19  C   UNL     1       1.318   5.204  20.510  0.00  0.00    +0.000 A 
ATOM     20  C   UNL     1       1.424   3.832  20.260  0.00  0.00    +0.000 A 
ENDBRANCH  12  18
ENDBRANCH  10  12
ENDBRANCH   1  10
BRANCH   5  21
ATOM     21  O   UNL     1      -2.249  12.851  21.828  0.00  0.00    +0.000 OA
BRANCH  21  22
ATOM     22  C   UNL     1      -2.292  14.117  22.555  0.00  0.00    +0.000 C 
ATOM     23  C   UNL     1      -1.067  14.288  23.470  0.00  0.00    +0.000 C 
ATOM     24  C   UNL     1      -2.245  15.237  21.500  0.00  0.00    +0.000 C 
ATOM     25  C   UNL     1      -3.614  14.267  23.325  0.00  0.00    +0.000 C 
ENDBRANCH  21  22
ENDBRANCH   5  21
TORSDOF 5
ENDMDL
MODEL 5
REMARK VINA RESULT:      -6.3      5.087      9.385
REMARK  Name = 
REMARK  10 active torsions:
REMARK  status: ('A' for Active; 'I' for Inactive)
REMARK    1  A    between atoms: C_1  and  C_2
REMARK    2  A    between atoms: C_5  and  N_6
REMARK    3  A    between atoms: N_6  and  C_7
REMARK    4  A    between atoms: C_7  and  N_9
REMARK    5  A    between atoms: C_13  and  O_15
REMARK    6  A    between atoms: O_15  and  C_16
REMARK    7  A    between atoms: C_16  and  C_17
REMARK    8  A    between atoms: C_16  and  C_18
REMARK    9  A    between atoms: C_16  and  C_19
REMARK   10  A    between atoms: C_21  and  C_22
REMARK                            x       y       z     vdW  Elec       q    Type
REMARK                         _______ _______ _______ _____ _____    ______ ____
ROOT
ATOM      1  N   UNL     1       0.996   9.351  20.063  0.00  0.00    +0.000 N 
ATOM      2  C   UNL     1       0.396   8.899  21.330  0.00  0.00    +0.000 C 
ATOM      3  C   UNL     1       0.256  10.049  22.326  0.00  0.00    +0.000 C 
ATOM      4  N   UNL     1      -0.443  11.181  21.726  0.00  0.00    +0.000 N 
ATOM      5  C   UNL     1      -1.577  11.667  22.353  0.00  0.00    +0.000 C 
ATOM      6  O   UNL     1      -1.994  11.166  23.391  0.00  0.00    +0.000 OA
ATOM      7  C   UNL     1       0.150  11.695  20.494  0.00  0.00    +0.000 C 
ATOM      8  C   UNL     1       0.374  10.565  19.456  0.00  0.00    +0.000 C 
ATOM      9  C   UNL     1      -0.953  10.179  18.789  0.00  0.00    +0.000 C 
ENDROOT
BRANCH   1  10
ATOM     10  C   UNL     1       1.863   8.507  19.354  0.00  0.00    +0.000 C 
ATOM     11  S   UNL     1       2.336   8.819  17.776  0.00  0.00    +0.000 S 
BRANCH  10  12
ATOM     12  N   UNL     1       2.215   7.388  20.098  0.00  0.00    +0.000 N 
ATOM     13  H   UNL     1       2.446   7.617  21.056  0.00  0.00    +0.000 HD
BRANCH  12  18
ATOM     14  C   UNL     1       1.268   1.905  18.745  0.00  0.00    +0.000 C 
ATOM     15  C   UNL     1       1.520   3.334  19.128  0.00  0.00    +0.000 A 
ATOM     16  C   UNL     1       1.185   3.812  20.398  0.00  0.00    +0.000 A 
ATOM     17  C   UNL     1       1.435   5.144  20.750  0.00  0.00    +0.000 A 
ATOM     18  C   UNL     1       2.018   6.018  19.834  0.00  0.00    +0.000 A 
ATOM     19  C   UNL     1       2.326   5.550  18.552  0.00  0.00    +0.000 A 
ATOM     20  C   UNL     1       2.095   4.215  18.207  0.00  0.00    +0.000 A 
ENDBRANCH  12  18
ENDBRANCH  10  12
ENDBRANCH   1  10
BRANCH   5  21
ATOM     21  O   UNL     1      -2.181  12.705  21.712  0.00  0.00    +0.000 OA
BRANCH  21  22
ATOM     22  C   UNL     1      -2.149  14.017  22.354  0.00  0.00    +0.000 C 
ATOM     23  C   UNL     1      -1.980  15.148  21.325  0.00  0.00    +0.000 C 
ATOM     24  C   UNL     1      -3.515  14.210  23.038  0.00  0.00    +0.000 C 
ATOM     25  C   UNL     1      -1.075  14.068  23.452  0.00  0.00    +0.000 C 
ENDBRANCH  21  22
ENDBRANCH   5  21
TORSDOF 5
ENDMDL
MODEL 6
REMARK VINA RESULT:      -6.2      2.654      4.362
REMARK  Name = 
REMARK  10 active torsions:
REMARK  status: ('A' for Active; 'I' for Inactive)
REMARK    1  A    between atoms: C_1  and  C_2
REMARK    2  A    between atoms: C_5  and  N_6
REMARK    3  A    between atoms: N_6  and  C_7
REMARK    4  A    between atoms: C_7  and  N_9
REMARK    5  A    between atoms: C_13  and  O_15
REMARK    6  A    between atoms: O_15  and  C_16
REMARK    7  A    between atoms: C_16  and  C_17
REMARK    8  A    between atoms: C_16  and  C_18
REMARK    9  A    between atoms: C_16  and  C_19
REMARK   10  A    between atoms: C_21  and  C_22
REMARK                            x       y       z     vdW  Elec       q    Type
REMARK                         _______ _______ _______ _____ _____    ______ ____
ROOT
ATOM      1  N   UNL     1       1.995   7.897  19.504  0.00  0.00    +0.000 N 
ATOM      2  C   UNL     1       2.171   7.740  18.050  0.00  0.00    +0.000 C 
ATOM      3  C   UNL     1       3.539   7.148  17.713  0.00  0.00    +0.000 C 
ATOM      4  N   UNL     1       3.779   5.918  18.462  0.00  0.00    +0.000 N 
ATOM      5  C   UNL     1       4.089   4.766  17.763  0.00  0.00    +0.000 C 
ATOM      6  O   UNL     1       4.164   4.766  16.538  0.00  0.00    +0.000 OA
ATOM      7  C   UNL     1       3.665   6.043  19.913  0.00  0.00    +0.000 C 
ATOM      8  C   UNL     1       2.318   6.693  20.325  0.00  0.00    +0.000 C 
ATOM      9  C   UNL     1       1.175   5.676  20.209  0.00  0.00    +0.000 C 
ENDROOT
BRANCH   1  10
ATOM     10  C   UNL     1       1.277   8.991  20.011  0.00  0.00    +0.000 C 
ATOM     11  S   UNL     1       0.942   9.172  21.644  0.00  0.00    +0.000 S 
BRANCH  10  12
ATOM     12  N   UNL     1       0.852   9.842  18.999  0.00  0.00    +0.000 N 
ATOM     13  H   UNL     1       1.567  10.004  18.303  0.00  0.00    +0.000 HD
BRANCH  12  18
ATOM     14  C   UNL     1      -4.322  11.542  17.229  0.00  0.00    +0.000 C 
ATOM     15  C   UNL     1      -2.974  11.104  17.721  0.00  0.00    +0.000 A 
ATOM     16  C   UNL     1      -2.383  11.700  18.839  0.00  0.00    +0.000 A 
ATOM     17  C   UNL     1      -1.129  11.275  19.297  0.00  0.00    +0.000 A 
ATOM     18  C   UNL     1      -0.447  10.253  18.639  0.00  0.00    +0.000 A 
ATOM     19  C   UNL     1      -1.023   9.677  17.501  0.00  0.00    +0.000 A 
ATOM     20  C   UNL     1      -2.283  10.086  17.056  0.00  0.00    +0.000 A 
ENDBRANCH  12  18
ENDBRANCH  10  12
ENDBRANCH   1  10
BRANCH   5  21
ATOM     21  O   UNL     1       4.269   3.661  18.536  0.00  0.00    +0.000 OA
BRANCH  21  22
ATOM     22  C   UNL     1       3.158   2.721  18.656  0.00  0.00    +0.000 C 
ATOM     23  C   UNL     1       1.953   3.157  17.804  0.00  0.00    +0.000 C 
ATOM     24  C   UNL     1       3.654   1.373  18.105  0.00  0.00    +0.000 C 
ATOM     25  C   UNL     1       2.776   2.503  20.128  0.00  0.00    +0.000 C 
ENDBRANCH  21  22
ENDBRANCH   5  21
TORSDOF 5
ENDMDL
MODEL 7
REMARK VINA RESULT:      -6.1      4.743      9.083
REMARK  Name = 
REMARK  10 active torsions:
REMARK  status: ('A' for Active; 'I' for Inactive)
REMARK    1  A    between atoms: C_1  and  C_2
REMARK    2  A    between atoms: C_5  and  N_6
REMARK    3  A    between atoms: N_6  and  C_7
REMARK    4  A    between atoms: C_7  and  N_9
REMARK    5  A    between atoms: C_13  and  O_15
REMARK    6  A    between atoms: O_15  and  C_16
REMARK    7  A    between atoms: C_16  and  C_17
REMARK    8  A    between atoms: C_16  and  C_18
REMARK    9  A    between atoms: C_16  and  C_19
REMARK   10  A    between atoms: C_21  and  C_22
REMARK                            x       y       z     vdW  Elec       q    Type
REMARK                         _______ _______ _______ _____ _____    ______ ____
ROOT
ATOM      1  N   UNL     1       1.341   8.944  20.066  0.00  0.00    +0.000 N 
ATOM      2  C   UNL     1       0.598   8.576  21.284  0.00  0.00    +0.000 C 
ATOM      3  C   UNL     1       0.665   9.681  22.337  0.00  0.00    +0.000 C 
ATOM      4  N   UNL     1       0.258  10.966  21.776  0.00  0.00    +0.000 N 
ATOM      5  C   UNL     1      -0.771  11.660  22.388  0.00  0.00    +0.000 C 
ATOM      6  O   UNL     1      -1.336  11.214  23.381  0.00  0.00    +0.000 OA
ATOM      7  C   UNL     1       1.006  11.394  20.597  0.00  0.00    +0.000 C 
ATOM      8  C   UNL     1       1.028  10.292  19.506  0.00  0.00    +0.000 C 
ATOM      9  C   UNL     1      -0.318  10.238  18.772  0.00  0.00    +0.000 C 
ENDROOT
BRANCH   1  10
ATOM     10  C   UNL     1       2.036   7.964  19.342  0.00  0.00    +0.000 C 
ATOM     11  S   UNL     1       2.461   8.163  17.733  0.00  0.00    +0.000 S 
BRANCH  10  12
ATOM     12  N   UNL     1       2.263   6.825  20.105  0.00  0.00    +0.000 N 
ATOM     13  H   UNL     1       1.972   6.938  21.067  0.00  0.00    +0.000 HD
BRANCH  12  18
ATOM     14  C   UNL     1       3.575   1.565  18.259  0.00  0.00    +0.000 C 
ATOM     15  C   UNL     1       3.207   2.933  18.755  0.00  0.00    +0.000 A 
ATOM     16  C   UNL     1       1.870   3.301  18.935  0.00  0.00    +0.000 A 
ATOM     17  C   UNL     1       1.537   4.576  19.411  0.00  0.00    +0.000 A 
ATOM     18  C   UNL     1       2.537   5.502  19.706  0.00  0.00    +0.000 A 
ATOM     19  C   UNL     1       3.874   5.146  19.497  0.00  0.00    +0.000 A 
ATOM     20  C   UNL     1       4.207   3.866  19.042  0.00  0.00    +0.000 A 
ENDBRANCH  12  18
ENDBRANCH  10  12
ENDBRANCH   1  10
BRANCH   5  21
ATOM     21  O   UNL     1      -1.104  12.833  21.786  0.00  0.00    +0.000 OA
BRANCH  21  22
ATOM     22  C   UNL     1      -2.506  13.049  21.437  0.00  0.00    +0.000 C 
ATOM     23  C   UNL     1      -3.447  12.593  22.564  0.00  0.00    +0.000 C 
ATOM     24  C   UNL     1      -2.691  14.567  21.260  0.00  0.00    +0.000 C 
ATOM     25  C   UNL     1      -2.848  12.386  20.093  0.00  0.00    +0.000 C 
ENDBRANCH  21  22
ENDBRANCH   5  21
TORSDOF 5
ENDMDL
MODEL 8
REMARK VINA RESULT:      -6.0      3.969      6.204
REMARK  Name = 
REMARK  10 active torsions:
REMARK  status: ('A' for Active; 'I' for Inactive)
REMARK    1  A    between atoms: C_1  and  C_2
REMARK    2  A    between atoms: C_5  and  N_6
REMARK    3  A    between atoms: N_6  and  C_7
REMARK    4  A    between atoms: C_7  and  N_9
REMARK    5  A    between atoms: C_13  and  O_15
REMARK    6  A    between atoms: O_15  and  C_16
REMARK    7  A    between atoms: C_16  and  C_17
REMARK    8  A    between atoms: C_16  and  C_18
REMARK    9  A    between atoms: C_16  and  C_19
REMARK   10  A    between atoms: C_21  and  C_22
REMARK                            x       y       z     vdW  Elec       q    Type
REMARK                         _______ _______ _______ _____ _____    ______ ____
ROOT
ATOM      1  N   UNL     1       1.094  10.007  19.314  0.00  0.00    +0.000 N 
ATOM      2  C   UNL     1       1.294   9.251  18.066  0.00  0.00    +0.000 C 
ATOM      3  C   UNL     1       2.401   8.209  18.213  0.00  0.00    +0.000 C 
ATOM      4  N   UNL     1       2.169   7.356  19.376  0.00  0.00    +0.000 N 
ATOM      5  C   UNL     1       2.115   5.986  19.192  0.00  0.00    +0.000 C 
ATOM      6  O   UNL     1       2.260   5.487  18.081  0.00  0.00    +0.000 OA
ATOM      7  C   UNL     1       2.017   8.064  20.644  0.00  0.00    +0.000 C 
ATOM      8  C   UNL     1       0.944   9.180  20.549  0.00  0.00    +0.000 C 
ATOM      9  C   UNL     1      -0.465   8.574  20.588  0.00  0.00    +0.000 C 
ENDROOT
BRANCH   1  10
ATOM     10  C   UNL     1       0.756  11.367  19.267  0.00  0.00    +0.000 C 
ATOM     11  S   UNL     1       1.388  12.492  20.338  0.00  0.00    +0.000 S 
BRANCH  10  12
ATOM     12  N   UNL     1      -0.184  11.630  18.278  0.00  0.00    +0.000 N 
ATOM     13  H   UNL     1       0.234  11.737  17.364  0.00  0.00    +0.000 HD
BRANCH  12  18
ATOM     14  C   UNL     1      -5.878  11.085  18.005  0.00  0.00    +0.000 C 
ATOM     15  C   UNL     1      -4.388  11.231  18.106  0.00  0.00    +0.000 A 
ATOM     16  C   UNL     1      -3.803  11.993  19.121  0.00  0.00    +0.000 A 
ATOM     17  C   UNL     1      -2.411  12.113  19.215  0.00  0.00    +0.000 A 
ATOM     18  C   UNL     1      -1.585  11.477  18.289  0.00  0.00    +0.000 A 
ATOM     19  C   UNL     1      -2.169  10.740  17.254  0.00  0.00    +0.000 A 
ATOM     20  C   UNL     1      -3.558  10.603  17.173  0.00  0.00    +0.000 A 
ENDBRANCH  12  18
ENDBRANCH  10  12
ENDBRANCH   1  10
BRANCH   5  21
ATOM     21  O   UNL     1       1.868   5.269  20.322  0.00  0.00    +0.000 OA
BRANCH  21  22
ATOM     22  C   UNL     1       2.111   3.829  20.285  0.00  0.00    +0.000 C 
ATOM     23  C   UNL     1       3.512   3.505  19.737  0.00  0.00    +0.000 C 
ATOM     24  C   UNL     1       2.054   3.332  21.740  0.00  0.00    +0.000 C 
ATOM     25  C   UNL     1       1.004   3.101  19.507  0.00  0.00    +0.000 C 
ENDBRANCH  21  22
ENDBRANCH   5  21
TORSDOF 5
ENDMDL
MODEL 9
REMARK VINA RESULT:      -6.0      4.849      9.183
REMARK  Name = 
REMARK  10 active torsions:
REMARK  status: ('A' for Active; 'I' for Inactive)
REMARK    1  A    between atoms: C_1  and  C_2
REMARK    2  A    between atoms: C_5  and  N_6
REMARK    3  A    between atoms: N_6  and  C_7
REMARK    4  A    between atoms: C_7  and  N_9
REMARK    5  A    between atoms: C_13  and  O_15
REMARK    6  A    between atoms: O_15  and  C_16
REMARK    7  A    between atoms: C_16  and  C_17
REMARK    8  A    between atoms: C_16  and  C_18
REMARK    9  A    between atoms: C_16  and  C_19
REMARK   10  A    between atoms: C_21  and  C_22
REMARK                            x       y       z     vdW  Elec       q    Type
REMARK                         _______ _______ _______ _____ _____    ______ ____
ROOT
ATOM      1  N   UNL     1       1.190   9.029  20.182  0.00  0.00    +0.000 N 
ATOM      2  C   UNL     1       0.296   8.579  21.262  0.00  0.00    +0.000 C 
ATOM      3  C   UNL     1       0.270   9.576  22.420  0.00  0.00    +0.000 C 
ATOM      4  N   UNL     1      -0.026  10.925  21.946  0.00  0.00    +0.000 N 
ATOM      5  C   UNL     1      -1.099  11.601  22.500  0.00  0.00    +0.000 C 
ATOM      6  O   UNL     1      -1.793  11.088  23.371  0.00  0.00    +0.000 OA
ATOM      7  C   UNL     1       0.871  11.430  20.910  0.00  0.00    +0.000 C 
ATOM      8  C   UNL     1       0.989  10.436  19.725  0.00  0.00    +0.000 C 
ATOM      9  C   UNL     1      -0.261  10.510  18.838  0.00  0.00    +0.000 C 
ENDROOT
BRANCH   1  10
ATOM     10  C   UNL     1       1.935   8.093  19.450  0.00  0.00    +0.000 C 
ATOM     11  S   UNL     1       2.387   8.347  17.855  0.00  0.00    +0.000 S 
BRANCH  10  12
ATOM     12  N   UNL     1       2.189   6.945  20.190  0.00  0.00    +0.000 N 
ATOM     13  H   UNL     1       1.843   7.010  21.138  0.00  0.00    +0.000 HD
BRANCH  12  18
ATOM     14  C   UNL     1       3.519   1.572  18.723  0.00  0.00    +0.000 C 
ATOM     15  C   UNL     1       3.195   2.989  19.093  0.00  0.00    +0.000 A 
ATOM     16  C   UNL     1       4.200   3.951  19.225  0.00  0.00    +0.000 A 
ATOM     17  C   UNL     1       3.886   5.275  19.557  0.00  0.00    +0.000 A 
ATOM     18  C   UNL     1       2.561   5.653  19.769  0.00  0.00    +0.000 A 
ATOM     19  C   UNL     1       1.556   4.685  19.668  0.00  0.00    +0.000 A 
ATOM     20  C   UNL     1       1.867   3.368  19.316  0.00  0.00    +0.000 A 
ENDBRANCH  12  18
ENDBRANCH  10  12
ENDBRANCH   1  10
BRANCH   5  21
ATOM     21  O   UNL     1      -1.320  12.839  21.981  0.00  0.00    +0.000 OA
BRANCH  21  22
ATOM     22  C   UNL     1      -2.648  13.129  21.445  0.00  0.00    +0.000 C 
ATOM     23  C   UNL     1      -2.946  12.294  20.188  0.00  0.00    +0.000 C 
ATOM     24  C   UNL     1      -3.663  12.720  22.528  0.00  0.00    +0.000 C 
ATOM     25  C   UNL     1      -2.826  14.635  21.195  0.00  0.00    +0.000 C 
ENDBRANCH  21  22
ENDBRANCH   5  21
TORSDOF 5
ENDMDL
