MODEL 1
REMARK VINA RESULT:      -5.9      0.000      0.000
REMARK  Name = 
REMARK  4 active torsions:
REMARK  status: ('A' for Active; 'I' for Inactive)
REMARK    1  A    between atoms: C_1  and  O_2
REMARK    2  A    between atoms: O_2  and  C_3
REMARK    3  A    between atoms: C_6  and  C_7
REMARK    4  A    between atoms: N_15  and  C_16
REMARK                            x       y       z     vdW  Elec       q    Type
REMARK                         _______ _______ _______ _____ _____    ______ ____
ROOT
ATOM      1  C   UNL     1      10.418  14.389  18.249  0.00  0.00    +0.000 A 
ATOM      2  C   UNL     1      11.372  14.722  17.348  0.00  0.00    +0.000 A 
ATOM      3 CL   UNL     1      12.216  13.537  16.391  0.00  0.00    +0.000 Cl
ATOM      4  N   UNL     1      11.766  16.005  17.058  0.00  0.00    +0.000 NA
ATOM      5  C   UNL     1      11.117  16.957  17.649  0.00  0.00    +0.000 A 
ATOM      6 CL   UNL     1      11.577  18.572  17.313  0.00  0.00    +0.000 Cl
ATOM      7  C   UNL     1       9.983  16.745  18.635  0.00  0.00    +0.000 A 
ATOM      8  O   UNL     1       9.422  17.725  19.115  0.00  0.00    +0.000 OA
ATOM      9  N   UNL     1       9.717  15.395  18.931  0.00  0.00    +0.000 N 
ENDROOT
BRANCH   1  13
ATOM     10  C   UNL     1       9.177  10.310  18.827  0.00  0.00    +0.000 A 
ATOM     11  C   UNL     1       8.566  11.099  17.851  0.00  0.00    +0.000 A 
ATOM     12  C   UNL     1       8.983  12.416  17.634  0.00  0.00    +0.000 A 
ATOM     13  C   UNL     1      10.010  12.968  18.407  0.00  0.00    +0.000 A 
ATOM     14  C   UNL     1      10.608  12.177  19.402  0.00  0.00    +0.000 A 
ATOM     15  C   UNL     1      10.193  10.855  19.610  0.00  0.00    +0.000 A 
BRANCH  10  17
ATOM     16  C   UNL     1       7.982   8.538  17.813  0.00  0.00    +0.000 C 
ATOM     17  O   UNL     1       8.672   9.044  18.950  0.00  0.00    +0.000 OA
ENDBRANCH  10  17
ENDBRANCH   1  13
BRANCH   9  18
ATOM     18  C   UNL     1       8.752  15.142  19.952  0.00  0.00    +0.000 A 
ATOM     19  C   UNL     1       7.386  15.104  19.641  0.00  0.00    +0.000 A 
ATOM     20  C   UNL     1       6.439  14.915  20.650  0.00  0.00    +0.000 A 
ATOM     21  C   UNL     1       6.846  14.786  21.977  0.00  0.00    +0.000 A 
ATOM     22  C   UNL     1       8.203  14.836  22.296  0.00  0.00    +0.000 A 
ATOM     23  C   UNL     1       9.152  15.010  21.289  0.00  0.00    +0.000 A 
ENDBRANCH   9  18
TORSDOF 3
ENDMDL
MODEL 2
REMARK VINA RESULT:      -5.6      8.682     10.290
REMARK  Name = 
REMARK  4 active torsions:
REMARK  status: ('A' for Active; 'I' for Inactive)
REMARK    1  A    between atoms: C_1  and  O_2
REMARK    2  A    between atoms: O_2  and  C_3
REMARK    3  A    between atoms: C_6  and  C_7
REMARK    4  A    between atoms: N_15  and  C_16
REMARK                            x       y       z     vdW  Elec       q    Type
REMARK                         _______ _______ _______ _____ _____    ______ ____
ROOT
ATOM      1  C   UNL     1       0.818  13.010  20.081  0.00  0.00    +0.000 A 
ATOM      2  C   UNL     1       2.044  13.343  19.614  0.00  0.00    +0.000 A 
ATOM      3 CL   UNL     1       2.682  12.719  18.118  0.00  0.00    +0.000 Cl
ATOM      4  N   UNL     1       2.908  14.216  20.227  0.00  0.00    +0.000 NA
ATOM      5  C   UNL     1       2.472  14.808  21.293  0.00  0.00    +0.000 A 
ATOM      6 CL   UNL     1       3.520  15.906  22.086  0.00  0.00    +0.000 Cl
ATOM      7  C   UNL     1       1.101  14.587  21.903  0.00  0.00    +0.000 A 
ATOM      8  O   UNL     1       0.786  15.224  22.903  0.00  0.00    +0.000 OA
ATOM      9  N   UNL     1       0.328  13.609  21.252  0.00  0.00    +0.000 N 
ENDROOT
BRANCH   1  13
ATOM     10  C   UNL     1      -1.821  10.427  17.871  0.00  0.00    +0.000 A 
ATOM     11  C   UNL     1      -1.839  11.805  17.651  0.00  0.00    +0.000 A 
ATOM     12  C   UNL     1      -0.963  12.650  18.341  0.00  0.00    +0.000 A 
ATOM     13  C   UNL     1      -0.067  12.125  19.278  0.00  0.00    +0.000 A 
ATOM     14  C   UNL     1      -0.067  10.740  19.512  0.00  0.00    +0.000 A 
ATOM     15  C   UNL     1      -0.940   9.896  18.812  0.00  0.00    +0.000 A 
BRANCH  10  17
ATOM     16  C   UNL     1      -2.778  10.000  15.751  0.00  0.00    +0.000 C 
ATOM     17  O   UNL     1      -2.731   9.711  17.144  0.00  0.00    +0.000 OA
ENDBRANCH  10  17
ENDBRANCH   1  13
BRANCH   9  18
ATOM     18  C   UNL     1      -0.916  13.265  21.862  0.00  0.00    +0.000 A 
ATOM     19  C   UNL     1      -1.000  12.168  22.730  0.00  0.00    +0.000 A 
ATOM     20  C   UNL     1      -2.228  11.796  23.279  0.00  0.00    +0.000 A 
ATOM     21  C   UNL     1      -3.384  12.501  22.949  0.00  0.00    +0.000 A 
ATOM     22  C   UNL     1      -3.312  13.585  22.075  0.00  0.00    +0.000 A 
ATOM     23  C   UNL     1      -2.084  13.968  21.536  0.00  0.00    +0.000 A 
ENDBRANCH   9  18
TORSDOF 3
ENDMDL
MODEL 3
REMARK VINA RESULT:      -5.6      8.747     10.316
REMARK  Name = 
REMARK  4 active torsions:
REMARK  status: ('A' for Active; 'I' for Inactive)
REMARK    1  A    between atoms: C_1  and  O_2
REMARK    2  A    between atoms: O_2  and  C_3
REMARK    3  A    between atoms: C_6  and  C_7
REMARK    4  A    between atoms: N_15  and  C_16
REMARK                            x       y       z     vdW  Elec       q    Type
REMARK                         _______ _______ _______ _____ _____    ______ ____
ROOT
ATOM      1  C   UNL     1       0.760  12.992  20.056  0.00  0.00    +0.000 A 
ATOM      2  C   UNL     1       1.983  13.377  19.622  0.00  0.00    +0.000 A 
ATOM      3 CL   UNL     1       2.669  12.817  18.123  0.00  0.00    +0.000 Cl
ATOM      4  N   UNL     1       2.807  14.260  20.277  0.00  0.00    +0.000 NA
ATOM      5  C   UNL     1       2.332  14.807  21.350  0.00  0.00    +0.000 A 
ATOM      6 CL   UNL     1       3.328  15.915  22.194  0.00  0.00    +0.000 Cl
ATOM      7  C   UNL     1       0.957  14.525  21.927  0.00  0.00    +0.000 A 
ATOM      8  O   UNL     1       0.602  15.122  22.937  0.00  0.00    +0.000 OA
ATOM      9  N   UNL     1       0.229  13.541  21.233  0.00  0.00    +0.000 N 
ENDROOT
BRANCH   1  13
ATOM     10  C   UNL     1      -1.749  10.387  17.724  0.00  0.00    +0.000 A 
ATOM     11  C   UNL     1      -1.829  11.771  17.561  0.00  0.00    +0.000 A 
ATOM     12  C   UNL     1      -0.996  12.625  18.291  0.00  0.00    +0.000 A 
ATOM     13  C   UNL     1      -0.081  12.102  19.211  0.00  0.00    +0.000 A 
ATOM     14  C   UNL     1      -0.018  10.710  19.387  0.00  0.00    +0.000 A 
ATOM     15  C   UNL     1      -0.848   9.857  18.647  0.00  0.00    +0.000 A 
BRANCH  10  17
ATOM     16  C   UNL     1      -2.849  10.149  15.644  0.00  0.00    +0.000 C 
ATOM     17  O   UNL     1      -2.622   9.662  16.961  0.00  0.00    +0.000 OA
ENDBRANCH  10  17
ENDBRANCH   1  13
BRANCH   9  18
ATOM     18  C   UNL     1      -1.015  13.140  21.809  0.00  0.00    +0.000 A 
ATOM     19  C   UNL     1      -2.190  13.846  21.519  0.00  0.00    +0.000 A 
ATOM     20  C   UNL     1      -3.395  13.491  22.129  0.00  0.00    +0.000 A 
ATOM     21  C   UNL     1      -3.431  12.444  23.047  0.00  0.00    +0.000 A 
ATOM     22  C   UNL     1      -2.264  11.744  23.351  0.00  0.00    +0.000 A 
ATOM     23  C   UNL     1      -1.062  12.088  22.733  0.00  0.00    +0.000 A 
ENDBRANCH   9  18
TORSDOF 3
ENDMDL
MODEL 4
REMARK VINA RESULT:      -5.6      8.737     10.379
REMARK  Name = 
REMARK  4 active torsions:
REMARK  status: ('A' for Active; 'I' for Inactive)
REMARK    1  A    between atoms: C_1  and  O_2
REMARK    2  A    between atoms: O_2  and  C_3
REMARK    3  A    between atoms: C_6  and  C_7
REMARK    4  A    between atoms: N_15  and  C_16
REMARK                            x       y       z     vdW  Elec       q    Type
REMARK                         _______ _______ _______ _____ _____    ______ ____
ROOT
ATOM      1  C   UNL     1       0.734  12.923  20.078  0.00  0.00    +0.000 A 
ATOM      2  C   UNL     1       1.973  13.197  19.606  0.00  0.00    +0.000 A 
ATOM      3 CL   UNL     1       2.581  12.530  18.117  0.00  0.00    +0.000 Cl
ATOM      4  N   UNL     1       2.875  14.039  20.209  0.00  0.00    +0.000 NA
ATOM      5  C   UNL     1       2.467  14.661  21.269  0.00  0.00    +0.000 A 
ATOM      6 CL   UNL     1       3.562  15.722  22.048  0.00  0.00    +0.000 Cl
ATOM      7  C   UNL     1       1.088  14.506  21.883  0.00  0.00    +0.000 A 
ATOM      8  O   UNL     1       0.802  15.167  22.875  0.00  0.00    +0.000 OA
ATOM      9  N   UNL     1       0.272  13.555  21.243  0.00  0.00    +0.000 N 
ENDROOT
BRANCH   1  13
ATOM     10  C   UNL     1      -1.860  10.471  17.675  0.00  0.00    +0.000 A 
ATOM     11  C   UNL     1      -1.023   9.886  18.627  0.00  0.00    +0.000 A 
ATOM     12  C   UNL     1      -0.199  10.677  19.435  0.00  0.00    +0.000 A 
ATOM     13  C   UNL     1      -0.189  12.068  19.286  0.00  0.00    +0.000 A 
ATOM     14  C   UNL     1      -1.017  12.650  18.313  0.00  0.00    +0.000 A 
ATOM     15  C   UNL     1      -1.848  11.855  17.511  0.00  0.00    +0.000 A 
BRANCH  10  17
ATOM     16  C   UNL     1      -2.848   9.960  15.588  0.00  0.00    +0.000 C 
ATOM     17  O   UNL     1      -2.608   9.592  16.941  0.00  0.00    +0.000 OA
ENDBRANCH  10  17
ENDBRANCH   1  13
BRANCH   9  18
ATOM     18  C   UNL     1      -0.985  13.272  21.858  0.00  0.00    +0.000 A 
ATOM     19  C   UNL     1      -1.115  12.188  22.736  0.00  0.00    +0.000 A 
ATOM     20  C   UNL     1      -2.358  11.875  23.290  0.00  0.00    +0.000 A 
ATOM     21  C   UNL     1      -3.482  12.628  22.956  0.00  0.00    +0.000 A 
ATOM     22  C   UNL     1      -3.363  13.700  22.072  0.00  0.00    +0.000 A 
ATOM     23  C   UNL     1      -2.121  14.023  21.528  0.00  0.00    +0.000 A 
ENDBRANCH   9  18
TORSDOF 3
ENDMDL
MODEL 5
REMARK VINA RESULT:      -5.5      8.802     10.405
REMARK  Name = 
REMARK  4 active torsions:
REMARK  status: ('A' for Active; 'I' for Inactive)
REMARK    1  A    between atoms: C_1  and  O_2
REMARK    2  A    between atoms: O_2  and  C_3
REMARK    3  A    between atoms: C_6  and  C_7
REMARK    4  A    between atoms: N_15  and  C_16
REMARK                            x       y       z     vdW  Elec       q    Type
REMARK                         _______ _______ _______ _____ _____    ______ ____
ROOT
ATOM      1  C   UNL     1       0.677  12.899  20.031  0.00  0.00    +0.000 A 
ATOM      2  C   UNL     1       1.919  13.217  19.599  0.00  0.00    +0.000 A 
ATOM      3 CL   UNL     1       2.585  12.602  18.113  0.00  0.00    +0.000 Cl
ATOM      4  N   UNL     1       2.782  14.068  20.246  0.00  0.00    +0.000 NA
ATOM      5  C   UNL     1       2.329  14.654  21.308  0.00  0.00    +0.000 A 
ATOM      6 CL   UNL     1       3.374  15.724  22.142  0.00  0.00    +0.000 Cl
ATOM      7  C   UNL     1       0.939  14.448  21.881  0.00  0.00    +0.000 A 
ATOM      8  O   UNL     1       0.609  15.077  22.881  0.00  0.00    +0.000 OA
ATOM      9  N   UNL     1       0.167  13.491  21.197  0.00  0.00    +0.000 N 
ENDROOT
BRANCH   1  13
ATOM     10  C   UNL     1      -1.788  10.441  17.501  0.00  0.00    +0.000 A 
ATOM     11  C   UNL     1      -0.927   9.853  18.430  0.00  0.00    +0.000 A 
ATOM     12  C   UNL     1      -0.145  10.643  19.278  0.00  0.00    +0.000 A 
ATOM     13  C   UNL     1      -0.202  12.039  19.195  0.00  0.00    +0.000 A 
ATOM     14  C   UNL     1      -1.054  12.626  18.246  0.00  0.00    +0.000 A 
ATOM     15  C   UNL     1      -1.843  11.831  17.403  0.00  0.00    +0.000 A 
BRANCH  10  17
ATOM     16  C   UNL     1      -2.898  10.050  15.450  0.00  0.00    +0.000 C 
ATOM     17  O   UNL     1      -2.491   9.563  16.723  0.00  0.00    +0.000 OA
ENDBRANCH  10  17
ENDBRANCH   1  13
BRANCH   9  18
ATOM     18  C   UNL     1      -1.098  13.160  21.771  0.00  0.00    +0.000 A 
ATOM     19  C   UNL     1      -2.232  13.926  21.475  0.00  0.00    +0.000 A 
ATOM     20  C   UNL     1      -3.456  13.639  22.083  0.00  0.00    +0.000 A 
ATOM     21  C   UNL     1      -3.550  12.600  23.007  0.00  0.00    +0.000 A 
ATOM     22  C   UNL     1      -2.423  11.840  23.318  0.00  0.00    +0.000 A 
ATOM     23  C   UNL     1      -1.203  12.117  22.701  0.00  0.00    +0.000 A 
ENDBRANCH   9  18
TORSDOF 3
ENDMDL
MODEL 6
REMARK VINA RESULT:      -5.5      3.217      6.621
REMARK  Name = 
REMARK  4 active torsions:
REMARK  status: ('A' for Active; 'I' for Inactive)
REMARK    1  A    between atoms: C_1  and  O_2
REMARK    2  A    between atoms: O_2  and  C_3
REMARK    3  A    between atoms: C_6  and  C_7
REMARK    4  A    between atoms: N_15  and  C_16
REMARK                            x       y       z     vdW  Elec       q    Type
REMARK                         _______ _______ _______ _____ _____    ______ ____
ROOT
ATOM      1  C   UNL     1       8.702  14.220  21.316  0.00  0.00    +0.000 A 
ATOM      2  C   UNL     1       7.937  14.629  22.355  0.00  0.00    +0.000 A 
ATOM      3 CL   UNL     1       7.409  16.277  22.543  0.00  0.00    +0.000 Cl
ATOM      4  N   UNL     1       7.465  13.812  23.353  0.00  0.00    +0.000 NA
ATOM      5  C   UNL     1       7.723  12.548  23.236  0.00  0.00    +0.000 A 
ATOM      6 CL   UNL     1       7.151  11.496  24.460  0.00  0.00    +0.000 Cl
ATOM      7  C   UNL     1       8.514  11.930  22.098  0.00  0.00    +0.000 A 
ATOM      8  O   UNL     1       8.675  10.715  22.078  0.00  0.00    +0.000 OA
ATOM      9  N   UNL     1       9.027  12.862  21.177  0.00  0.00    +0.000 N 
ENDROOT
BRANCH   1  13
ATOM     10  C   UNL     1       9.682  17.091  18.264  0.00  0.00    +0.000 A 
ATOM     11  C   UNL     1      10.577  16.838  19.305  0.00  0.00    +0.000 A 
ATOM     12  C   UNL     1      10.282  15.885  20.284  0.00  0.00    +0.000 A 
ATOM     13  C   UNL     1       9.073  15.181  20.243  0.00  0.00    +0.000 A 
ATOM     14  C   UNL     1       8.166  15.453  19.206  0.00  0.00    +0.000 A 
ATOM     15  C   UNL     1       8.470  16.404  18.222  0.00  0.00    +0.000 A 
BRANCH  10  17
ATOM     16  C   UNL     1      11.457  18.410  17.426  0.00  0.00    +0.000 C 
ATOM     17  O   UNL     1      10.081  18.052  17.377  0.00  0.00    +0.000 OA
ENDBRANCH  10  17
ENDBRANCH   1  13
BRANCH   9  18
ATOM     18  C   UNL     1       9.890  12.349  20.161  0.00  0.00    +0.000 A 
ATOM     19  C   UNL     1      11.271  12.266  20.381  0.00  0.00    +0.000 A 
ATOM     20  C   UNL     1      12.121  11.821  19.366  0.00  0.00    +0.000 A 
ATOM     21  C   UNL     1      11.601  11.477  18.120  0.00  0.00    +0.000 A 
ATOM     22  C   UNL     1      10.229  11.569  17.888  0.00  0.00    +0.000 A 
ATOM     23  C   UNL     1       9.377  12.000  18.905  0.00  0.00    +0.000 A 
ENDBRANCH   9  18
TORSDOF 3
ENDMDL
MODEL 7
REMARK VINA RESULT:      -5.4      8.070     11.465
REMARK  Name = 
REMARK  4 active torsions:
REMARK  status: ('A' for Active; 'I' for Inactive)
REMARK    1  A    between atoms: C_1  and  O_2
REMARK    2  A    between atoms: O_2  and  C_3
REMARK    3  A    between atoms: C_6  and  C_7
REMARK    4  A    between atoms: N_15  and  C_16
REMARK                            x       y       z     vdW  Elec       q    Type
REMARK                         _______ _______ _______ _____ _____    ______ ____
ROOT
ATOM      1  C   UNL     1       3.628   4.480  17.992  0.00  0.00    +0.000 A 
ATOM      2  C   UNL     1       3.745   3.202  17.562  0.00  0.00    +0.000 A 
ATOM      3 CL   UNL     1       5.146   2.621  16.708  0.00  0.00    +0.000 Cl
ATOM      4  N   UNL     1       2.811   2.216  17.766  0.00  0.00    +0.000 NA
ATOM      5  C   UNL     1       1.781   2.534  18.485  0.00  0.00    +0.000 A 
ATOM      6 CL   UNL     1       0.595   1.331  18.763  0.00  0.00    +0.000 Cl
ATOM      7  C   UNL     1       1.540   3.906  19.087  0.00  0.00    +0.000 A 
ATOM      8  O   UNL     1       0.540   4.085  19.774  0.00  0.00    +0.000 OA
ATOM      9  N   UNL     1       2.509   4.867  18.746  0.00  0.00    +0.000 N 
ENDROOT
BRANCH   1  13
ATOM     10  C   UNL     1       6.958   7.137  17.388  0.00  0.00    +0.000 A 
ATOM     11  C   UNL     1       5.923   7.085  16.454  0.00  0.00    +0.000 A 
ATOM     12  C   UNL     1       4.821   6.248  16.656  0.00  0.00    +0.000 A 
ATOM     13  C   UNL     1       4.750   5.436  17.793  0.00  0.00    +0.000 A 
ATOM     14  C   UNL     1       5.804   5.476  18.720  0.00  0.00    +0.000 A 
ATOM     15  C   UNL     1       6.903   6.323  18.518  0.00  0.00    +0.000 A 
BRANCH  10  17
ATOM     16  C   UNL     1       8.201   9.061  17.978  0.00  0.00    +0.000 C 
ATOM     17  O   UNL     1       7.983   7.986  17.072  0.00  0.00    +0.000 OA
ENDBRANCH  10  17
ENDBRANCH   1  13
BRANCH   9  18
ATOM     18  C   UNL     1       2.261   6.206  19.175  0.00  0.00    +0.000 A 
ATOM     19  C   UNL     1       2.027   6.484  20.528  0.00  0.00    +0.000 A 
ATOM     20  C   UNL     1       1.725   7.784  20.938  0.00  0.00    +0.000 A 
ATOM     21  C   UNL     1       1.634   8.810  19.999  0.00  0.00    +0.000 A 
ATOM     22  C   UNL     1       1.853   8.540  18.649  0.00  0.00    +0.000 A 
ATOM     23  C   UNL     1       2.168   7.245  18.238  0.00  0.00    +0.000 A 
ENDBRANCH   9  18
TORSDOF 3
ENDMDL
MODEL 8
REMARK VINA RESULT:      -5.3      8.837     11.064
REMARK  Name = 
REMARK  4 active torsions:
REMARK  status: ('A' for Active; 'I' for Inactive)
REMARK    1  A    between atoms: C_1  and  O_2
REMARK    2  A    between atoms: O_2  and  C_3
REMARK    3  A    between atoms: C_6  and  C_7
REMARK    4  A    between atoms: N_15  and  C_16
REMARK                            x       y       z     vdW  Elec       q    Type
REMARK                         _______ _______ _______ _____ _____    ______ ____
ROOT
ATOM      1  C   UNL     1       0.221  13.837  20.644  0.00  0.00    +0.000 A 
ATOM      2  C   UNL     1       0.929  14.891  21.113  0.00  0.00    +0.000 A 
ATOM      3 CL   UNL     1       0.602  15.633  22.654  0.00  0.00    +0.000 Cl
ATOM      4  N   UNL     1       1.989  15.476  20.465  0.00  0.00    +0.000 NA
ATOM      5  C   UNL     1       2.368  14.921  19.358  0.00  0.00    +0.000 A 
ATOM      6 CL   UNL     1       3.688  15.621  18.521  0.00  0.00    +0.000 Cl
ATOM      7  C   UNL     1       1.715  13.700  18.737  0.00  0.00    +0.000 A 
ATOM      8  O   UNL     1       2.177  13.245  17.696  0.00  0.00    +0.000 OA
ATOM      9  N   UNL     1       0.585  13.232  19.432  0.00  0.00    +0.000 N 
ENDROOT
BRANCH   1  13
ATOM     10  C   UNL     1      -2.806  12.126  23.180  0.00  0.00    +0.000 A 
ATOM     11  C   UNL     1      -3.098  13.238  22.389  0.00  0.00    +0.000 A 
ATOM     12  C   UNL     1      -2.131  13.782  21.538  0.00  0.00    +0.000 A 
ATOM     13  C   UNL     1      -0.847  13.229  21.482  0.00  0.00    +0.000 A 
ATOM     14  C   UNL     1      -0.551  12.123  22.295  0.00  0.00    +0.000 A 
ATOM     15  C   UNL     1      -1.526  11.574  23.140  0.00  0.00    +0.000 A 
BRANCH  10  17
ATOM     16  C   UNL     1      -4.411  12.676  24.827  0.00  0.00    +0.000 C 
ATOM     17  O   UNL     1      -3.830  11.694  23.977  0.00  0.00    +0.000 OA
ENDBRANCH  10  17
ENDBRANCH   1  13
BRANCH   9  18
ATOM     18  C   UNL     1      -0.147  12.169  18.820  0.00  0.00    +0.000 A 
ATOM     19  C   UNL     1       0.338  10.856  18.870  0.00  0.00    +0.000 A 
ATOM     20  C   UNL     1      -0.347   9.826  18.221  0.00  0.00    +0.000 A 
ATOM     21  C   UNL     1      -1.507  10.104  17.500  0.00  0.00    +0.000 A 
ATOM     22  C   UNL     1      -1.989  11.411  17.434  0.00  0.00    +0.000 A 
ATOM     23  C   UNL     1      -1.314  12.438  18.093  0.00  0.00    +0.000 A 
ENDBRANCH   9  18
TORSDOF 3
ENDMDL
MODEL 9
REMARK VINA RESULT:      -5.3     12.073     14.402
REMARK  Name = 
REMARK  4 active torsions:
REMARK  status: ('A' for Active; 'I' for Inactive)
REMARK    1  A    between atoms: C_1  and  O_2
REMARK    2  A    between atoms: O_2  and  C_3
REMARK    3  A    between atoms: C_6  and  C_7
REMARK    4  A    between atoms: N_15  and  C_16
REMARK                            x       y       z     vdW  Elec       q    Type
REMARK                         _______ _______ _______ _____ _____    ______ ____
ROOT
ATOM      1  C   UNL     1      -3.006  12.527  19.810  0.00  0.00    +0.000 A 
ATOM      2  C   UNL     1      -1.851  12.187  19.191  0.00  0.00    +0.000 A 
ATOM      3 CL   UNL     1      -0.287  12.442  19.913  0.00  0.00    +0.000 Cl
ATOM      4  N   UNL     1      -1.767  11.585  17.960  0.00  0.00    +0.000 NA
ATOM      5  C   UNL     1      -2.888  11.263  17.396  0.00  0.00    +0.000 A 
ATOM      6 CL   UNL     1      -2.825  10.508  15.860  0.00  0.00    +0.000 Cl
ATOM      7  C   UNL     1      -4.259  11.521  17.992  0.00  0.00    +0.000 A 
ATOM      8  O   UNL     1      -5.253  11.149  17.377  0.00  0.00    +0.000 OA
ATOM      9  N   UNL     1      -4.238  12.222  19.212  0.00  0.00    +0.000 N 
ENDROOT
BRANCH   1  13
ATOM     10  C   UNL     1      -3.041  14.194  23.777  0.00  0.00    +0.000 A 
ATOM     11  C   UNL     1      -3.063  12.810  23.596  0.00  0.00    +0.000 A 
ATOM     12  C   UNL     1      -3.019  12.257  22.312  0.00  0.00    +0.000 A 
ATOM     13  C   UNL     1      -2.973  13.088  21.187  0.00  0.00    +0.000 A 
ATOM     14  C   UNL     1      -2.973  14.480  21.373  0.00  0.00    +0.000 A 
ATOM     15  C   UNL     1      -3.007  15.029  22.662  0.00  0.00    +0.000 A 
BRANCH  10  17
ATOM     16  C   UNL     1      -2.637  15.932  25.329  0.00  0.00    +0.000 C 
ATOM     17  O   UNL     1      -3.098  14.609  25.079  0.00  0.00    +0.000 OA
ENDBRANCH  10  17
ENDBRANCH   1  13
BRANCH   9  18
ATOM     18  C   UNL     1      -5.503  12.609  19.750  0.00  0.00    +0.000 A 
ATOM     19  C   UNL     1      -6.022  13.884  19.490  0.00  0.00    +0.000 A 
ATOM     20  C   UNL     1      -7.230  14.283  20.065  0.00  0.00    +0.000 A 
ATOM     21  C   UNL     1      -7.916  13.422  20.920  0.00  0.00    +0.000 A 
ATOM     22  C   UNL     1      -7.399  12.157  21.194  0.00  0.00    +0.000 A 
ATOM     23  C   UNL     1      -6.200  11.750  20.610  0.00  0.00    +0.000 A 
ENDBRANCH   9  18
TORSDOF 3
ENDMDL
