MODEL 1
REMARK VINA RESULT:      -8.3      0.000      0.000
REMARK  Name = 
REMARK  10 active torsions:
REMARK  status: ('A' for Active; 'I' for Inactive)
REMARK    1  A    between atoms: C_2  and  O_3
REMARK    2  A    between atoms: C_2  and  C_22
REMARK    3  A    between atoms: O_3  and  C_4
REMARK    4  A    between atoms: N_6  and  C_7
REMARK    5  A    between atoms: C_7  and  C_8
REMARK    6  A    between atoms: C_8  and  C_9
REMARK    7  A    between atoms: C_9  and  C_10
REMARK    8  A    between atoms: C_22  and  O_23
REMARK    9  A    between atoms: C_22  and  C_24
REMARK   10  A    between atoms: C_22  and  C_30
REMARK                            x       y       z     vdW  Elec       q    Type
REMARK                         _______ _______ _______ _____ _____    ______ ____
ROOT
ATOM      1  O   UNL     1       1.382   7.936  18.120  0.00  0.00    +0.000 OA
ENDROOT
BRANCH   1   2
ATOM      2  C   UNL     1       2.508   7.098  18.648  0.00  0.00    +0.000 C 
ATOM      3  C   UNL     1       3.510   6.472  17.612  0.00  0.00    +0.000 C 
ATOM      4  N   UNL     1       3.609   4.908  17.785  0.00  0.00    +0.000 N 
ATOM      5  C   UNL     1       4.216   4.597  19.153  0.00  0.00    +0.000 C 
ATOM      6  C   UNL     1       3.397   5.319  20.242  0.00  0.00    +0.000 C 
ATOM      7  C   UNL     1       2.116   5.988  19.668  0.00  0.00    +0.000 C 
ATOM      8  C   UNL     1       1.349   4.873  18.975  0.00  0.00    +0.000 C 
ATOM      9  C   UNL     1       2.162   4.300  17.817  0.00  0.00    +0.000 C 
BRANCH   4  10
ATOM     10  C   UNL     1       4.284   4.181  16.580  0.00  0.00    +0.000 C 
BRANCH  10  11
ATOM     11  C   UNL     1       5.016   4.929  15.445  0.00  0.00    +0.000 C 
BRANCH  11  12
ATOM     12  C   UNL     1       6.529   5.144  15.605  0.00  0.00    +0.000 C 
BRANCH  12  13
ATOM     13  C   UNL     1       7.071   5.783  16.877  0.00  0.00    +0.000 A 
ATOM     14  C   UNL     1       7.483   5.077  18.019  0.00  0.00    +0.000 A 
ATOM     15  C   UNL     1       8.119   5.739  19.089  0.00  0.00    +0.000 A 
ATOM     16  C   UNL     1       8.343   7.114  19.037  0.00  0.00    +0.000 A 
ATOM     17  C   UNL     1       7.906   7.822  17.935  0.00  0.00    +0.000 A 
ATOM     18  F   UNL     1       8.113   9.142  17.871  0.00  0.00    +0.000 F 
ATOM     19  C   UNL     1       7.274   7.179  16.872  0.00  0.00    +0.000 A 
ENDBRANCH  12  13
ENDBRANCH  11  12
ENDBRANCH  10  11
ENDBRANCH   4  10
ENDBRANCH   1   2
BRANCH   1  21
ATOM     20  O   UNL     1       2.336   9.838  17.447  0.00  0.00    +0.000 OA
ATOM     21  C   UNL     1       1.437   9.298  18.071  0.00  0.00    +0.000 C 
BRANCH  21  22
ATOM     22  C   UNL     1       0.318  10.175  18.815  0.00  0.00    +0.000 C 
BRANCH  22  23
ATOM     23  C   UNL     1      -0.978  10.401  17.984  0.00  0.00    +0.000 A 
ATOM     24  C   UNL     1      -1.335   9.587  16.885  0.00  0.00    +0.000 A 
ATOM     25  C   UNL     1      -2.588   9.697  16.256  0.00  0.00    +0.000 A 
ATOM     26  C   UNL     1      -3.521  10.635  16.701  0.00  0.00    +0.000 A 
ATOM     27  C   UNL     1      -3.191  11.462  17.764  0.00  0.00    +0.000 A 
ATOM     28  C   UNL     1      -1.936  11.358  18.386  0.00  0.00    +0.000 A 
ENDBRANCH  22  23
BRANCH  22  29
ATOM     29  C   UNL     1       0.133  10.042  20.340  0.00  0.00    +0.000 A 
ATOM     30  C   UNL     1       0.044  11.111  21.237  0.00  0.00    +0.000 A 
ATOM     31  C   UNL     1      -0.245  10.884  22.597  0.00  0.00    +0.000 A 
ATOM     32  C   UNL     1      -0.427   9.589  23.093  0.00  0.00    +0.000 A 
ATOM     33  C   UNL     1      -0.296   8.508  22.239  0.00  0.00    +0.000 A 
ATOM     34  C   UNL     1      -0.016   8.734  20.891  0.00  0.00    +0.000 A 
ENDBRANCH  22  29
BRANCH  22  35
ATOM     35  O   UNL     1       0.999  11.490  18.801  0.00  0.00    +0.000 OA
ATOM     36  H   UNL     1       1.054  11.796  17.886  0.00  0.00    +0.000 HD
ENDBRANCH  22  35
ENDBRANCH  21  22
ENDBRANCH   1  21
TORSDOF 10
ENDMDL
MODEL 2
REMARK VINA RESULT:      -8.3      2.824      8.259
REMARK  Name = 
REMARK  10 active torsions:
REMARK  status: ('A' for Active; 'I' for Inactive)
REMARK    1  A    between atoms: C_2  and  O_3
REMARK    2  A    between atoms: C_2  and  C_22
REMARK    3  A    between atoms: O_3  and  C_4
REMARK    4  A    between atoms: N_6  and  C_7
REMARK    5  A    between atoms: C_7  and  C_8
REMARK    6  A    between atoms: C_8  and  C_9
REMARK    7  A    between atoms: C_9  and  C_10
REMARK    8  A    between atoms: C_22  and  O_23
REMARK    9  A    between atoms: C_22  and  C_24
REMARK   10  A    between atoms: C_22  and  C_30
REMARK                            x       y       z     vdW  Elec       q    Type
REMARK                         _______ _______ _______ _____ _____    ______ ____
ROOT
ATOM      1  O   UNL     1       3.657   3.812  16.482  0.00  0.00    +0.000 OA
ENDROOT
BRANCH   1   2
ATOM      2  C   UNL     1       2.608   3.363  17.455  0.00  0.00    +0.000 C 
ATOM      3  C   UNL     1       1.766   4.467  18.192  0.00  0.00    +0.000 C 
ATOM      4  N   UNL     1       1.849   4.300  19.758  0.00  0.00    +0.000 N 
ATOM      5  C   UNL     1       1.190   2.977  20.152  0.00  0.00    +0.000 C 
ATOM      6  C   UNL     1       1.835   1.834  19.342  0.00  0.00    +0.000 C 
ATOM      7  C   UNL     1       3.062   2.316  18.516  0.00  0.00    +0.000 C 
ATOM      8  C   UNL     1       4.007   2.953  19.524  0.00  0.00    +0.000 C 
ATOM      9  C   UNL     1       3.353   4.165  20.184  0.00  0.00    +0.000 C 
BRANCH   4  10
ATOM     10  C   UNL     1       1.355   5.548  20.554  0.00  0.00    +0.000 C 
BRANCH  10  11
ATOM     11  C   UNL     1       1.938   6.963  20.351  0.00  0.00    +0.000 C 
BRANCH  11  12
ATOM     12  C   UNL     1       1.349   8.096  21.205  0.00  0.00    +0.000 C 
BRANCH  12  13
ATOM     13  C   UNL     1       0.735   9.313  20.525  0.00  0.00    +0.000 A 
ATOM     14  C   UNL     1       0.843   9.609  19.156  0.00  0.00    +0.000 A 
ATOM     15  C   UNL     1       0.111  10.670  18.585  0.00  0.00    +0.000 A 
ATOM     16  C   UNL     1      -0.730  11.454  19.373  0.00  0.00    +0.000 A 
ATOM     17  C   UNL     1      -0.812  11.194  20.726  0.00  0.00    +0.000 A 
ATOM     18  F   UNL     1      -1.614  11.939  21.496  0.00  0.00    +0.000 F 
ATOM     19  C   UNL     1      -0.092  10.150  21.303  0.00  0.00    +0.000 A 
ENDBRANCH  12  13
ENDBRANCH  11  12
ENDBRANCH  10  11
ENDBRANCH   4  10
ENDBRANCH   1   2
BRANCH   1  21
ATOM     20  O   UNL     1       3.816   5.974  17.011  0.00  0.00    +0.000 OA
ATOM     21  C   UNL     1       4.382   4.954  16.655  0.00  0.00    +0.000 C 
BRANCH  21  22
ATOM     22  C   UNL     1       5.968   4.945  16.406  0.00  0.00    +0.000 C 
BRANCH  22  23
ATOM     23  C   UNL     1       6.387   4.601  14.948  0.00  0.00    +0.000 A 
ATOM     24  C   UNL     1       5.627   3.749  14.113  0.00  0.00    +0.000 A 
ATOM     25  C   UNL     1       5.927   3.587  12.748  0.00  0.00    +0.000 A 
ATOM     26  C   UNL     1       7.005   4.264  12.178  0.00  0.00    +0.000 A 
ATOM     27  C   UNL     1       7.781   5.091  12.976  0.00  0.00    +0.000 A 
ATOM     28  C   UNL     1       7.487   5.246  14.341  0.00  0.00    +0.000 A 
ENDBRANCH  22  23
BRANCH  22  29
ATOM     29  C   UNL     1       6.863   5.955  17.150  0.00  0.00    +0.000 A 
ATOM     30  C   UNL     1       7.022   7.300  16.803  0.00  0.00    +0.000 A 
ATOM     31  C   UNL     1       7.771   8.169  17.620  0.00  0.00    +0.000 A 
ATOM     32  C   UNL     1       8.394   7.711  18.786  0.00  0.00    +0.000 A 
ATOM     33  C   UNL     1       8.295   6.375  19.130  0.00  0.00    +0.000 A 
ATOM     34  C   UNL     1       7.548   5.515  18.323  0.00  0.00    +0.000 A 
ENDBRANCH  22  29
BRANCH  22  35
ATOM     35  O   UNL     1       6.323   3.737  17.187  0.00  0.00    +0.000 OA
ATOM     36  H   UNL     1       7.237   3.499  16.981  0.00  0.00    +0.000 HD
ENDBRANCH  22  35
ENDBRANCH  21  22
ENDBRANCH   1  21
TORSDOF 10
ENDMDL
MODEL 3
REMARK VINA RESULT:      -8.2      2.932      8.352
REMARK  Name = 
REMARK  10 active torsions:
REMARK  status: ('A' for Active; 'I' for Inactive)
REMARK    1  A    between atoms: C_2  and  O_3
REMARK    2  A    between atoms: C_2  and  C_22
REMARK    3  A    between atoms: O_3  and  C_4
REMARK    4  A    between atoms: N_6  and  C_7
REMARK    5  A    between atoms: C_7  and  C_8
REMARK    6  A    between atoms: C_8  and  C_9
REMARK    7  A    between atoms: C_9  and  C_10
REMARK    8  A    between atoms: C_22  and  O_23
REMARK    9  A    between atoms: C_22  and  C_24
REMARK   10  A    between atoms: C_22  and  C_30
REMARK                            x       y       z     vdW  Elec       q    Type
REMARK                         _______ _______ _______ _____ _____    ______ ____
ROOT
ATOM      1  O   UNL     1       3.666   3.916  16.410  0.00  0.00    +0.000 OA
ENDROOT
BRANCH   1   2
ATOM      2  C   UNL     1       2.498   3.652  17.313  0.00  0.00    +0.000 C 
ATOM      3  C   UNL     1       2.102   4.763  18.351  0.00  0.00    +0.000 C 
ATOM      4  N   UNL     1       2.072   4.189  19.820  0.00  0.00    +0.000 N 
ATOM      5  C   UNL     1       0.959   3.145  19.922  0.00  0.00    +0.000 C 
ATOM      6  C   UNL     1       1.160   2.088  18.816  0.00  0.00    +0.000 C 
ATOM      7  C   UNL     1       2.501   2.281  18.053  0.00  0.00    +0.000 C 
ATOM      8  C   UNL     1       3.585   2.253  19.120  0.00  0.00    +0.000 C 
ATOM      9  C   UNL     1       3.407   3.412  20.098  0.00  0.00    +0.000 C 
BRANCH   4  10
ATOM     10  C   UNL     1       2.052   5.288  20.927  0.00  0.00    +0.000 C 
BRANCH  10  11
ATOM     11  C   UNL     1       0.976   6.393  21.001  0.00  0.00    +0.000 C 
BRANCH  11  12
ATOM     12  C   UNL     1       1.452   7.849  20.891  0.00  0.00    +0.000 C 
BRANCH  12  13
ATOM     13  C   UNL     1       0.539   8.979  21.348  0.00  0.00    +0.000 A 
ATOM     14  C   UNL     1       0.112   9.184  22.670  0.00  0.00    +0.000 A 
ATOM     15  C   UNL     1      -0.602  10.345  23.028  0.00  0.00    +0.000 A 
ATOM     16  C   UNL     1      -0.909  11.311  22.071  0.00  0.00    +0.000 A 
ATOM     17  C   UNL     1      -0.528  11.098  20.761  0.00  0.00    +0.000 A 
ATOM     18  F   UNL     1      -0.816  12.016  19.830  0.00  0.00    +0.000 F 
ATOM     19  C   UNL     1       0.177   9.954  20.394  0.00  0.00    +0.000 A 
ENDBRANCH  12  13
ENDBRANCH  11  12
ENDBRANCH  10  11
ENDBRANCH   4  10
ENDBRANCH   1   2
BRANCH   1  21
ATOM     20  O   UNL     1       3.874   6.117  16.719  0.00  0.00    +0.000 OA
ATOM     21  C   UNL     1       4.421   5.049  16.495  0.00  0.00    +0.000 C 
BRANCH  21  22
ATOM     22  C   UNL     1       6.014   4.968  16.318  0.00  0.00    +0.000 C 
BRANCH  22  23
ATOM     23  C   UNL     1       6.483   4.632  14.874  0.00  0.00    +0.000 A 
ATOM     24  C   UNL     1       5.788   3.735  14.032  0.00  0.00    +0.000 A 
ATOM     25  C   UNL     1       6.127   3.576  12.676  0.00  0.00    +0.000 A 
ATOM     26  C   UNL     1       7.182   4.302  12.123  0.00  0.00    +0.000 A 
ATOM     27  C   UNL     1       7.896   5.175  12.929  0.00  0.00    +0.000 A 
ATOM     28  C   UNL     1       7.563   5.328  14.286  0.00  0.00    +0.000 A 
ENDBRANCH  22  23
BRANCH  22  29
ATOM     29  C   UNL     1       6.920   5.921  17.124  0.00  0.00    +0.000 A 
ATOM     30  C   UNL     1       7.162   7.261  16.810  0.00  0.00    +0.000 A 
ATOM     31  C   UNL     1       7.912   8.078  17.679  0.00  0.00    +0.000 A 
ATOM     32  C   UNL     1       8.453   7.571  18.864  0.00  0.00    +0.000 A 
ATOM     33  C   UNL     1       8.272   6.236  19.178  0.00  0.00    +0.000 A 
ATOM     34  C   UNL     1       7.524   5.428  18.320  0.00  0.00    +0.000 A 
ENDBRANCH  22  29
BRANCH  22  35
ATOM     35  O   UNL     1       6.275   3.731  17.089  0.00  0.00    +0.000 OA
ATOM     36  H   UNL     1       5.769   3.771  17.912  0.00  0.00    +0.000 HD
ENDBRANCH  22  35
ENDBRANCH  21  22
ENDBRANCH   1  21
TORSDOF 10
ENDMDL
MODEL 4
REMARK VINA RESULT:      -8.1      1.586      2.390
REMARK  Name = 
REMARK  10 active torsions:
REMARK  status: ('A' for Active; 'I' for Inactive)
REMARK    1  A    between atoms: C_2  and  O_3
REMARK    2  A    between atoms: C_2  and  C_22
REMARK    3  A    between atoms: O_3  and  C_4
REMARK    4  A    between atoms: N_6  and  C_7
REMARK    5  A    between atoms: C_7  and  C_8
REMARK    6  A    between atoms: C_8  and  C_9
REMARK    7  A    between atoms: C_9  and  C_10
REMARK    8  A    between atoms: C_22  and  O_23
REMARK    9  A    between atoms: C_22  and  C_24
REMARK   10  A    between atoms: C_22  and  C_30
REMARK                            x       y       z     vdW  Elec       q    Type
REMARK                         _______ _______ _______ _____ _____    ______ ____
ROOT
ATOM      1  O   UNL     1       1.491   7.916  18.808  0.00  0.00    +0.000 OA
ENDROOT
BRANCH   1   2
ATOM      2  C   UNL     1       2.586   6.932  19.093  0.00  0.00    +0.000 C 
ATOM      3  C   UNL     1       3.471   6.446  17.889  0.00  0.00    +0.000 C 
ATOM      4  N   UNL     1       3.468   4.872  17.774  0.00  0.00    +0.000 N 
ATOM      5  C   UNL     1       4.139   4.283  19.015  0.00  0.00    +0.000 C 
ATOM      6  C   UNL     1       3.446   4.844  20.274  0.00  0.00    +0.000 C 
ATOM      7  C   UNL     1       2.182   5.680  19.928  0.00  0.00    +0.000 C 
ATOM      8  C   UNL     1       1.293   4.756  19.109  0.00  0.00    +0.000 C 
ATOM      9  C   UNL     1       1.986   4.356  17.809  0.00  0.00    +0.000 C 
BRANCH   4  10
ATOM     10  C   UNL     1       4.009   4.337  16.412  0.00  0.00    +0.000 C 
BRANCH  10  11
ATOM     11  C   UNL     1       5.344   3.574  16.275  0.00  0.00    +0.000 C 
BRANCH  11  12
ATOM     12  C   UNL     1       6.611   4.408  16.030  0.00  0.00    +0.000 C 
BRANCH  12  13
ATOM     13  C   UNL     1       7.097   5.374  17.102  0.00  0.00    +0.000 A 
ATOM     14  C   UNL     1       7.617   4.995  18.351  0.00  0.00    +0.000 A 
ATOM     15  C   UNL     1       8.190   5.949  19.216  0.00  0.00    +0.000 A 
ATOM     16  C   UNL     1       8.243   7.294  18.852  0.00  0.00    +0.000 A 
ATOM     17  C   UNL     1       7.699   7.681  17.643  0.00  0.00    +0.000 A 
ATOM     18  F   UNL     1       7.741   8.968  17.280  0.00  0.00    +0.000 F 
ATOM     19  C   UNL     1       7.128   6.748  16.780  0.00  0.00    +0.000 A 
ENDBRANCH  12  13
ENDBRANCH  11  12
ENDBRANCH  10  11
ENDBRANCH   4  10
ENDBRANCH   1   2
BRANCH   1  21
ATOM     20  O   UNL     1       1.547   9.058  20.725  0.00  0.00    +0.000 OA
ATOM     21  C   UNL     1       1.330   9.066  19.525  0.00  0.00    +0.000 C 
BRANCH  21  22
ATOM     22  C   UNL     1       0.874  10.416  18.787  0.00  0.00    +0.000 C 
BRANCH  22  23
ATOM     23  C   UNL     1      -0.641  10.478  18.440  0.00  0.00    +0.000 A 
ATOM     24  C   UNL     1      -1.541  11.348  19.096  0.00  0.00    +0.000 A 
ATOM     25  C   UNL     1      -2.867  11.515  18.655  0.00  0.00    +0.000 A 
ATOM     26  C   UNL     1      -3.336  10.807  17.548  0.00  0.00    +0.000 A 
ATOM     27  C   UNL     1      -2.483   9.931  16.896  0.00  0.00    +0.000 A 
ATOM     28  C   UNL     1      -1.162   9.757  17.343  0.00  0.00    +0.000 A 
ENDBRANCH  22  23
BRANCH  22  29
ATOM     29  C   UNL     1       1.541  11.754  19.163  0.00  0.00    +0.000 A 
ATOM     30  C   UNL     1       1.516  12.338  20.432  0.00  0.00    +0.000 A 
ATOM     31  C   UNL     1       2.259  13.505  20.701  0.00  0.00    +0.000 A 
ATOM     32  C   UNL     1       3.022  14.123  19.705  0.00  0.00    +0.000 A 
ATOM     33  C   UNL     1       3.029  13.595  18.426  0.00  0.00    +0.000 A 
ATOM     34  C   UNL     1       2.297  12.437  18.163  0.00  0.00    +0.000 A 
ENDBRANCH  22  29
BRANCH  22  35
ATOM     35  O   UNL     1       1.543  10.209  17.482  0.00  0.00    +0.000 OA
ATOM     36  H   UNL     1       1.056   9.533  16.992  0.00  0.00    +0.000 HD
ENDBRANCH  22  35
ENDBRANCH  21  22
ENDBRANCH   1  21
TORSDOF 10
ENDMDL
MODEL 5
REMARK VINA RESULT:      -8.1      2.598      3.844
REMARK  Name = 
REMARK  10 active torsions:
REMARK  status: ('A' for Active; 'I' for Inactive)
REMARK    1  A    between atoms: C_2  and  O_3
REMARK    2  A    between atoms: C_2  and  C_22
REMARK    3  A    between atoms: O_3  and  C_4
REMARK    4  A    between atoms: N_6  and  C_7
REMARK    5  A    between atoms: C_7  and  C_8
REMARK    6  A    between atoms: C_8  and  C_9
REMARK    7  A    between atoms: C_9  and  C_10
REMARK    8  A    between atoms: C_22  and  O_23
REMARK    9  A    between atoms: C_22  and  C_24
REMARK   10  A    between atoms: C_22  and  C_30
REMARK                            x       y       z     vdW  Elec       q    Type
REMARK                         _______ _______ _______ _____ _____    ______ ____
ROOT
ATOM      1  O   UNL     1       2.019   7.946  18.968  0.00  0.00    +0.000 OA
ENDROOT
BRANCH   1   2
ATOM      2  C   UNL     1       2.563   6.763  19.711  0.00  0.00    +0.000 C 
ATOM      3  C   UNL     1       3.904   6.124  19.198  0.00  0.00    +0.000 C 
ATOM      4  N   UNL     1       3.730   4.583  18.909  0.00  0.00    +0.000 N 
ATOM      5  C   UNL     1       3.431   3.862  20.224  0.00  0.00    +0.000 C 
ATOM      6  C   UNL     1       2.221   4.536  20.902  0.00  0.00    +0.000 C 
ATOM      7  C   UNL     1       1.557   5.607  19.991  0.00  0.00    +0.000 C 
ATOM      8  C   UNL     1       1.202   4.884  18.701  0.00  0.00    +0.000 C 
ATOM      9  C   UNL     1       2.461   4.367  18.011  0.00  0.00    +0.000 C 
BRANCH   4  10
ATOM     10  C   UNL     1       4.886   3.964  18.063  0.00  0.00    +0.000 C 
BRANCH  10  11
ATOM     11  C   UNL     1       4.959   4.075  16.525  0.00  0.00    +0.000 C 
BRANCH  11  12
ATOM     12  C   UNL     1       6.228   4.697  15.922  0.00  0.00    +0.000 C 
BRANCH  12  13
ATOM     13  C   UNL     1       6.492   4.575  14.427  0.00  0.00    +0.000 A 
ATOM     14  C   UNL     1       7.541   5.210  13.741  0.00  0.00    +0.000 A 
ATOM     15  C   UNL     1       7.805   4.915  12.388  0.00  0.00    +0.000 A 
ATOM     16  C   UNL     1       7.020   3.991  11.700  0.00  0.00    +0.000 A 
ATOM     17  C   UNL     1       5.963   3.392  12.356  0.00  0.00    +0.000 A 
ATOM     18  F   UNL     1       5.200   2.503  11.708  0.00  0.00    +0.000 F 
ATOM     19  C   UNL     1       5.691   3.676  13.692  0.00  0.00    +0.000 A 
ENDBRANCH  12  13
ENDBRANCH  11  12
ENDBRANCH  10  11
ENDBRANCH   4  10
ENDBRANCH   1   2
BRANCH   1  21
ATOM     20  O   UNL     1       1.021   8.827  20.759  0.00  0.00    +0.000 OA
ATOM     21  C   UNL     1       1.318   8.943  19.582  0.00  0.00    +0.000 C 
BRANCH  21  22
ATOM     22  C   UNL     1       0.908  10.259  18.761  0.00  0.00    +0.000 C 
BRANCH  22  23
ATOM     23  C   UNL     1      -0.589  10.313  18.340  0.00  0.00    +0.000 A 
ATOM     24  C   UNL     1      -1.516  11.207  18.922  0.00  0.00    +0.000 A 
ATOM     25  C   UNL     1      -2.818  11.362  18.413  0.00  0.00    +0.000 A 
ATOM     26  C   UNL     1      -3.238  10.618  17.311  0.00  0.00    +0.000 A 
ATOM     27  C   UNL     1      -2.357   9.717  16.730  0.00  0.00    +0.000 A 
ATOM     28  C   UNL     1      -1.059   9.556  17.245  0.00  0.00    +0.000 A 
ENDBRANCH  22  23
BRANCH  22  29
ATOM     29  C   UNL     1       1.566  11.610  19.106  0.00  0.00    +0.000 A 
ATOM     30  C   UNL     1       1.535  12.225  20.361  0.00  0.00    +0.000 A 
ATOM     31  C   UNL     1       2.270  13.402  20.603  0.00  0.00    +0.000 A 
ATOM     32  C   UNL     1       3.032  14.000  19.594  0.00  0.00    +0.000 A 
ATOM     33  C   UNL     1       3.044  13.442  18.328  0.00  0.00    +0.000 A 
ATOM     34  C   UNL     1       2.320  12.273  18.091  0.00  0.00    +0.000 A 
ENDBRANCH  22  29
BRANCH  22  35
ATOM     35  O   UNL     1       1.636   9.989  17.500  0.00  0.00    +0.000 OA
ATOM     36  H   UNL     1       1.096  10.303  16.762  0.00  0.00    +0.000 HD
ENDBRANCH  22  35
ENDBRANCH  21  22
ENDBRANCH   1  21
TORSDOF 10
ENDMDL
MODEL 6
REMARK VINA RESULT:      -8.1      2.742      8.190
REMARK  Name = 
REMARK  10 active torsions:
REMARK  status: ('A' for Active; 'I' for Inactive)
REMARK    1  A    between atoms: C_2  and  O_3
REMARK    2  A    between atoms: C_2  and  C_22
REMARK    3  A    between atoms: O_3  and  C_4
REMARK    4  A    between atoms: N_6  and  C_7
REMARK    5  A    between atoms: C_7  and  C_8
REMARK    6  A    between atoms: C_8  and  C_9
REMARK    7  A    between atoms: C_9  and  C_10
REMARK    8  A    between atoms: C_22  and  O_23
REMARK    9  A    between atoms: C_22  and  C_24
REMARK   10  A    between atoms: C_22  and  C_30
REMARK                            x       y       z     vdW  Elec       q    Type
REMARK                         _______ _______ _______ _____ _____    ______ ____
ROOT
ATOM      1  O   UNL     1       3.639   3.724  16.462  0.00  0.00    +0.000 OA
ENDROOT
BRANCH   1   2
ATOM      2  C   UNL     1       2.598   3.243  17.429  0.00  0.00    +0.000 C 
ATOM      3  C   UNL     1       1.660   4.313  18.095  0.00  0.00    +0.000 C 
ATOM      4  N   UNL     1       1.712   4.220  19.669  0.00  0.00    +0.000 N 
ATOM      5  C   UNL     1       1.137   2.871  20.105  0.00  0.00    +0.000 C 
ATOM      6  C   UNL     1       1.885   1.744  19.363  0.00  0.00    +0.000 C 
ATOM      7  C   UNL     1       3.096   2.278  18.547  0.00  0.00    +0.000 C 
ATOM      8  C   UNL     1       3.965   3.024  19.547  0.00  0.00    +0.000 C 
ATOM      9  C   UNL     1       3.210   4.212  20.136  0.00  0.00    +0.000 C 
BRANCH   4  10
ATOM     10  C   UNL     1       1.109   5.462  20.395  0.00  0.00    +0.000 C 
BRANCH  10  11
ATOM     11  C   UNL     1       1.959   6.663  20.863  0.00  0.00    +0.000 C 
BRANCH  11  12
ATOM     12  C   UNL     1       1.899   7.942  20.014  0.00  0.00    +0.000 C 
BRANCH  12  13
ATOM     13  C   UNL     1       0.942   9.062  20.404  0.00  0.00    +0.000 A 
ATOM     14  C   UNL     1       0.845   9.627  21.686  0.00  0.00    +0.000 A 
ATOM     15  C   UNL     1       0.047  10.765  21.917  0.00  0.00    +0.000 A 
ATOM     16  C   UNL     1      -0.673  11.348  20.875  0.00  0.00    +0.000 A 
ATOM     17  C   UNL     1      -0.614  10.775  19.620  0.00  0.00    +0.000 A 
ATOM     18  F   UNL     1      -1.300  11.323  18.610  0.00  0.00    +0.000 F 
ATOM     19  C   UNL     1       0.171   9.649  19.379  0.00  0.00    +0.000 A 
ENDBRANCH  12  13
ENDBRANCH  11  12
ENDBRANCH  10  11
ENDBRANCH   4  10
ENDBRANCH   1   2
BRANCH   1  21
ATOM     20  O   UNL     1       3.750   5.869  17.069  0.00  0.00    +0.000 OA
ATOM     21  C   UNL     1       4.332   4.885  16.643  0.00  0.00    +0.000 C 
BRANCH  21  22
ATOM     22  C   UNL     1       5.901   4.944  16.313  0.00  0.00    +0.000 C 
BRANCH  22  23
ATOM     23  C   UNL     1       6.248   4.765  14.807  0.00  0.00    +0.000 A 
ATOM     24  C   UNL     1       7.387   5.349  14.209  0.00  0.00    +0.000 A 
ATOM     25  C   UNL     1       7.778   5.038  12.894  0.00  0.00    +0.000 A 
ATOM     26  C   UNL     1       7.032   4.138  12.132  0.00  0.00    +0.000 A 
ATOM     27  C   UNL     1       5.898   3.564  12.684  0.00  0.00    +0.000 A 
ATOM     28  C   UNL     1       5.503   3.882  13.995  0.00  0.00    +0.000 A 
ENDBRANCH  22  23
BRANCH  22  29
ATOM     29  C   UNL     1       6.814   5.895  17.113  0.00  0.00    +0.000 A 
ATOM     30  C   UNL     1       7.033   7.243  16.813  0.00  0.00    +0.000 A 
ATOM     31  C   UNL     1       7.793   8.056  17.677  0.00  0.00    +0.000 A 
ATOM     32  C   UNL     1       8.366   7.538  18.843  0.00  0.00    +0.000 A 
ATOM     33  C   UNL     1       8.208   6.196  19.141  0.00  0.00    +0.000 A 
ATOM     34  C   UNL     1       7.451   5.392  18.287  0.00  0.00    +0.000 A 
ENDBRANCH  22  29
BRANCH  22  35
ATOM     35  O   UNL     1       6.324   3.672  16.943  0.00  0.00    +0.000 OA
ATOM     36  H   UNL     1       6.164   3.734  17.894  0.00  0.00    +0.000 HD
ENDBRANCH  22  35
ENDBRANCH  21  22
ENDBRANCH   1  21
TORSDOF 10
ENDMDL
MODEL 7
REMARK VINA RESULT:      -8.1      1.780      2.681
REMARK  Name = 
REMARK  10 active torsions:
REMARK  status: ('A' for Active; 'I' for Inactive)
REMARK    1  A    between atoms: C_2  and  O_3
REMARK    2  A    between atoms: C_2  and  C_22
REMARK    3  A    between atoms: O_3  and  C_4
REMARK    4  A    between atoms: N_6  and  C_7
REMARK    5  A    between atoms: C_7  and  C_8
REMARK    6  A    between atoms: C_8  and  C_9
REMARK    7  A    between atoms: C_9  and  C_10
REMARK    8  A    between atoms: C_22  and  O_23
REMARK    9  A    between atoms: C_22  and  C_24
REMARK   10  A    between atoms: C_22  and  C_30
REMARK                            x       y       z     vdW  Elec       q    Type
REMARK                         _______ _______ _______ _____ _____    ______ ____
ROOT
ATOM      1  O   UNL     1       2.138   7.842  18.838  0.00  0.00    +0.000 OA
ENDROOT
BRANCH   1   2
ATOM      2  C   UNL     1       2.714   6.661  19.561  0.00  0.00    +0.000 C 
ATOM      3  C   UNL     1       3.891   5.879  18.875  0.00  0.00    +0.000 C 
ATOM      4  N   UNL     1       3.553   4.345  18.732  0.00  0.00    +0.000 N 
ATOM      5  C   UNL     1       3.436   3.730  20.127  0.00  0.00    +0.000 C 
ATOM      6  C   UNL     1       2.418   4.545  20.951  0.00  0.00    +0.000 C 
ATOM      7  C   UNL     1       1.687   5.615  20.091  0.00  0.00    +0.000 C 
ATOM      8  C   UNL     1       1.058   4.852  18.937  0.00  0.00    +0.000 C 
ATOM      9  C   UNL     1       2.134   4.188  18.080  0.00  0.00    +0.000 C 
BRANCH   4  10
ATOM     10  C   UNL     1       4.493   3.580  17.748  0.00  0.00    +0.000 C 
BRANCH  10  11
ATOM     11  C   UNL     1       4.759   4.046  16.300  0.00  0.00    +0.000 C 
BRANCH  11  12
ATOM     12  C   UNL     1       6.200   4.437  15.939  0.00  0.00    +0.000 C 
BRANCH  12  13
ATOM     13  C   UNL     1       6.956   5.426  16.816  0.00  0.00    +0.000 A 
ATOM     14  C   UNL     1       7.031   6.810  16.586  0.00  0.00    +0.000 A 
ATOM     15  C   UNL     1       7.619   7.671  17.535  0.00  0.00    +0.000 A 
ATOM     16  C   UNL     1       8.149   7.161  18.720  0.00  0.00    +0.000 A 
ATOM     17  C   UNL     1       8.114   5.797  18.936  0.00  0.00    +0.000 A 
ATOM     18  F   UNL     1       8.619   5.294  20.068  0.00  0.00    +0.000 F 
ATOM     19  C   UNL     1       7.537   4.936  18.005  0.00  0.00    +0.000 A 
ENDBRANCH  12  13
ENDBRANCH  11  12
ENDBRANCH  10  11
ENDBRANCH   4  10
ENDBRANCH   1   2
BRANCH   1  21
ATOM     20  O   UNL     1       1.110   8.663  20.641  0.00  0.00    +0.000 OA
ATOM     21  C   UNL     1       1.418   8.813  19.470  0.00  0.00    +0.000 C 
BRANCH  21  22
ATOM     22  C   UNL     1       1.001  10.146  18.680  0.00  0.00    +0.000 C 
BRANCH  22  23
ATOM     23  C   UNL     1      -0.521  10.263  18.377  0.00  0.00    +0.000 A 
ATOM     24  C   UNL     1      -1.379  11.131  19.089  0.00  0.00    +0.000 A 
ATOM     25  C   UNL     1      -2.710  11.351  18.691  0.00  0.00    +0.000 A 
ATOM     26  C   UNL     1      -3.228  10.699  17.572  0.00  0.00    +0.000 A 
ATOM     27  C   UNL     1      -2.417   9.825  16.865  0.00  0.00    +0.000 A 
ATOM     28  C   UNL     1      -1.090   9.599  17.268  0.00  0.00    +0.000 A 
ENDBRANCH  22  23
BRANCH  22  29
ATOM     29  C   UNL     1       1.740  11.468  18.968  0.00  0.00    +0.000 A 
ATOM     30  C   UNL     1       2.467  12.206  18.030  0.00  0.00    +0.000 A 
ATOM     31  C   UNL     1       3.006  13.463  18.367  0.00  0.00    +0.000 A 
ATOM     32  C   UNL     1       2.850  13.998  19.650  0.00  0.00    +0.000 A 
ATOM     33  C   UNL     1       2.178  13.269  20.614  0.00  0.00    +0.000 A 
ATOM     34  C   UNL     1       1.639  12.026  20.278  0.00  0.00    +0.000 A 
ENDBRANCH  22  29
BRANCH  22  35
ATOM     35  O   UNL     1       1.616   9.845  17.367  0.00  0.00    +0.000 OA
ATOM     36  H   UNL     1       2.251   9.126  17.485  0.00  0.00    +0.000 HD
ENDBRANCH  22  35
ENDBRANCH  21  22
ENDBRANCH   1  21
TORSDOF 10
ENDMDL
MODEL 8
REMARK VINA RESULT:      -8.1      3.939      9.810
REMARK  Name = 
REMARK  10 active torsions:
REMARK  status: ('A' for Active; 'I' for Inactive)
REMARK    1  A    between atoms: C_2  and  O_3
REMARK    2  A    between atoms: C_2  and  C_22
REMARK    3  A    between atoms: O_3  and  C_4
REMARK    4  A    between atoms: N_6  and  C_7
REMARK    5  A    between atoms: C_7  and  C_8
REMARK    6  A    between atoms: C_8  and  C_9
REMARK    7  A    between atoms: C_9  and  C_10
REMARK    8  A    between atoms: C_22  and  O_23
REMARK    9  A    between atoms: C_22  and  C_24
REMARK   10  A    between atoms: C_22  and  C_30
REMARK                            x       y       z     vdW  Elec       q    Type
REMARK                         _______ _______ _______ _____ _____    ______ ____
ROOT
ATOM      1  O   UNL     1       1.860   7.714  19.087  0.00  0.00    +0.000 OA
ENDROOT
BRANCH   1   2
ATOM      2  C   UNL     1       1.855   9.143  19.541  0.00  0.00    +0.000 C 
ATOM      3  C   UNL     1       1.243   9.465  20.953  0.00  0.00    +0.000 C 
ATOM      4  N   UNL     1       0.106  10.553  20.849  0.00  0.00    +0.000 N 
ATOM      5  C   UNL     1       0.722  11.872  20.380  0.00  0.00    +0.000 C 
ATOM      6  C   UNL     1       1.504  11.623  19.073  0.00  0.00    +0.000 C 
ATOM      7  C   UNL     1       1.294  10.183  18.526  0.00  0.00    +0.000 C 
ATOM      8  C   UNL     1      -0.210  10.020  18.371  0.00  0.00    +0.000 C 
ATOM      9  C   UNL     1      -0.906  10.136  19.725  0.00  0.00    +0.000 C 
BRANCH   4  10
ATOM     10  C   UNL     1      -0.787  10.657  22.124  0.00  0.00    +0.000 C 
BRANCH  10  11
ATOM     11  C   UNL     1      -1.129  11.997  22.810  0.00  0.00    +0.000 C 
BRANCH  11  12
ATOM     12  C   UNL     1      -2.258  12.837  22.193  0.00  0.00    +0.000 C 
BRANCH  12  13
ATOM     13  C   UNL     1      -3.679  12.698  22.723  0.00  0.00    +0.000 A 
ATOM     14  C   UNL     1      -4.024  12.598  24.081  0.00  0.00    +0.000 A 
ATOM     15  C   UNL     1      -5.373  12.633  24.490  0.00  0.00    +0.000 A 
ATOM     16  C   UNL     1      -6.394  12.757  23.549  0.00  0.00    +0.000 A 
ATOM     17  C   UNL     1      -6.065  12.816  22.209  0.00  0.00    +0.000 A 
ATOM     18  F   UNL     1      -7.034  12.935  21.294  0.00  0.00    +0.000 F 
ATOM     19  C   UNL     1      -4.736  12.781  21.793  0.00  0.00    +0.000 A 
ENDBRANCH  12  13
ENDBRANCH  11  12
ENDBRANCH  10  11
ENDBRANCH   4  10
ENDBRANCH   1   2
BRANCH   1  21
ATOM     20  O   UNL     1       3.340   7.828  17.420  0.00  0.00    +0.000 OA
ATOM     21  C   UNL     1       2.871   7.181  18.342  0.00  0.00    +0.000 C 
BRANCH  21  22
ATOM     22  C   UNL     1       3.446   5.725  18.692  0.00  0.00    +0.000 C 
BRANCH  22  23
ATOM     23  C   UNL     1       2.355   4.668  19.028  0.00  0.00    +0.000 A 
ATOM     24  C   UNL     1       1.745   3.857  18.044  0.00  0.00    +0.000 A 
ATOM     25  C   UNL     1       0.891   2.793  18.385  0.00  0.00    +0.000 A 
ATOM     26  C   UNL     1       0.610   2.513  19.722  0.00  0.00    +0.000 A 
ATOM     27  C   UNL     1       1.178   3.304  20.710  0.00  0.00    +0.000 A 
ATOM     28  C   UNL     1       2.024   4.373  20.370  0.00  0.00    +0.000 A 
ENDBRANCH  22  23
BRANCH  22  29
ATOM     29  C   UNL     1       4.697   5.201  17.958  0.00  0.00    +0.000 A 
ATOM     30  C   UNL     1       4.721   4.728  16.643  0.00  0.00    +0.000 A 
ATOM     31  C   UNL     1       5.939   4.384  16.026  0.00  0.00    +0.000 A 
ATOM     32  C   UNL     1       7.153   4.482  16.714  0.00  0.00    +0.000 A 
ATOM     33  C   UNL     1       7.157   4.901  18.032  0.00  0.00    +0.000 A 
ATOM     34  C   UNL     1       5.949   5.247  18.641  0.00  0.00    +0.000 A 
ENDBRANCH  22  29
BRANCH  22  35
ATOM     35  O   UNL     1       4.081   6.027  19.995  0.00  0.00    +0.000 OA
ATOM     36  H   UNL     1       4.382   5.197  20.389  0.00  0.00    +0.000 HD
ENDBRANCH  22  35
ENDBRANCH  21  22
ENDBRANCH   1  21
TORSDOF 10
ENDMDL
MODEL 9
REMARK VINA RESULT:      -8.0      2.636      8.415
REMARK  Name = 
REMARK  10 active torsions:
REMARK  status: ('A' for Active; 'I' for Inactive)
REMARK    1  A    between atoms: C_2  and  O_3
REMARK    2  A    between atoms: C_2  and  C_22
REMARK    3  A    between atoms: O_3  and  C_4
REMARK    4  A    between atoms: N_6  and  C_7
REMARK    5  A    between atoms: C_7  and  C_8
REMARK    6  A    between atoms: C_8  and  C_9
REMARK    7  A    between atoms: C_9  and  C_10
REMARK    8  A    between atoms: C_22  and  O_23
REMARK    9  A    between atoms: C_22  and  C_24
REMARK   10  A    between atoms: C_22  and  C_30
REMARK                            x       y       z     vdW  Elec       q    Type
REMARK                         _______ _______ _______ _____ _____    ______ ____
ROOT
ATOM      1  O   UNL     1       3.909   3.935  16.658  0.00  0.00    +0.000 OA
ENDROOT
BRANCH   1   2
ATOM      2  C   UNL     1       2.727   3.414  17.419  0.00  0.00    +0.000 C 
ATOM      3  C   UNL     1       1.866   4.442  18.238  0.00  0.00    +0.000 C 
ATOM      4  N   UNL     1       1.749   4.013  19.752  0.00  0.00    +0.000 N 
ATOM      5  C   UNL     1       0.974   2.698  19.837  0.00  0.00    +0.000 C 
ATOM      6  C   UNL     1       1.647   1.658  18.918  0.00  0.00    +0.000 C 
ATOM      7  C   UNL     1       2.989   2.175  18.327  0.00  0.00    +0.000 C 
ATOM      8  C   UNL     1       3.840   2.563  19.526  0.00  0.00    +0.000 C 
ATOM      9  C   UNL     1       3.181   3.696  20.310  0.00  0.00    +0.000 C 
BRANCH   4  10
ATOM     10  C   UNL     1       1.234   5.147  20.692  0.00  0.00    +0.000 C 
BRANCH  10  11
ATOM     11  C   UNL     1       1.778   6.592  20.649  0.00  0.00    +0.000 C 
BRANCH  11  12
ATOM     12  C   UNL     1       0.894   7.696  21.249  0.00  0.00    +0.000 C 
BRANCH  12  13
ATOM     13  C   UNL     1       0.800   9.049  20.556  0.00  0.00    +0.000 A 
ATOM     14  C   UNL     1       0.262  10.211  21.131  0.00  0.00    +0.000 A 
ATOM     15  C   UNL     1       0.360  11.456  20.476  0.00  0.00    +0.000 A 
ATOM     16  C   UNL     1       0.988  11.554  19.235  0.00  0.00    +0.000 A 
ATOM     17  C   UNL     1       1.485  10.409  18.644  0.00  0.00    +0.000 A 
ATOM     18  F   UNL     1       2.089  10.488  17.453  0.00  0.00    +0.000 F 
ATOM     19  C   UNL     1       1.392   9.173  19.281  0.00  0.00    +0.000 A 
ENDBRANCH  12  13
ENDBRANCH  11  12
ENDBRANCH  10  11
ENDBRANCH   4  10
ENDBRANCH   1   2
BRANCH   1  21
ATOM     20  O   UNL     1       3.517   6.071  17.174  0.00  0.00    +0.000 OA
ATOM     21  C   UNL     1       4.256   5.255  16.649  0.00  0.00    +0.000 C 
BRANCH  21  22
ATOM     22  C   UNL     1       5.632   5.719  15.968  0.00  0.00    +0.000 C 
BRANCH  22  23
ATOM     23  C   UNL     1       6.729   6.166  16.976  0.00  0.00    +0.000 A 
ATOM     24  C   UNL     1       7.236   7.485  17.021  0.00  0.00    +0.000 A 
ATOM     25  C   UNL     1       8.098   7.914  18.047  0.00  0.00    +0.000 A 
ATOM     26  C   UNL     1       8.490   7.032  19.054  0.00  0.00    +0.000 A 
ATOM     27  C   UNL     1       8.026   5.726  19.025  0.00  0.00    +0.000 A 
ATOM     28  C   UNL     1       7.171   5.295  17.995  0.00  0.00    +0.000 A 
ENDBRANCH  22  23
BRANCH  22  29
ATOM     29  C   UNL     1       6.129   5.010  14.692  0.00  0.00    +0.000 A 
ATOM     30  C   UNL     1       5.437   4.008  14.005  0.00  0.00    +0.000 A 
ATOM     31  C   UNL     1       5.924   3.509  12.781  0.00  0.00    +0.000 A 
ATOM     32  C   UNL     1       7.119   3.981  12.230  0.00  0.00    +0.000 A 
ATOM     33  C   UNL     1       7.852   4.937  12.911  0.00  0.00    +0.000 A 
ATOM     34  C   UNL     1       7.366   5.436  14.120  0.00  0.00    +0.000 A 
ENDBRANCH  22  29
BRANCH  22  35
ATOM     35  O   UNL     1       5.172   6.979  15.340  0.00  0.00    +0.000 OA
ATOM     36  H   UNL     1       4.226   6.903  15.160  0.00  0.00    +0.000 HD
ENDBRANCH  22  35
ENDBRANCH  21  22
ENDBRANCH   1  21
TORSDOF 10
ENDMDL
