MODEL 1
REMARK VINA RESULT:      -7.7      0.000      0.000
REMARK  Name = 
REMARK  5 active torsions:
REMARK  status: ('A' for Active; 'I' for Inactive)
REMARK    1  A    between atoms: C_2  and  C_3
REMARK    2  A    between atoms: C_2  and  S_15
REMARK    3  A    between atoms: C_3  and  N_4
REMARK    4  A    between atoms: N_4  and  C_5
REMARK    5  A    between atoms: S_15  and  C_16
REMARK                            x       y       z     vdW  Elec       q    Type
REMARK                         _______ _______ _______ _____ _____    ______ ____
ROOT
ATOM      1  N   UNL     1       4.771   4.364  16.258  0.00  0.00    +0.000 NA
ATOM      2  H   UNL     1       4.093   4.213  15.511  0.00  0.00    +0.000 HD
ENDROOT
BRANCH   1   3
ATOM      3  C   UNL     1       6.095   3.891  15.798  0.00  0.00    +0.000 C 
ATOM      4  C   UNL     1       7.278   4.824  16.229  0.00  0.00    +0.000 C 
ATOM      5  O   UNL     1       7.651   5.077  17.366  0.00  0.00    +0.000 OA
ATOM      6  N   UNL     1       7.867   5.328  15.077  0.00  0.00    +0.000 N 
ATOM      7  C   UNL     1       7.272   4.809  13.940  0.00  0.00    +0.000 A 
ATOM      8  C   UNL     1       7.644   5.042  12.632  0.00  0.00    +0.000 A 
ATOM      9  C   UNL     1       6.932   4.368  11.636  0.00  0.00    +0.000 A 
ATOM     10  C   UNL     1       5.881   3.496  11.974  0.00  0.00    +0.000 A 
ATOM     11  C   UNL     1       5.517   3.286  13.309  0.00  0.00    +0.000 A 
ATOM     12  C   UNL     1       6.223   3.955  14.292  0.00  0.00    +0.000 A 
ATOM     13  H   UNL     1       8.668   5.940  15.093  0.00  0.00    +0.000 HD
ENDBRANCH   1   3
BRANCH   1  14
ATOM     14  C   UNL     1       4.780   5.798  16.622  0.00  0.00    +0.000 C 
BRANCH  14  16
ATOM     15  O   UNL     1       5.135   5.842  19.017  0.00  0.00    +0.000 OA
ATOM     16  C   UNL     1       4.367   6.028  18.080  0.00  0.00    +0.000 C 
BRANCH  16  17
ATOM     17  S   UNL     1       2.668   6.417  18.345  0.00  0.00    +0.000 S 
BRANCH  17  18
ATOM     18  C   UNL     1       1.956   4.933  19.044  0.00  0.00    +0.000 A 
ATOM     19  C   UNL     1       1.620   3.904  18.150  0.00  0.00    +0.000 A 
ATOM     20  C   UNL     1       1.058   2.706  18.602  0.00  0.00    +0.000 A 
ATOM     21  C   UNL     1       0.848   2.506  19.962  0.00  0.00    +0.000 A 
ATOM     22  C   UNL     1       1.196   3.507  20.866  0.00  0.00    +0.000 A 
ATOM     23  C   UNL     1       1.743   4.713  20.410  0.00  0.00    +0.000 A 
ENDBRANCH  17  18
ENDBRANCH  16  17
ENDBRANCH  14  16
ENDBRANCH   1  14
TORSDOF 5
ENDMDL
MODEL 2
REMARK VINA RESULT:      -7.6      0.354      1.080
REMARK  Name = 
REMARK  5 active torsions:
REMARK  status: ('A' for Active; 'I' for Inactive)
REMARK    1  A    between atoms: C_2  and  C_3
REMARK    2  A    between atoms: C_2  and  S_15
REMARK    3  A    between atoms: C_3  and  N_4
REMARK    4  A    between atoms: N_4  and  C_5
REMARK    5  A    between atoms: S_15  and  C_16
REMARK                            x       y       z     vdW  Elec       q    Type
REMARK                         _______ _______ _______ _____ _____    ______ ____
ROOT
ATOM      1  N   UNL     1       4.768   4.320  16.267  0.00  0.00    +0.000 NA
ATOM      2  H   UNL     1       4.081   4.122  15.539  0.00  0.00    +0.000 HD
ENDROOT
BRANCH   1   3
ATOM      3  C   UNL     1       6.097   3.868  15.799  0.00  0.00    +0.000 C 
ATOM      4  C   UNL     1       7.267   4.818  16.229  0.00  0.00    +0.000 C 
ATOM      5  O   UNL     1       7.641   5.072  17.365  0.00  0.00    +0.000 OA
ATOM      6  N   UNL     1       7.844   5.334  15.076  0.00  0.00    +0.000 N 
ATOM      7  C   UNL     1       7.252   4.811  13.939  0.00  0.00    +0.000 A 
ATOM      8  C   UNL     1       7.614   5.053  12.631  0.00  0.00    +0.000 A 
ATOM      9  C   UNL     1       6.908   4.373  11.636  0.00  0.00    +0.000 A 
ATOM     10  C   UNL     1       5.872   3.484  11.975  0.00  0.00    +0.000 A 
ATOM     11  C   UNL     1       5.517   3.264  13.311  0.00  0.00    +0.000 A 
ATOM     12  C   UNL     1       6.217   3.940  14.293  0.00  0.00    +0.000 A 
ATOM     13  H   UNL     1       8.635   5.959  15.091  0.00  0.00    +0.000 HD
ENDBRANCH   1   3
BRANCH   1  14
ATOM     14  C   UNL     1       4.741   5.767  16.576  0.00  0.00    +0.000 C 
BRANCH  14  16
ATOM     15  O   UNL     1       5.189   5.933  18.950  0.00  0.00    +0.000 OA
ATOM     16  C   UNL     1       4.375   6.039  18.040  0.00  0.00    +0.000 C 
BRANCH  16  17
ATOM     17  S   UNL     1       2.670   6.354  18.360  0.00  0.00    +0.000 S 
BRANCH  17  18
ATOM     18  C   UNL     1       2.083   4.900  19.219  0.00  0.00    +0.000 A 
ATOM     19  C   UNL     1       2.328   4.834  20.600  0.00  0.00    +0.000 A 
ATOM     20  C   UNL     1       1.907   3.736  21.359  0.00  0.00    +0.000 A 
ATOM     21  C   UNL     1       1.210   2.697  20.751  0.00  0.00    +0.000 A 
ATOM     22  C   UNL     1       0.939   2.757  19.387  0.00  0.00    +0.000 A 
ATOM     23  C   UNL     1       1.375   3.849  18.626  0.00  0.00    +0.000 A 
ENDBRANCH  17  18
ENDBRANCH  16  17
ENDBRANCH  14  16
ENDBRANCH   1  14
TORSDOF 5
ENDMDL
MODEL 3
REMARK VINA RESULT:      -7.5      2.102      6.959
REMARK  Name = 
REMARK  5 active torsions:
REMARK  status: ('A' for Active; 'I' for Inactive)
REMARK    1  A    between atoms: C_2  and  C_3
REMARK    2  A    between atoms: C_2  and  S_15
REMARK    3  A    between atoms: C_3  and  N_4
REMARK    4  A    between atoms: N_4  and  C_5
REMARK    5  A    between atoms: S_15  and  C_16
REMARK                            x       y       z     vdW  Elec       q    Type
REMARK                         _______ _______ _______ _____ _____    ______ ____
ROOT
ATOM      1  N   UNL     1       4.502   5.956  18.306  0.00  0.00    +0.000 NA
ATOM      2  H   UNL     1       4.795   6.353  19.199  0.00  0.00    +0.000 HD
ENDROOT
BRANCH   1   3
ATOM      3  C   UNL     1       3.024   5.891  18.280  0.00  0.00    +0.000 C 
ATOM      4  C   UNL     1       2.345   6.603  19.499  0.00  0.00    +0.000 C 
ATOM      5  O   UNL     1       2.388   7.792  19.786  0.00  0.00    +0.000 OA
ATOM      6  N   UNL     1       1.650   5.643  20.222  0.00  0.00    +0.000 N 
ATOM      7  C   UNL     1       1.728   4.401  19.616  0.00  0.00    +0.000 A 
ATOM      8  C   UNL     1       1.107   3.240  20.025  0.00  0.00    +0.000 A 
ATOM      9  C   UNL     1       1.283   2.106  19.227  0.00  0.00    +0.000 A 
ATOM     10  C   UNL     1       2.068   2.167  18.062  0.00  0.00    +0.000 A 
ATOM     11  C   UNL     1       2.697   3.356  17.675  0.00  0.00    +0.000 A 
ATOM     12  C   UNL     1       2.521   4.476  18.467  0.00  0.00    +0.000 A 
ATOM     13  H   UNL     1       1.110   5.862  21.045  0.00  0.00    +0.000 HD
ENDBRANCH   1   3
BRANCH   1  14
ATOM     14  C   UNL     1       5.049   6.782  17.208  0.00  0.00    +0.000 C 
BRANCH  14  16
ATOM     15  O   UNL     1       7.373   7.272  16.731  0.00  0.00    +0.000 OA
ATOM     16  C   UNL     1       6.504   6.421  16.881  0.00  0.00    +0.000 C 
BRANCH  16  17
ATOM     17  S   UNL     1       6.820   4.715  16.568  0.00  0.00    +0.000 S 
BRANCH  17  18
ATOM     18  C   UNL     1       6.910   4.580  14.787  0.00  0.00    +0.000 A 
ATOM     19  C   UNL     1       6.026   3.680  14.170  0.00  0.00    +0.000 A 
ATOM     20  C   UNL     1       6.021   3.505  12.782  0.00  0.00    +0.000 A 
ATOM     21  C   UNL     1       6.884   4.249  11.985  0.00  0.00    +0.000 A 
ATOM     22  C   UNL     1       7.752   5.162  12.578  0.00  0.00    +0.000 A 
ATOM     23  C   UNL     1       7.767   5.325  13.969  0.00  0.00    +0.000 A 
ENDBRANCH  17  18
ENDBRANCH  16  17
ENDBRANCH  14  16
ENDBRANCH   1  14
TORSDOF 5
ENDMDL
MODEL 4
REMARK VINA RESULT:      -7.5      0.967      1.348
REMARK  Name = 
REMARK  5 active torsions:
REMARK  status: ('A' for Active; 'I' for Inactive)
REMARK    1  A    between atoms: C_2  and  C_3
REMARK    2  A    between atoms: C_2  and  S_15
REMARK    3  A    between atoms: C_3  and  N_4
REMARK    4  A    between atoms: N_4  and  C_5
REMARK    5  A    between atoms: S_15  and  C_16
REMARK                            x       y       z     vdW  Elec       q    Type
REMARK                         _______ _______ _______ _____ _____    ______ ____
ROOT
ATOM      1  N   UNL     1       4.640   4.870  16.123  0.00  0.00    +0.000 NA
ATOM      2  H   UNL     1       4.051   4.820  15.291  0.00  0.00    +0.000 HD
ENDROOT
BRANCH   1   3
ATOM      3  C   UNL     1       5.966   4.298  15.800  0.00  0.00    +0.000 C 
ATOM      4  C   UNL     1       7.160   5.245  16.162  0.00  0.00    +0.000 C 
ATOM      5  O   UNL     1       7.488   5.639  17.273  0.00  0.00    +0.000 OA
ATOM      6  N   UNL     1       7.822   5.568  14.984  0.00  0.00    +0.000 N 
ATOM      7  C   UNL     1       7.262   4.918  13.898  0.00  0.00    +0.000 A 
ATOM      8  C   UNL     1       7.704   4.959  12.592  0.00  0.00    +0.000 A 
ATOM      9  C   UNL     1       7.015   4.178  11.661  0.00  0.00    +0.000 A 
ATOM     10  C   UNL     1       5.918   3.392  12.058  0.00  0.00    +0.000 A 
ATOM     11  C   UNL     1       5.483   3.378  13.388  0.00  0.00    +0.000 A 
ATOM     12  C   UNL     1       6.167   4.153  14.308  0.00  0.00    +0.000 A 
ATOM     13  H   UNL     1       8.643   6.153  14.960  0.00  0.00    +0.000 HD
ENDBRANCH   1   3
BRANCH   1  14
ATOM     14  C   UNL     1       4.727   6.278  16.569  0.00  0.00    +0.000 C 
BRANCH  14  16
ATOM     15  O   UNL     1       3.213   7.469  18.037  0.00  0.00    +0.000 OA
ATOM     16  C   UNL     1       3.970   6.518  17.881  0.00  0.00    +0.000 C 
BRANCH  16  17
ATOM     17  S   UNL     1       4.379   5.437  19.213  0.00  0.00    +0.000 S 
BRANCH  17  18
ATOM     18  C   UNL     1       3.012   4.288  19.314  0.00  0.00    +0.000 A 
ATOM     19  C   UNL     1       1.940   4.644  20.147  0.00  0.00    +0.000 A 
ATOM     20  C   UNL     1       0.826   3.810  20.291  0.00  0.00    +0.000 A 
ATOM     21  C   UNL     1       0.755   2.616  19.581  0.00  0.00    +0.000 A 
ATOM     22  C   UNL     1       1.799   2.258  18.732  0.00  0.00    +0.000 A 
ATOM     23  C   UNL     1       2.921   3.087  18.602  0.00  0.00    +0.000 A 
ENDBRANCH  17  18
ENDBRANCH  16  17
ENDBRANCH  14  16
ENDBRANCH   1  14
TORSDOF 5
ENDMDL
MODEL 5
REMARK VINA RESULT:      -7.5      2.142      2.907
REMARK  Name = 
REMARK  5 active torsions:
REMARK  status: ('A' for Active; 'I' for Inactive)
REMARK    1  A    between atoms: C_2  and  C_3
REMARK    2  A    between atoms: C_2  and  S_15
REMARK    3  A    between atoms: C_3  and  N_4
REMARK    4  A    between atoms: N_4  and  C_5
REMARK    5  A    between atoms: S_15  and  C_16
REMARK                            x       y       z     vdW  Elec       q    Type
REMARK                         _______ _______ _______ _____ _____    ______ ____
ROOT
ATOM      1  N   UNL     1       4.534   4.292  16.315  0.00  0.00    +0.000 NA
ATOM      2  H   UNL     1       4.425   5.304  16.390  0.00  0.00    +0.000 HD
ENDROOT
BRANCH   1   3
ATOM      3  C   UNL     1       5.952   3.989  16.020  0.00  0.00    +0.000 C 
ATOM      4  C   UNL     1       6.946   5.083  16.539  0.00  0.00    +0.000 C 
ATOM      5  O   UNL     1       7.152   5.411  17.700  0.00  0.00    +0.000 OA
ATOM      6  N   UNL     1       7.590   5.632  15.439  0.00  0.00    +0.000 N 
ATOM      7  C   UNL     1       7.200   5.011  14.265  0.00  0.00    +0.000 A 
ATOM      8  C   UNL     1       7.683   5.260  12.997  0.00  0.00    +0.000 A 
ATOM      9  C   UNL     1       7.181   4.473  11.957  0.00  0.00    +0.000 A 
ATOM     10  C   UNL     1       6.222   3.476  12.213  0.00  0.00    +0.000 A 
ATOM     11  C   UNL     1       5.740   3.252  13.508  0.00  0.00    +0.000 A 
ATOM     12  C   UNL     1       6.238   4.033  14.535  0.00  0.00    +0.000 A 
ATOM     13  H   UNL     1       8.297   6.347  15.518  0.00  0.00    +0.000 HD
ENDBRANCH   1   3
BRANCH   1  14
ATOM     14  C   UNL     1       4.073   3.662  17.571  0.00  0.00    +0.000 C 
BRANCH  14  16
ATOM     15  O   UNL     1       1.780   4.440  17.622  0.00  0.00    +0.000 OA
ATOM     16  C   UNL     1       2.870   4.394  18.179  0.00  0.00    +0.000 C 
BRANCH  16  17
ATOM     17  S   UNL     1       3.193   5.312  19.650  0.00  0.00    +0.000 S 
BRANCH  17  18
ATOM     18  C   UNL     1       2.497   6.931  19.349  0.00  0.00    +0.000 A 
ATOM     19  C   UNL     1       2.695   7.483  18.073  0.00  0.00    +0.000 A 
ATOM     20  C   UNL     1       2.189   8.744  17.742  0.00  0.00    +0.000 A 
ATOM     21  C   UNL     1       1.450   9.464  18.676  0.00  0.00    +0.000 A 
ATOM     22  C   UNL     1       1.224   8.922  19.938  0.00  0.00    +0.000 A 
ATOM     23  C   UNL     1       1.746   7.665  20.274  0.00  0.00    +0.000 A 
ENDBRANCH  17  18
ENDBRANCH  16  17
ENDBRANCH  14  16
ENDBRANCH   1  14
TORSDOF 5
ENDMDL
MODEL 6
REMARK VINA RESULT:      -7.5      1.718      2.400
REMARK  Name = 
REMARK  5 active torsions:
REMARK  status: ('A' for Active; 'I' for Inactive)
REMARK    1  A    between atoms: C_2  and  C_3
REMARK    2  A    between atoms: C_2  and  S_15
REMARK    3  A    between atoms: C_3  and  N_4
REMARK    4  A    between atoms: N_4  and  C_5
REMARK    5  A    between atoms: S_15  and  C_16
REMARK                            x       y       z     vdW  Elec       q    Type
REMARK                         _______ _______ _______ _____ _____    ______ ____
ROOT
ATOM      1  N   UNL     1       4.648   4.350  16.350  0.00  0.00    +0.000 NA
ATOM      2  H   UNL     1       4.593   5.264  16.799  0.00  0.00    +0.000 HD
ENDROOT
BRANCH   1   3
ATOM      3  C   UNL     1       6.062   4.071  16.016  0.00  0.00    +0.000 C 
ATOM      4  C   UNL     1       7.043   5.213  16.448  0.00  0.00    +0.000 C 
ATOM      5  O   UNL     1       7.282   5.600  17.584  0.00  0.00    +0.000 OA
ATOM      6  N   UNL     1       7.632   5.728  15.301  0.00  0.00    +0.000 N 
ATOM      7  C   UNL     1       7.217   5.043  14.172  0.00  0.00    +0.000 A 
ATOM      8  C   UNL     1       7.648   5.246  12.877  0.00  0.00    +0.000 A 
ATOM      9  C   UNL     1       7.131   4.399  11.893  0.00  0.00    +0.000 A 
ATOM     10  C   UNL     1       6.210   3.390  12.229  0.00  0.00    +0.000 A 
ATOM     11  C   UNL     1       5.782   3.213  13.550  0.00  0.00    +0.000 A 
ATOM     12  C   UNL     1       6.294   4.054  14.521  0.00  0.00    +0.000 A 
ATOM     13  H   UNL     1       8.321   6.464  15.322  0.00  0.00    +0.000 HD
ENDBRANCH   1   3
BRANCH   1  14
ATOM     14  C   UNL     1       4.070   3.331  17.253  0.00  0.00    +0.000 C 
BRANCH  14  16
ATOM     15  O   UNL     1       5.273   3.790  19.304  0.00  0.00    +0.000 OA
ATOM     16  C   UNL     1       4.193   3.730  18.729  0.00  0.00    +0.000 C 
BRANCH  16  17
ATOM     17  S   UNL     1       2.673   3.934  19.599  0.00  0.00    +0.000 S 
BRANCH  17  18
ATOM     18  C   UNL     1       2.350   5.693  19.561  0.00  0.00    +0.000 A 
ATOM     19  C   UNL     1       2.664   6.373  18.374  0.00  0.00    +0.000 A 
ATOM     20  C   UNL     1       2.447   7.750  18.248  0.00  0.00    +0.000 A 
ATOM     21  C   UNL     1       1.887   8.464  19.302  0.00  0.00    +0.000 A 
ATOM     22  C   UNL     1       1.549   7.801  20.479  0.00  0.00    +0.000 A 
ATOM     23  C   UNL     1       1.781   6.425  20.609  0.00  0.00    +0.000 A 
ENDBRANCH  17  18
ENDBRANCH  16  17
ENDBRANCH  14  16
ENDBRANCH   1  14
TORSDOF 5
ENDMDL
MODEL 7
REMARK VINA RESULT:      -7.4      1.962      6.982
REMARK  Name = 
REMARK  5 active torsions:
REMARK  status: ('A' for Active; 'I' for Inactive)
REMARK    1  A    between atoms: C_2  and  C_3
REMARK    2  A    between atoms: C_2  and  S_15
REMARK    3  A    between atoms: C_3  and  N_4
REMARK    4  A    between atoms: N_4  and  C_5
REMARK    5  A    between atoms: S_15  and  C_16
REMARK                            x       y       z     vdW  Elec       q    Type
REMARK                         _______ _______ _______ _____ _____    ______ ____
ROOT
ATOM      1  N   UNL     1       4.197   6.380  18.312  0.00  0.00    +0.000 NA
ATOM      2  H   UNL     1       3.470   5.980  17.717  0.00  0.00    +0.000 HD
ENDROOT
BRANCH   1   3
ATOM      3  C   UNL     1       4.396   5.491  19.478  0.00  0.00    +0.000 C 
ATOM      4  C   UNL     1       5.472   4.378  19.239  0.00  0.00    +0.000 C 
ATOM      5  O   UNL     1       6.667   4.531  19.023  0.00  0.00    +0.000 OA
ATOM      6  N   UNL     1       4.839   3.145  19.326  0.00  0.00    +0.000 N 
ATOM      7  C   UNL     1       3.501   3.288  19.647  0.00  0.00    +0.000 A 
ATOM      8  C   UNL     1       2.592   2.276  19.875  0.00  0.00    +0.000 A 
ATOM      9  C   UNL     1       1.296   2.651  20.240  0.00  0.00    +0.000 A 
ATOM     10  C   UNL     1       0.953   4.010  20.363  0.00  0.00    +0.000 A 
ATOM     11  C   UNL     1       1.892   5.018  20.116  0.00  0.00    +0.000 A 
ATOM     12  C   UNL     1       3.174   4.643  19.753  0.00  0.00    +0.000 A 
ATOM     13  H   UNL     1       5.329   2.269  19.228  0.00  0.00    +0.000 HD
ENDBRANCH   1   3
BRANCH   1  14
ATOM     14  C   UNL     1       5.432   6.553  17.518  0.00  0.00    +0.000 C 
BRANCH  14  16
ATOM     15  O   UNL     1       5.004   7.003  15.177  0.00  0.00    +0.000 OA
ATOM     16  C   UNL     1       5.233   6.170  16.046  0.00  0.00    +0.000 C 
BRANCH  16  17
ATOM     17  S   UNL     1       5.187   4.441  15.702  0.00  0.00    +0.000 S 
BRANCH  17  18
ATOM     18  C   UNL     1       5.975   4.266  14.106  0.00  0.00    +0.000 A 
ATOM     19  C   UNL     1       7.150   5.003  13.890  0.00  0.00    +0.000 A 
ATOM     20  C   UNL     1       7.837   4.932  12.674  0.00  0.00    +0.000 A 
ATOM     21  C   UNL     1       7.374   4.098  11.662  0.00  0.00    +0.000 A 
ATOM     22  C   UNL     1       6.223   3.342  11.867  0.00  0.00    +0.000 A 
ATOM     23  C   UNL     1       5.526   3.427  13.079  0.00  0.00    +0.000 A 
ENDBRANCH  17  18
ENDBRANCH  16  17
ENDBRANCH  14  16
ENDBRANCH   1  14
TORSDOF 5
ENDMDL
MODEL 8
REMARK VINA RESULT:      -7.3      2.910      4.384
REMARK  Name = 
REMARK  5 active torsions:
REMARK  status: ('A' for Active; 'I' for Inactive)
REMARK    1  A    between atoms: C_2  and  C_3
REMARK    2  A    between atoms: C_2  and  S_15
REMARK    3  A    between atoms: C_3  and  N_4
REMARK    4  A    between atoms: N_4  and  C_5
REMARK    5  A    between atoms: S_15  and  C_16
REMARK                            x       y       z     vdW  Elec       q    Type
REMARK                         _______ _______ _______ _____ _____    ______ ____
ROOT
ATOM      1  N   UNL     1       3.140   2.451  17.549  0.00  0.00    +0.000 NA
ATOM      2  H   UNL     1       2.642   3.325  17.376  0.00  0.00    +0.000 HD
ENDROOT
BRANCH   1   3
ATOM      3  C   UNL     1       4.565   2.760  17.798  0.00  0.00    +0.000 C 
ATOM      4  C   UNL     1       4.896   3.010  19.309  0.00  0.00    +0.000 C 
ATOM      5  O   UNL     1       4.802   2.215  20.234  0.00  0.00    +0.000 OA
ATOM      6  N   UNL     1       5.342   4.319  19.439  0.00  0.00    +0.000 N 
ATOM      7  C   UNL     1       5.406   4.953  18.209  0.00  0.00    +0.000 A 
ATOM      8  C   UNL     1       5.863   6.230  17.960  0.00  0.00    +0.000 A 
ATOM      9  C   UNL     1       5.889   6.650  16.628  0.00  0.00    +0.000 A 
ATOM     10  C   UNL     1       5.460   5.792  15.599  0.00  0.00    +0.000 A 
ATOM     11  C   UNL     1       4.990   4.504  15.880  0.00  0.00    +0.000 A 
ATOM     12  C   UNL     1       4.965   4.092  17.201  0.00  0.00    +0.000 A 
ATOM     13  H   UNL     1       5.637   4.713  20.319  0.00  0.00    +0.000 HD
ENDBRANCH   1   3
BRANCH   1  14
ATOM     14  C   UNL     1       2.508   1.751  18.688  0.00  0.00    +0.000 C 
BRANCH  14  16
ATOM     15  O   UNL     1       0.147   2.255  18.486  0.00  0.00    +0.000 OA
ATOM     16  C   UNL     1       1.189   2.409  19.113  0.00  0.00    +0.000 C 
BRANCH  16  17
ATOM     17  S   UNL     1       1.295   3.537  20.463  0.00  0.00    +0.000 S 
BRANCH  17  18
ATOM     18  C   UNL     1       1.682   5.116  19.719  0.00  0.00    +0.000 A 
ATOM     19  C   UNL     1       1.828   6.211  20.585  0.00  0.00    +0.000 A 
ATOM     20  C   UNL     1       2.130   7.487  20.096  0.00  0.00    +0.000 A 
ATOM     21  C   UNL     1       2.319   7.682  18.732  0.00  0.00    +0.000 A 
ATOM     22  C   UNL     1       2.200   6.603  17.861  0.00  0.00    +0.000 A 
ATOM     23  C   UNL     1       1.881   5.329  18.350  0.00  0.00    +0.000 A 
ENDBRANCH  17  18
ENDBRANCH  16  17
ENDBRANCH  14  16
ENDBRANCH   1  14
TORSDOF 5
ENDMDL
MODEL 9
REMARK VINA RESULT:      -7.3      3.478      6.851
REMARK  Name = 
REMARK  5 active torsions:
REMARK  status: ('A' for Active; 'I' for Inactive)
REMARK    1  A    between atoms: C_2  and  C_3
REMARK    2  A    between atoms: C_2  and  S_15
REMARK    3  A    between atoms: C_3  and  N_4
REMARK    4  A    between atoms: N_4  and  C_5
REMARK    5  A    between atoms: S_15  and  C_16
REMARK                            x       y       z     vdW  Elec       q    Type
REMARK                         _______ _______ _______ _____ _____    ______ ____
ROOT
ATOM      1  N   UNL     1       1.897   4.647  18.181  0.00  0.00    +0.000 NA
ATOM      2  H   UNL     1       0.935   4.564  18.510  0.00  0.00    +0.000 HD
ENDROOT
BRANCH   1   3
ATOM      3  C   UNL     1       2.637   5.537  19.103  0.00  0.00    +0.000 C 
ATOM      4  C   UNL     1       2.210   5.380  20.602  0.00  0.00    +0.000 C 
ATOM      5  O   UNL     1       2.322   4.388  21.308  0.00  0.00    +0.000 OA
ATOM      6  N   UNL     1       1.676   6.591  21.024  0.00  0.00    +0.000 N 
ATOM      7  C   UNL     1       1.745   7.546  20.025  0.00  0.00    +0.000 A 
ATOM      8  C   UNL     1       1.367   8.869  20.118  0.00  0.00    +0.000 A 
ATOM      9  C   UNL     1       1.575   9.674  18.995  0.00  0.00    +0.000 A 
ATOM     10  C   UNL     1       2.144   9.137  17.826  0.00  0.00    +0.000 A 
ATOM     11  C   UNL     1       2.509   7.787  17.754  0.00  0.00    +0.000 A 
ATOM     12  C   UNL     1       2.301   6.994  18.868  0.00  0.00    +0.000 A 
ATOM     13  H   UNL     1       1.348   6.747  21.964  0.00  0.00    +0.000 HD
ENDBRANCH   1   3
BRANCH   1  14
ATOM     14  C   UNL     1       2.497   3.298  18.097  0.00  0.00    +0.000 C 
BRANCH  14  16
ATOM     15  O   UNL     1       4.644   3.112  19.203  0.00  0.00    +0.000 OA
ATOM     16  C   UNL     1       4.029   3.340  18.168  0.00  0.00    +0.000 C 
BRANCH  16  17
ATOM     17  S   UNL     1       4.849   3.899  16.711  0.00  0.00    +0.000 S 
BRANCH  17  18
ATOM     18  C   UNL     1       5.952   5.192  17.267  0.00  0.00    +0.000 A 
ATOM     19  C   UNL     1       6.945   4.830  18.191  0.00  0.00    +0.000 A 
ATOM     20  C   UNL     1       7.855   5.771  18.685  0.00  0.00    +0.000 A 
ATOM     21  C   UNL     1       7.801   7.088  18.240  0.00  0.00    +0.000 A 
ATOM     22  C   UNL     1       6.837   7.460  17.307  0.00  0.00    +0.000 A 
ATOM     23  C   UNL     1       5.917   6.520  16.826  0.00  0.00    +0.000 A 
ENDBRANCH  17  18
ENDBRANCH  16  17
ENDBRANCH  14  16
ENDBRANCH   1  14
TORSDOF 5
ENDMDL
