MODEL 1
REMARK VINA RESULT:      -8.1      0.000      0.000
REMARK  Name = 
REMARK  5 active torsions:
REMARK  status: ('A' for Active; 'I' for Inactive)
REMARK    1  A    between atoms: C_1  and  O_2
REMARK    2  A    between atoms: O_2  and  C_3
REMARK    3  A    between atoms: N_11  and  C_12
REMARK    4  A    between atoms: C_12  and  C_13
REMARK    5  A    between atoms: C_20  and  C_21
REMARK                            x       y       z     vdW  Elec       q    Type
REMARK                         _______ _______ _______ _____ _____    ______ ____
ROOT
ATOM      1  C   UNL     1       5.822   5.158  15.404  0.00  0.00    +0.000 A 
ATOM      2  C   UNL     1       5.838   6.396  16.041  0.00  0.00    +0.000 A 
ATOM      3  C   UNL     1       5.064   6.634  17.192  0.00  0.00    +0.000 A 
ATOM      4  C   UNL     1       4.250   5.594  17.681  0.00  0.00    +0.000 A 
ATOM      5  C   UNL     1       4.241   4.347  17.057  0.00  0.00    +0.000 A 
ATOM      6  C   UNL     1       5.038   4.128  15.924  0.00  0.00    +0.000 A 
ATOM      7  C   UNL     1       3.322   3.541  17.762  0.00  0.00    +0.000 A 
ATOM      8  C   UNL     1       2.719   4.292  18.755  0.00  0.00    +0.000 A 
ATOM      9  N   UNL     1       3.358   5.526  18.755  0.00  0.00    +0.000 N 
ATOM     10  C   UNL     1       1.620   3.727  19.518  0.00  0.00    +0.000 C 
ATOM     11  C   UNL     1       0.761   4.547  20.444  0.00  0.00    +0.000 C 
ATOM     12  N   UNL     1       1.309   2.477  19.424  0.00  0.00    +0.000 NA
ATOM     13  C   UNL     1       2.077   1.541  18.586  0.00  0.00    +0.000 C 
ATOM     14  C   UNL     1       2.929   2.146  17.473  0.00  0.00    +0.000 C 
ENDROOT
BRANCH   1  16
ATOM     15  C   UNL     1       6.019   3.707  13.528  0.00  0.00    +0.000 C 
ATOM     16  O   UNL     1       6.514   4.806  14.279  0.00  0.00    +0.000 OA
ENDBRANCH   1  16
BRANCH   9  17
ATOM     17  C   UNL     1       3.237   6.596  19.751  0.00  0.00    +0.000 C 
BRANCH  17  18
ATOM     18  C   UNL     1       2.250   7.697  19.406  0.00  0.00    +0.000 A 
ATOM     19  C   UNL     1       2.064   8.194  18.105  0.00  0.00    +0.000 A 
ATOM     20  C   UNL     1       1.204   9.270  17.864  0.00  0.00    +0.000 A 
ATOM     21  C   UNL     1       0.505   9.851  18.916  0.00  0.00    +0.000 A 
ATOM     22 CL   UNL     1      -0.497  11.220  18.627  0.00  0.00    +0.000 Cl
ATOM     23  C   UNL     1       0.628   9.340  20.205  0.00  0.00    +0.000 A 
ATOM     24  C   UNL     1       1.490   8.265  20.446  0.00  0.00    +0.000 A 
ENDBRANCH  17  18
ENDBRANCH   9  17
TORSDOF 3
ENDMDL
MODEL 2
REMARK VINA RESULT:      -7.8      0.237      1.011
REMARK  Name = 
REMARK  5 active torsions:
REMARK  status: ('A' for Active; 'I' for Inactive)
REMARK    1  A    between atoms: C_1  and  O_2
REMARK    2  A    between atoms: O_2  and  C_3
REMARK    3  A    between atoms: N_11  and  C_12
REMARK    4  A    between atoms: C_12  and  C_13
REMARK    5  A    between atoms: C_20  and  C_21
REMARK                            x       y       z     vdW  Elec       q    Type
REMARK                         _______ _______ _______ _____ _____    ______ ____
ROOT
ATOM      1  C   UNL     1       5.827   5.471  15.523  0.00  0.00    +0.000 A 
ATOM      2  C   UNL     1       5.814   6.663  16.243  0.00  0.00    +0.000 A 
ATOM      3  C   UNL     1       5.015   6.812  17.392  0.00  0.00    +0.000 A 
ATOM      4  C   UNL     1       4.206   5.732  17.792  0.00  0.00    +0.000 A 
ATOM      5  C   UNL     1       4.225   4.530  17.085  0.00  0.00    +0.000 A 
ATOM      6  C   UNL     1       5.047   4.399  15.955  0.00  0.00    +0.000 A 
ATOM      7  C   UNL     1       3.303   3.667  17.715  0.00  0.00    +0.000 A 
ATOM      8  C   UNL     1       2.672   4.341  18.745  0.00  0.00    +0.000 A 
ATOM      9  N   UNL     1       3.294   5.579  18.841  0.00  0.00    +0.000 N 
ATOM     10  C   UNL     1       1.565   3.712  19.445  0.00  0.00    +0.000 C 
ATOM     11  C   UNL     1       0.679   4.457  20.407  0.00  0.00    +0.000 C 
ATOM     12  N   UNL     1       1.273   2.468  19.259  0.00  0.00    +0.000 NA
ATOM     13  C   UNL     1       2.069   1.600  18.375  0.00  0.00    +0.000 C 
ATOM     14  C   UNL     1       2.934   2.290  17.322  0.00  0.00    +0.000 C 
ENDROOT
BRANCH   1  16
ATOM     15  C   UNL     1       6.303   3.965  13.743  0.00  0.00    +0.000 C 
ATOM     16  O   UNL     1       6.544   5.205  14.390  0.00  0.00    +0.000 OA
ENDBRANCH   1  16
BRANCH   9  17
ATOM     17  C   UNL     1       3.140   6.577  19.905  0.00  0.00    +0.000 C 
BRANCH  17  18
ATOM     18  C   UNL     1       2.217   7.738  19.580  0.00  0.00    +0.000 A 
ATOM     19  C   UNL     1       1.422   8.389  20.538  0.00  0.00    +0.000 A 
ATOM     20  C   UNL     1       0.525   9.395  20.162  0.00  0.00    +0.000 A 
ATOM     21  C   UNL     1       0.425   9.774  18.828  0.00  0.00    +0.000 A 
ATOM     22 CL   UNL     1      -0.730  10.961  18.359  0.00  0.00    +0.000 Cl
ATOM     23  C   UNL     1       1.242   9.184  17.869  0.00  0.00    +0.000 A 
ATOM     24  C   UNL     1       2.137   8.176  18.245  0.00  0.00    +0.000 A 
ENDBRANCH  17  18
ENDBRANCH   9  17
TORSDOF 3
ENDMDL
MODEL 3
REMARK VINA RESULT:      -7.5      3.236      5.824
REMARK  Name = 
REMARK  5 active torsions:
REMARK  status: ('A' for Active; 'I' for Inactive)
REMARK    1  A    between atoms: C_1  and  O_2
REMARK    2  A    between atoms: O_2  and  C_3
REMARK    3  A    between atoms: N_11  and  C_12
REMARK    4  A    between atoms: C_12  and  C_13
REMARK    5  A    between atoms: C_20  and  C_21
REMARK                            x       y       z     vdW  Elec       q    Type
REMARK                         _______ _______ _______ _____ _____    ______ ____
ROOT
ATOM      1  C   UNL     1       2.266   8.288  17.856  0.00  0.00    +0.000 A 
ATOM      2  C   UNL     1       3.586   8.250  17.416  0.00  0.00    +0.000 A 
ATOM      3  C   UNL     1       4.386   7.108  17.610  0.00  0.00    +0.000 A 
ATOM      4  C   UNL     1       3.828   6.002  18.280  0.00  0.00    +0.000 A 
ATOM      5  C   UNL     1       2.501   6.028  18.709  0.00  0.00    +0.000 A 
ATOM      6  C   UNL     1       1.718   7.171  18.485  0.00  0.00    +0.000 A 
ATOM      7  C   UNL     1       2.253   4.798  19.355  0.00  0.00    +0.000 A 
ATOM      8  C   UNL     1       3.419   4.054  19.391  0.00  0.00    +0.000 A 
ATOM      9  N   UNL     1       4.358   4.764  18.652  0.00  0.00    +0.000 N 
ATOM     10  C   UNL     1       3.458   2.813  20.143  0.00  0.00    +0.000 C 
ATOM     11  C   UNL     1       4.736   2.070  20.428  0.00  0.00    +0.000 C 
ATOM     12  N   UNL     1       2.383   2.286  20.627  0.00  0.00    +0.000 NA
ATOM     13  C   UNL     1       1.053   2.877  20.402  0.00  0.00    +0.000 C 
ATOM     14  C   UNL     1       1.007   4.353  20.012  0.00  0.00    +0.000 C 
ENDROOT
BRANCH   1  16
ATOM     15  C   UNL     1       1.287  10.217  18.848  0.00  0.00    +0.000 C 
ATOM     16  O   UNL     1       1.394   9.335  17.742  0.00  0.00    +0.000 OA
ENDBRANCH   1  16
BRANCH   9  17
ATOM     17  C   UNL     1       5.680   4.305  18.211  0.00  0.00    +0.000 C 
BRANCH  17  18
ATOM     18  C   UNL     1       5.914   4.341  16.711  0.00  0.00    +0.000 A 
ATOM     19  C   UNL     1       4.999   3.838  15.771  0.00  0.00    +0.000 A 
ATOM     20  C   UNL     1       5.309   3.819  14.406  0.00  0.00    +0.000 A 
ATOM     21  C   UNL     1       6.529   4.318  13.964  0.00  0.00    +0.000 A 
ATOM     22 CL   UNL     1       6.937   4.228  12.295  0.00  0.00    +0.000 Cl
ATOM     23  C   UNL     1       7.428   4.873  14.869  0.00  0.00    +0.000 A 
ATOM     24  C   UNL     1       7.119   4.890  16.233  0.00  0.00    +0.000 A 
ENDBRANCH  17  18
ENDBRANCH   9  17
TORSDOF 3
ENDMDL
MODEL 4
REMARK VINA RESULT:      -7.1      3.174      5.765
REMARK  Name = 
REMARK  5 active torsions:
REMARK  status: ('A' for Active; 'I' for Inactive)
REMARK    1  A    between atoms: C_1  and  O_2
REMARK    2  A    between atoms: O_2  and  C_3
REMARK    3  A    between atoms: N_11  and  C_12
REMARK    4  A    between atoms: C_12  and  C_13
REMARK    5  A    between atoms: C_20  and  C_21
REMARK                            x       y       z     vdW  Elec       q    Type
REMARK                         _______ _______ _______ _____ _____    ______ ____
ROOT
ATOM      1  C   UNL     1       2.364   8.288  17.791  0.00  0.00    +0.000 A 
ATOM      2  C   UNL     1       3.709   8.250  17.431  0.00  0.00    +0.000 A 
ATOM      3  C   UNL     1       4.499   7.113  17.683  0.00  0.00    +0.000 A 
ATOM      4  C   UNL     1       3.905   6.012  18.329  0.00  0.00    +0.000 A 
ATOM      5  C   UNL     1       2.555   6.037  18.678  0.00  0.00    +0.000 A 
ATOM      6  C   UNL     1       1.783   7.174  18.396  0.00  0.00    +0.000 A 
ATOM      7  C   UNL     1       2.273   4.812  19.319  0.00  0.00    +0.000 A 
ATOM      8  C   UNL     1       3.437   4.073  19.432  0.00  0.00    +0.000 A 
ATOM      9  N   UNL     1       4.416   4.779  18.744  0.00  0.00    +0.000 N 
ATOM     10  C   UNL     1       3.435   2.838  20.196  0.00  0.00    +0.000 C 
ATOM     11  C   UNL     1       4.696   2.103  20.565  0.00  0.00    +0.000 C 
ATOM     12  N   UNL     1       2.334   2.312  20.620  0.00  0.00    +0.000 NA
ATOM     13  C   UNL     1       1.018   2.896  20.310  0.00  0.00    +0.000 C 
ATOM     14  C   UNL     1       0.991   4.368  19.905  0.00  0.00    +0.000 C 
ENDROOT
BRANCH   1  16
ATOM     15  C   UNL     1       0.902   9.886  18.777  0.00  0.00    +0.000 C 
ATOM     16  O   UNL     1       1.497   9.330  17.614  0.00  0.00    +0.000 OA
ENDBRANCH   1  16
BRANCH   9  17
ATOM     17  C   UNL     1       5.764   4.321  18.386  0.00  0.00    +0.000 C 
BRANCH  17  18
ATOM     18  C   UNL     1       6.061   4.271  16.898  0.00  0.00    +0.000 A 
ATOM     19  C   UNL     1       7.211   4.831  16.317  0.00  0.00    +0.000 A 
ATOM     20  C   UNL     1       7.386   4.830  14.929  0.00  0.00    +0.000 A 
ATOM     21  C   UNL     1       6.423   4.256  14.107  0.00  0.00    +0.000 A 
ATOM     22 CL   UNL     1       6.607   4.320  12.397  0.00  0.00    +0.000 Cl
ATOM     23  C   UNL     1       5.303   3.645  14.662  0.00  0.00    +0.000 A 
ATOM     24  C   UNL     1       5.127   3.647  16.049  0.00  0.00    +0.000 A 
ENDBRANCH  17  18
ENDBRANCH   9  17
TORSDOF 3
ENDMDL
MODEL 5
REMARK VINA RESULT:      -7.0      4.115      6.951
REMARK  Name = 
REMARK  5 active torsions:
REMARK  status: ('A' for Active; 'I' for Inactive)
REMARK    1  A    between atoms: C_1  and  O_2
REMARK    2  A    between atoms: O_2  and  C_3
REMARK    3  A    between atoms: N_11  and  C_12
REMARK    4  A    between atoms: C_12  and  C_13
REMARK    5  A    between atoms: C_20  and  C_21
REMARK                            x       y       z     vdW  Elec       q    Type
REMARK                         _______ _______ _______ _____ _____    ______ ____
ROOT
ATOM      1  C   UNL     1       2.414   7.439  19.063  0.00  0.00    +0.000 A 
ATOM      2  C   UNL     1       2.416   8.229  17.917  0.00  0.00    +0.000 A 
ATOM      3  C   UNL     1       1.732   9.458  17.878  0.00  0.00    +0.000 A 
ATOM      4  C   UNL     1       1.021   9.868  19.022  0.00  0.00    +0.000 A 
ATOM      5  C   UNL     1       1.027   9.088  20.179  0.00  0.00    +0.000 A 
ATOM      6  C   UNL     1       1.735   7.877  20.200  0.00  0.00    +0.000 A 
ATOM      7  C   UNL     1       0.217   9.751  21.126  0.00  0.00    +0.000 A 
ATOM      8  C   UNL     1      -0.339  10.878  20.548  0.00  0.00    +0.000 A 
ATOM      9  N   UNL     1       0.229  10.990  19.284  0.00  0.00    +0.000 N 
ATOM     10  C   UNL     1      -1.336  11.643  21.275  0.00  0.00    +0.000 C 
ATOM     11  C   UNL     1      -2.156  12.732  20.637  0.00  0.00    +0.000 C 
ATOM     12  N   UNL     1      -1.585  11.409  22.521  0.00  0.00    +0.000 NA
ATOM     13  C   UNL     1      -0.841  10.399  23.291  0.00  0.00    +0.000 C 
ATOM     14  C   UNL     1      -0.122   9.311  22.496  0.00  0.00    +0.000 C 
ENDROOT
BRANCH   1  16
ATOM     15  C   UNL     1       3.960   5.831  18.232  0.00  0.00    +0.000 C 
ATOM     16  O   UNL     1       3.025   6.226  19.224  0.00  0.00    +0.000 OA
ENDBRANCH   1  16
BRANCH   9  17
ATOM     17  C   UNL     1       0.135  12.124  18.359  0.00  0.00    +0.000 C 
BRANCH  17  18
ATOM     18  C   UNL     1       1.135  13.242  18.596  0.00  0.00    +0.000 A 
ATOM     19  C   UNL     1       0.796  14.477  19.174  0.00  0.00    +0.000 A 
ATOM     20  C   UNL     1       1.744  15.500  19.285  0.00  0.00    +0.000 A 
ATOM     21  C   UNL     1       3.044  15.296  18.838  0.00  0.00    +0.000 A 
ATOM     22 CL   UNL     1       4.187  16.580  18.912  0.00  0.00    +0.000 Cl
ATOM     23  C   UNL     1       3.419  14.063  18.315  0.00  0.00    +0.000 A 
ATOM     24  C   UNL     1       2.471  13.040  18.201  0.00  0.00    +0.000 A 
ENDBRANCH  17  18
ENDBRANCH   9  17
TORSDOF 3
ENDMDL
MODEL 6
REMARK VINA RESULT:      -6.9      4.989      9.014
REMARK  Name = 
REMARK  5 active torsions:
REMARK  status: ('A' for Active; 'I' for Inactive)
REMARK    1  A    between atoms: C_1  and  O_2
REMARK    2  A    between atoms: O_2  and  C_3
REMARK    3  A    between atoms: N_11  and  C_12
REMARK    4  A    between atoms: C_12  and  C_13
REMARK    5  A    between atoms: C_20  and  C_21
REMARK                            x       y       z     vdW  Elec       q    Type
REMARK                         _______ _______ _______ _____ _____    ______ ____
ROOT
ATOM      1  C   UNL     1      -3.961  10.839  17.677  0.00  0.00    +0.000 A 
ATOM      2  C   UNL     1      -3.009  10.215  16.876  0.00  0.00    +0.000 A 
ATOM      3  C   UNL     1      -1.637  10.283  17.185  0.00  0.00    +0.000 A 
ATOM      4  C   UNL     1      -1.241  11.018  18.319  0.00  0.00    +0.000 A 
ATOM      5  C   UNL     1      -2.190  11.633  19.135  0.00  0.00    +0.000 A 
ATOM      6  C   UNL     1      -3.553  11.532  18.817  0.00  0.00    +0.000 A 
ATOM      7  C   UNL     1      -1.484  12.298  20.160  0.00  0.00    +0.000 A 
ATOM      8  C   UNL     1      -0.124  12.162  19.944  0.00  0.00    +0.000 A 
ATOM      9  N   UNL     1       0.016  11.301  18.862  0.00  0.00    +0.000 N 
ATOM     10  C   UNL     1       0.814  12.891  20.779  0.00  0.00    +0.000 C 
ATOM     11  C   UNL     1       2.283  12.985  20.467  0.00  0.00    +0.000 C 
ATOM     12  N   UNL     1       0.423  13.520  21.837  0.00  0.00    +0.000 NA
ATOM     13  C   UNL     1      -0.978  13.492  22.292  0.00  0.00    +0.000 C 
ATOM     14  C   UNL     1      -2.036  13.124  21.254  0.00  0.00    +0.000 C 
ENDROOT
BRANCH   1  16
ATOM     15  C   UNL     1      -6.141  10.790  18.630  0.00  0.00    +0.000 C 
ATOM     16  O   UNL     1      -5.314  10.858  17.479  0.00  0.00    +0.000 OA
ENDBRANCH   1  16
BRANCH   9  17
ATOM     17  C   UNL     1       1.248  10.672  18.374  0.00  0.00    +0.000 C 
BRANCH  17  18
ATOM     18  C   UNL     1       1.516   9.273  18.900  0.00  0.00    +0.000 A 
ATOM     19  C   UNL     1       1.208   8.863  20.207  0.00  0.00    +0.000 A 
ATOM     20  C   UNL     1       1.559   7.586  20.661  0.00  0.00    +0.000 A 
ATOM     21  C   UNL     1       2.207   6.700  19.808  0.00  0.00    +0.000 A 
ATOM     22 CL   UNL     1       2.702   5.158  20.391  0.00  0.00    +0.000 Cl
ATOM     23  C   UNL     1       2.473   7.062  18.491  0.00  0.00    +0.000 A 
ATOM     24  C   UNL     1       2.123   8.339  18.039  0.00  0.00    +0.000 A 
ENDBRANCH  17  18
ENDBRANCH   9  17
TORSDOF 3
ENDMDL
MODEL 7
REMARK VINA RESULT:      -6.8      4.109      6.764
REMARK  Name = 
REMARK  5 active torsions:
REMARK  status: ('A' for Active; 'I' for Inactive)
REMARK    1  A    between atoms: C_1  and  O_2
REMARK    2  A    between atoms: O_2  and  C_3
REMARK    3  A    between atoms: N_11  and  C_12
REMARK    4  A    between atoms: C_12  and  C_13
REMARK    5  A    between atoms: C_20  and  C_21
REMARK                            x       y       z     vdW  Elec       q    Type
REMARK                         _______ _______ _______ _____ _____    ______ ____
ROOT
ATOM      1  C   UNL     1       2.488   7.318  18.863  0.00  0.00    +0.000 A 
ATOM      2  C   UNL     1       2.598   8.233  17.821  0.00  0.00    +0.000 A 
ATOM      3  C   UNL     1       2.017   9.513  17.909  0.00  0.00    +0.000 A 
ATOM      4  C   UNL     1       1.298   9.844  19.074  0.00  0.00    +0.000 A 
ATOM      5  C   UNL     1       1.196   8.937  20.128  0.00  0.00    +0.000 A 
ATOM      6  C   UNL     1       1.803   7.677  20.025  0.00  0.00    +0.000 A 
ATOM      7  C   UNL     1       0.407   9.551  21.124  0.00  0.00    +0.000 A 
ATOM      8  C   UNL     1      -0.033  10.781  20.669  0.00  0.00    +0.000 A 
ATOM      9  N   UNL     1       0.590  10.991  19.445  0.00  0.00    +0.000 N 
ATOM     10  C   UNL     1      -0.993  11.538  21.454  0.00  0.00    +0.000 C 
ATOM     11  C   UNL     1      -1.696  12.760  20.927  0.00  0.00    +0.000 C 
ATOM     12  N   UNL     1      -1.307  11.183  22.655  0.00  0.00    +0.000 NA
ATOM     13  C   UNL     1      -0.677  10.029  23.321  0.00  0.00    +0.000 C 
ATOM     14  C   UNL     1      -0.019   8.985  22.422  0.00  0.00    +0.000 C 
ENDROOT
BRANCH   1  16
ATOM     15  C   UNL     1       2.273   5.043  18.196  0.00  0.00    +0.000 C 
ATOM     16  O   UNL     1       2.992   6.047  18.896  0.00  0.00    +0.000 OA
ENDBRANCH   1  16
BRANCH   9  17
ATOM     17  C   UNL     1       0.623  12.230  18.660  0.00  0.00    +0.000 C 
BRANCH  17  18
ATOM     18  C   UNL     1       1.786  13.159  18.960  0.00  0.00    +0.000 A 
ATOM     19  C   UNL     1       2.675  13.631  17.981  0.00  0.00    +0.000 A 
ATOM     20  C   UNL     1       3.780  14.415  18.332  0.00  0.00    +0.000 A 
ATOM     21  C   UNL     1       3.999  14.751  19.663  0.00  0.00    +0.000 A 
ATOM     22 CL   UNL     1       5.397  15.654  20.100  0.00  0.00    +0.000 Cl
ATOM     23  C   UNL     1       3.101  14.343  20.645  0.00  0.00    +0.000 A 
ATOM     24  C   UNL     1       1.998  13.558  20.294  0.00  0.00    +0.000 A 
ENDBRANCH  17  18
ENDBRANCH   9  17
TORSDOF 3
ENDMDL
MODEL 8
REMARK VINA RESULT:      -6.7      5.878     10.034
REMARK  Name = 
REMARK  5 active torsions:
REMARK  status: ('A' for Active; 'I' for Inactive)
REMARK    1  A    between atoms: C_1  and  O_2
REMARK    2  A    between atoms: O_2  and  C_3
REMARK    3  A    between atoms: N_11  and  C_12
REMARK    4  A    between atoms: C_12  and  C_13
REMARK    5  A    between atoms: C_20  and  C_21
REMARK                            x       y       z     vdW  Elec       q    Type
REMARK                         _______ _______ _______ _____ _____    ______ ____
ROOT
ATOM      1  C   UNL     1      -2.830  12.945  23.193  0.00  0.00    +0.000 A 
ATOM      2  C   UNL     1      -1.460  12.744  23.051  0.00  0.00    +0.000 A 
ATOM      3  C   UNL     1      -0.901  12.380  21.812  0.00  0.00    +0.000 A 
ATOM      4  C   UNL     1      -1.763  12.201  20.713  0.00  0.00    +0.000 A 
ATOM      5  C   UNL     1      -3.135  12.415  20.845  0.00  0.00    +0.000 A 
ATOM      6  C   UNL     1      -3.665  12.799  22.086  0.00  0.00    +0.000 A 
ATOM      7  C   UNL     1      -3.717  12.137  19.590  0.00  0.00    +0.000 A 
ATOM      8  C   UNL     1      -2.740  11.688  18.719  0.00  0.00    +0.000 A 
ATOM      9  N   UNL     1      -1.530  11.814  19.390  0.00  0.00    +0.000 N 
ATOM     10  C   UNL     1      -3.118  11.188  17.409  0.00  0.00    +0.000 C 
ATOM     11  C   UNL     1      -2.156  10.470  16.500  0.00  0.00    +0.000 C 
ATOM     12  N   UNL     1      -4.322  11.322  16.960  0.00  0.00    +0.000 NA
ATOM     13  C   UNL     1      -5.365  12.032  17.719  0.00  0.00    +0.000 C 
ATOM     14  C   UNL     1      -5.148  12.182  19.222  0.00  0.00    +0.000 C 
ENDROOT
BRANCH   1  16
ATOM     15  C   UNL     1      -4.545  12.431  24.761  0.00  0.00    +0.000 C 
ATOM     16  O   UNL     1      -3.494  13.286  24.339  0.00  0.00    +0.000 OA
ENDBRANCH   1  16
BRANCH   9  17
ATOM     17  C   UNL     1      -0.180  11.676  18.833  0.00  0.00    +0.000 C 
BRANCH  17  18
ATOM     18  C   UNL     1       0.485  10.331  19.066  0.00  0.00    +0.000 A 
ATOM     19  C   UNL     1       0.468   9.660  20.300  0.00  0.00    +0.000 A 
ATOM     20  C   UNL     1       1.174   8.465  20.478  0.00  0.00    +0.000 A 
ATOM     21  C   UNL     1       1.891   7.918  19.420  0.00  0.00    +0.000 A 
ATOM     22 CL   UNL     1       2.815   6.487  19.661  0.00  0.00    +0.000 Cl
ATOM     23  C   UNL     1       1.877   8.533  18.172  0.00  0.00    +0.000 A 
ATOM     24  C   UNL     1       1.173   9.729  17.995  0.00  0.00    +0.000 A 
ENDBRANCH  17  18
ENDBRANCH   9  17
TORSDOF 3
ENDMDL
MODEL 9
REMARK VINA RESULT:      -6.7      5.161      9.093
REMARK  Name = 
REMARK  5 active torsions:
REMARK  status: ('A' for Active; 'I' for Inactive)
REMARK    1  A    between atoms: C_1  and  O_2
REMARK    2  A    between atoms: O_2  and  C_3
REMARK    3  A    between atoms: N_11  and  C_12
REMARK    4  A    between atoms: C_12  and  C_13
REMARK    5  A    between atoms: C_20  and  C_21
REMARK                            x       y       z     vdW  Elec       q    Type
REMARK                         _______ _______ _______ _____ _____    ______ ____
ROOT
ATOM      1  C   UNL     1      -4.126  11.083  17.776  0.00  0.00    +0.000 A 
ATOM      2  C   UNL     1      -3.197  10.470  16.940  0.00  0.00    +0.000 A 
ATOM      3  C   UNL     1      -1.819  10.511  17.226  0.00  0.00    +0.000 A 
ATOM      4  C   UNL     1      -1.393  11.206  18.374  0.00  0.00    +0.000 A 
ATOM      5  C   UNL     1      -2.319  11.809  19.225  0.00  0.00    +0.000 A 
ATOM      6  C   UNL     1      -3.688  11.735  18.929  0.00  0.00    +0.000 A 
ATOM      7  C   UNL     1      -1.585  12.433  20.256  0.00  0.00    +0.000 A 
ATOM      8  C   UNL     1      -0.232  12.285  20.012  0.00  0.00    +0.000 A 
ATOM      9  N   UNL     1      -0.123  11.455  18.903  0.00  0.00    +0.000 N 
ATOM     10  C   UNL     1       0.731  12.976  20.851  0.00  0.00    +0.000 C 
ATOM     11  C   UNL     1       2.196  13.060  20.515  0.00  0.00    +0.000 C 
ATOM     12  N   UNL     1       0.368  13.578  21.935  0.00  0.00    +0.000 NA
ATOM     13  C   UNL     1      -1.025  13.556  22.413  0.00  0.00    +0.000 C 
ATOM     14  C   UNL     1      -2.106  13.233  21.385  0.00  0.00    +0.000 C 
ENDROOT
BRANCH   1  16
ATOM     15  C   UNL     1      -6.289  10.632  18.661  0.00  0.00    +0.000 C 
ATOM     16  O   UNL     1      -5.482  11.126  17.604  0.00  0.00    +0.000 OA
ENDBRANCH   1  16
BRANCH   9  17
ATOM     17  C   UNL     1       1.092  10.824  18.374  0.00  0.00    +0.000 C 
BRANCH  17  18
ATOM     18  C   UNL     1       1.434   9.471  18.971  0.00  0.00    +0.000 A 
ATOM     19  C   UNL     1       2.125   8.467  18.272  0.00  0.00    +0.000 A 
ATOM     20  C   UNL     1       2.334   7.208  18.845  0.00  0.00    +0.000 A 
ATOM     21  C   UNL     1       1.872   6.943  20.129  0.00  0.00    +0.000 A 
ATOM     22 CL   UNL     1       2.068   5.372  20.803  0.00  0.00    +0.000 Cl
ATOM     23  C   UNL     1       1.235   7.939  20.863  0.00  0.00    +0.000 A 
ATOM     24  C   UNL     1       1.024   9.197  20.289  0.00  0.00    +0.000 A 
ENDBRANCH  17  18
ENDBRANCH   9  17
TORSDOF 3
ENDMDL
