MODEL 1
REMARK VINA RESULT:      -7.7      0.000      0.000
REMARK  Name = 
REMARK  4 active torsions:
REMARK  status: ('A' for Active; 'I' for Inactive)
REMARK    1  A    between atoms: C_1  and  S_2
REMARK    2  A    between atoms: S_2  and  C_3
REMARK    3  A    between atoms: C_5  and  C_6
REMARK    4  A    between atoms: C_22  and  O_23
REMARK                            x       y       z     vdW  Elec       q    Type
REMARK                         _______ _______ _______ _____ _____    ______ ____
ROOT
ATOM      1  C   UNL     1       2.355   7.942  18.337  0.00  0.00    +0.000 C 
ATOM      2  O   UNL     1       2.514   8.532  17.270  0.00  0.00    +0.000 OA
ATOM      3  N   UNL     1       1.597   8.439  19.411  0.00  0.00    +0.000 N 
ATOM      4  C   UNL     1       1.496   7.816  20.752  0.00  0.00    +0.000 C 
ATOM      5  S   UNL     1       0.651   8.887  21.900  0.00  0.00    +0.000 S 
ATOM      6  O   UNL     1      -0.594   8.270  22.311  0.00  0.00    +0.000 OA
ATOM      7  O   UNL     1       1.589   9.472  22.822  0.00  0.00    +0.000 OA
ATOM      8  C   UNL     1       0.303  10.043  20.651  0.00  0.00    +0.000 A 
ATOM      9  C   UNL     1      -0.450  11.183  20.880  0.00  0.00    +0.000 A 
ATOM     10  C   UNL     1      -0.665  12.024  19.800  0.00  0.00    +0.000 A 
ATOM     11  C   UNL     1      -0.134  11.697  18.542  0.00  0.00    +0.000 A 
ATOM     12  C   UNL     1       0.627  10.526  18.344  0.00  0.00    +0.000 A 
ATOM     13  C   UNL     1       0.858   9.674  19.412  0.00  0.00    +0.000 A 
ENDROOT
BRANCH   1  16
ATOM     14  C   UNL     1       5.178   5.362  18.598  0.00  0.00    +0.000 A 
ATOM     15  C   UNL     1       4.488   6.583  18.445  0.00  0.00    +0.000 A 
ATOM     16  C   UNL     1       3.082   6.622  18.471  0.00  0.00    +0.000 A 
ATOM     17  C   UNL     1       2.403   5.409  18.573  0.00  0.00    +0.000 A 
ATOM     18  C   UNL     1       3.069   4.230  18.873  0.00  0.00    +0.000 A 
ATOM     19 CL   UNL     1       2.139   2.818  19.217  0.00  0.00    +0.000 Cl
ATOM     20  C   UNL     1       4.455   4.196  18.889  0.00  0.00    +0.000 A 
BRANCH  14  22
ATOM     21  C   UNL     1       7.011   4.604  16.701  0.00  0.00    +0.000 C 
ATOM     22  S   UNL     1       6.953   5.336  18.368  0.00  0.00    +0.000 S 
ENDBRANCH  14  22
BRANCH  20  23
ATOM     23  O   UNL     1       5.099   3.016  19.155  0.00  0.00    +0.000 OA
ATOM     24  H   UNL     1       4.427   2.362  19.421  0.00  0.00    +0.000 HD
ENDBRANCH  20  23
ENDBRANCH   1  16
TORSDOF 3
ENDMDL
MODEL 2
REMARK VINA RESULT:      -7.7      1.793      2.467
REMARK  Name = 
REMARK  4 active torsions:
REMARK  status: ('A' for Active; 'I' for Inactive)
REMARK    1  A    between atoms: C_1  and  S_2
REMARK    2  A    between atoms: S_2  and  C_3
REMARK    3  A    between atoms: C_5  and  C_6
REMARK    4  A    between atoms: C_22  and  O_23
REMARK                            x       y       z     vdW  Elec       q    Type
REMARK                         _______ _______ _______ _____ _____    ______ ____
ROOT
ATOM      1  C   UNL     1       2.325   8.024  18.274  0.00  0.00    +0.000 C 
ATOM      2  O   UNL     1       2.540   8.640  17.231  0.00  0.00    +0.000 OA
ATOM      3  N   UNL     1       1.645   8.558  19.382  0.00  0.00    +0.000 N 
ATOM      4  C   UNL     1       1.488   7.892  20.696  0.00  0.00    +0.000 C 
ATOM      5  S   UNL     1       0.790   9.002  21.905  0.00  0.00    +0.000 S 
ATOM      6  O   UNL     1      -0.514   8.518  22.310  0.00  0.00    +0.000 OA
ATOM      7  O   UNL     1       1.803   9.429  22.834  0.00  0.00    +0.000 OA
ATOM      8  C   UNL     1       0.567  10.246  20.714  0.00  0.00    +0.000 A 
ATOM      9  C   UNL     1      -0.042  11.456  21.006  0.00  0.00    +0.000 A 
ATOM     10  C   UNL     1      -0.168  12.365  19.968  0.00  0.00    +0.000 A 
ATOM     11  C   UNL     1       0.305  12.035  18.687  0.00  0.00    +0.000 A 
ATOM     12  C   UNL     1       0.918  10.792  18.425  0.00  0.00    +0.000 A 
ATOM     13  C   UNL     1       1.059   9.871  19.451  0.00  0.00    +0.000 A 
ENDROOT
BRANCH   1  16
ATOM     14  C   UNL     1       2.548   4.199  18.378  0.00  0.00    +0.000 A 
ATOM     15  C   UNL     1       2.031   5.511  18.348  0.00  0.00    +0.000 A 
ATOM     16  C   UNL     1       2.892   6.623  18.338  0.00  0.00    +0.000 A 
ATOM     17  C   UNL     1       4.262   6.382  18.438  0.00  0.00    +0.000 A 
ATOM     18  C   UNL     1       4.781   5.101  18.317  0.00  0.00    +0.000 A 
ATOM     19 CL   UNL     1       6.492   4.909  18.213  0.00  0.00    +0.000 Cl
ATOM     20  C   UNL     1       3.933   4.005  18.285  0.00  0.00    +0.000 A 
BRANCH  14  22
ATOM     21  C   UNL     1       1.097   2.988  20.369  0.00  0.00    +0.000 C 
ATOM     22  S   UNL     1       1.416   2.828  18.582  0.00  0.00    +0.000 S 
ENDBRANCH  14  22
BRANCH  20  23
ATOM     23  O   UNL     1       4.463   2.744  18.197  0.00  0.00    +0.000 OA
ATOM     24  H   UNL     1       3.724   2.115  18.094  0.00  0.00    +0.000 HD
ENDBRANCH  20  23
ENDBRANCH   1  16
TORSDOF 3
ENDMDL
MODEL 3
REMARK VINA RESULT:      -7.4      1.977      2.839
REMARK  Name = 
REMARK  4 active torsions:
REMARK  status: ('A' for Active; 'I' for Inactive)
REMARK    1  A    between atoms: C_1  and  S_2
REMARK    2  A    between atoms: S_2  and  C_3
REMARK    3  A    between atoms: C_5  and  C_6
REMARK    4  A    between atoms: C_22  and  O_23
REMARK                            x       y       z     vdW  Elec       q    Type
REMARK                         _______ _______ _______ _____ _____    ______ ____
ROOT
ATOM      1  C   UNL     1       2.239   6.519  20.127  0.00  0.00    +0.000 C 
ATOM      2  O   UNL     1       2.004   5.956  21.195  0.00  0.00    +0.000 OA
ATOM      3  N   UNL     1       1.814   7.820  19.808  0.00  0.00    +0.000 N 
ATOM      4  C   UNL     1       1.966   8.473  18.487  0.00  0.00    +0.000 C 
ATOM      5  S   UNL     1       1.070  10.014  18.420  0.00  0.00    +0.000 S 
ATOM      6  O   UNL     1       2.004  11.111  18.268  0.00  0.00    +0.000 OA
ATOM      7  O   UNL     1      -0.119   9.867  17.623  0.00  0.00    +0.000 OA
ATOM      8  C   UNL     1       0.633   9.896  20.097  0.00  0.00    +0.000 A 
ATOM      9  C   UNL     1      -0.075  10.889  20.754  0.00  0.00    +0.000 A 
ATOM     10  C   UNL     1      -0.356  10.681  22.095  0.00  0.00    +0.000 A 
ATOM     11  C   UNL     1       0.082   9.505  22.728  0.00  0.00    +0.000 A 
ATOM     12  C   UNL     1       0.803   8.516  22.028  0.00  0.00    +0.000 A 
ATOM     13  C   UNL     1       1.090   8.702  20.685  0.00  0.00    +0.000 A 
ENDROOT
BRANCH   1  16
ATOM     14  C   UNL     1       4.977   5.366  17.705  0.00  0.00    +0.000 A 
ATOM     15  C   UNL     1       4.248   6.136  18.636  0.00  0.00    +0.000 A 
ATOM     16  C   UNL     1       2.997   5.700  19.106  0.00  0.00    +0.000 A 
ATOM     17  C   UNL     1       2.474   4.527  18.561  0.00  0.00    +0.000 A 
ATOM     18  C   UNL     1       3.245   3.693  17.766  0.00  0.00    +0.000 A 
ATOM     19 CL   UNL     1       2.611   2.150  17.326  0.00  0.00    +0.000 Cl
ATOM     20  C   UNL     1       4.497   4.102  17.334  0.00  0.00    +0.000 A 
BRANCH  14  22
ATOM     21  C   UNL     1       7.556   5.935  18.453  0.00  0.00    +0.000 C 
ATOM     22  S   UNL     1       6.470   6.052  16.995  0.00  0.00    +0.000 S 
ENDBRANCH  14  22
BRANCH  20  23
ATOM     23  O   UNL     1       5.233   3.280  16.521  0.00  0.00    +0.000 OA
ATOM     24  H   UNL     1       4.616   2.678  16.066  0.00  0.00    +0.000 HD
ENDBRANCH  20  23
ENDBRANCH   1  16
TORSDOF 3
ENDMDL
MODEL 4
REMARK VINA RESULT:      -7.1      2.893      7.020
REMARK  Name = 
REMARK  4 active torsions:
REMARK  status: ('A' for Active; 'I' for Inactive)
REMARK    1  A    between atoms: C_1  and  S_2
REMARK    2  A    between atoms: S_2  and  C_3
REMARK    3  A    between atoms: C_5  and  C_6
REMARK    4  A    between atoms: C_22  and  O_23
REMARK                            x       y       z     vdW  Elec       q    Type
REMARK                         _______ _______ _______ _____ _____    ______ ____
ROOT
ATOM      1  C   UNL     1       2.260   7.759  19.062  0.00  0.00    +0.000 C 
ATOM      2  O   UNL     1       2.856   8.170  18.067  0.00  0.00    +0.000 OA
ATOM      3  N   UNL     1       2.312   6.433  19.524  0.00  0.00    +0.000 N 
ATOM      4  C   UNL     1       1.505   5.879  20.636  0.00  0.00    +0.000 C 
ATOM      5  S   UNL     1       1.676   4.106  20.737  0.00  0.00    +0.000 S 
ATOM      6  O   UNL     1       2.323   3.753  21.985  0.00  0.00    +0.000 OA
ATOM      7  O   UNL     1       0.485   3.461  20.250  0.00  0.00    +0.000 OA
ATOM      8  C   UNL     1       2.872   4.094  19.478  0.00  0.00    +0.000 A 
ATOM      9  C   UNL     1       3.519   2.937  19.077  0.00  0.00    +0.000 A 
ATOM     10  C   UNL     1       4.459   3.058  18.066  0.00  0.00    +0.000 A 
ATOM     11  C   UNL     1       4.722   4.318  17.503  0.00  0.00    +0.000 A 
ATOM     12  C   UNL     1       4.046   5.476  17.938  0.00  0.00    +0.000 A 
ATOM     13  C   UNL     1       3.098   5.376  18.944  0.00  0.00    +0.000 A 
ENDROOT
BRANCH   1  16
ATOM     14  C   UNL     1      -0.124  10.695  19.685  0.00  0.00    +0.000 A 
ATOM     15  C   UNL     1       0.712   9.761  19.037  0.00  0.00    +0.000 A 
ATOM     16  C   UNL     1       1.391   8.773  19.772  0.00  0.00    +0.000 A 
ATOM     17  C   UNL     1       1.270   8.803  21.161  0.00  0.00    +0.000 A 
ATOM     18  C   UNL     1       0.338   9.617  21.788  0.00  0.00    +0.000 A 
ATOM     19 CL   UNL     1       0.081   9.425  23.483  0.00  0.00    +0.000 Cl
ATOM     20  C   UNL     1      -0.364  10.564  21.059  0.00  0.00    +0.000 A 
BRANCH  14  22
ATOM     21  C   UNL     1      -2.296  11.208  18.087  0.00  0.00    +0.000 C 
ATOM     22  S   UNL     1      -0.813  12.046  18.733  0.00  0.00    +0.000 S 
ENDBRANCH  14  22
BRANCH  20  23
ATOM     23  O   UNL     1      -1.257  11.382  21.699  0.00  0.00    +0.000 OA
ATOM     24  H   UNL     1      -1.613  10.896  22.467  0.00  0.00    +0.000 HD
ENDBRANCH  20  23
ENDBRANCH   1  16
TORSDOF 3
ENDMDL
MODEL 5
REMARK VINA RESULT:      -7.0      2.602      3.645
REMARK  Name = 
REMARK  4 active torsions:
REMARK  status: ('A' for Active; 'I' for Inactive)
REMARK    1  A    between atoms: C_1  and  S_2
REMARK    2  A    between atoms: S_2  and  C_3
REMARK    3  A    between atoms: C_5  and  C_6
REMARK    4  A    between atoms: C_22  and  O_23
REMARK                            x       y       z     vdW  Elec       q    Type
REMARK                         _______ _______ _______ _____ _____    ______ ____
ROOT
ATOM      1  C   UNL     1       1.972   6.894  20.220  0.00  0.00    +0.000 C 
ATOM      2  O   UNL     1       1.778   6.307  21.284  0.00  0.00    +0.000 OA
ATOM      3  N   UNL     1       1.520   8.196  19.942  0.00  0.00    +0.000 N 
ATOM      4  C   UNL     1       1.622   8.877  18.630  0.00  0.00    +0.000 C 
ATOM      5  S   UNL     1       0.705  10.408  18.624  0.00  0.00    +0.000 S 
ATOM      6  O   UNL     1       1.621  11.519  18.464  0.00  0.00    +0.000 OA
ATOM      7  O   UNL     1      -0.507  10.261  17.862  0.00  0.00    +0.000 OA
ATOM      8  C   UNL     1       0.324  10.250  20.311  0.00  0.00    +0.000 A 
ATOM      9  C   UNL     1      -0.374  11.221  21.010  0.00  0.00    +0.000 A 
ATOM     10  C   UNL     1      -0.609  10.982  22.355  0.00  0.00    +0.000 A 
ATOM     11  C   UNL     1      -0.137   9.800  22.949  0.00  0.00    +0.000 A 
ATOM     12  C   UNL     1       0.573   8.834  22.207  0.00  0.00    +0.000 A 
ATOM     13  C   UNL     1       0.815   9.051  20.860  0.00  0.00    +0.000 A 
ENDROOT
BRANCH   1  16
ATOM     14  C   UNL     1       2.992   4.043  17.871  0.00  0.00    +0.000 A 
ATOM     15  C   UNL     1       2.333   4.779  18.878  0.00  0.00    +0.000 A 
ATOM     16  C   UNL     1       2.706   6.105  19.160  0.00  0.00    +0.000 A 
ATOM     17  C   UNL     1       3.796   6.632  18.466  0.00  0.00    +0.000 A 
ATOM     18  C   UNL     1       4.347   5.972  17.377  0.00  0.00    +0.000 A 
ATOM     19 CL   UNL     1       5.531   6.790  16.426  0.00  0.00    +0.000 Cl
ATOM     20  C   UNL     1       3.951   4.679  17.072  0.00  0.00    +0.000 A 
BRANCH  14  22
ATOM     21  C   UNL     1       1.156   2.213  18.774  0.00  0.00    +0.000 C 
ATOM     22  S   UNL     1       2.610   2.304  17.681  0.00  0.00    +0.000 S 
ENDBRANCH  14  22
BRANCH  20  23
ATOM     23  O   UNL     1       4.529   4.028  16.013  0.00  0.00    +0.000 OA
ATOM     24  H   UNL     1       3.923   4.098  15.252  0.00  0.00    +0.000 HD
ENDBRANCH  20  23
ENDBRANCH   1  16
TORSDOF 3
ENDMDL
MODEL 6
REMARK VINA RESULT:      -6.9      5.325      9.517
REMARK  Name = 
REMARK  4 active torsions:
REMARK  status: ('A' for Active; 'I' for Inactive)
REMARK    1  A    between atoms: C_1  and  S_2
REMARK    2  A    between atoms: S_2  and  C_3
REMARK    3  A    between atoms: C_5  and  C_6
REMARK    4  A    between atoms: C_22  and  O_23
REMARK                            x       y       z     vdW  Elec       q    Type
REMARK                         _______ _______ _______ _____ _____    ______ ____
ROOT
ATOM      1  C   UNL     1      -0.962  11.425  22.584  0.00  0.00    +0.000 C 
ATOM      2  O   UNL     1      -0.343  10.700  23.361  0.00  0.00    +0.000 OA
ATOM      3  N   UNL     1      -0.828  11.383  21.185  0.00  0.00    +0.000 N 
ATOM      4  C   UNL     1      -1.457  12.328  20.234  0.00  0.00    +0.000 C 
ATOM      5  S   UNL     1      -0.835  12.090  18.579  0.00  0.00    +0.000 S 
ATOM      6  O   UNL     1      -1.908  11.633  17.720  0.00  0.00    +0.000 OA
ATOM      7  O   UNL     1       0.067  13.155  18.226  0.00  0.00    +0.000 OA
ATOM      8  C   UNL     1       0.099  10.710  19.070  0.00  0.00    +0.000 A 
ATOM      9  C   UNL     1       0.834   9.952  18.174  0.00  0.00    +0.000 A 
ATOM     10  C   UNL     1       1.532   8.870  18.688  0.00  0.00    +0.000 A 
ATOM     11  C   UNL     1       1.464   8.582  20.061  0.00  0.00    +0.000 A 
ATOM     12  C   UNL     1       0.703   9.375  20.944  0.00  0.00    +0.000 A 
ATOM     13  C   UNL     1       0.003  10.465  20.452  0.00  0.00    +0.000 A 
ENDROOT
BRANCH   1  16
ATOM     14  C   UNL     1      -2.256  14.704  24.090  0.00  0.00    +0.000 A 
ATOM     15  C   UNL     1      -1.404  13.736  23.517  0.00  0.00    +0.000 A 
ATOM     16  C   UNL     1      -1.877  12.444  23.225  0.00  0.00    +0.000 A 
ATOM     17  C   UNL     1      -3.186  12.136  23.594  0.00  0.00    +0.000 A 
ATOM     18  C   UNL     1      -4.069  13.120  24.016  0.00  0.00    +0.000 A 
ATOM     19 CL   UNL     1      -5.730  12.705  24.225  0.00  0.00    +0.000 Cl
ATOM     20  C   UNL     1      -3.614  14.405  24.265  0.00  0.00    +0.000 A 
BRANCH  14  22
ATOM     21  C   UNL     1      -1.074  15.802  26.310  0.00  0.00    +0.000 C 
ATOM     22  S   UNL     1      -1.559  16.266  24.617  0.00  0.00    +0.000 S 
ENDBRANCH  14  22
BRANCH  20  23
ATOM     23  O   UNL     1      -4.492  15.358  24.712  0.00  0.00    +0.000 OA
ATOM     24  H   UNL     1      -3.972  16.113  25.044  0.00  0.00    +0.000 HD
ENDBRANCH  20  23
ENDBRANCH   1  16
TORSDOF 3
ENDMDL
MODEL 7
REMARK VINA RESULT:      -6.8      2.760      7.029
REMARK  Name = 
REMARK  4 active torsions:
REMARK  status: ('A' for Active; 'I' for Inactive)
REMARK    1  A    between atoms: C_1  and  S_2
REMARK    2  A    between atoms: S_2  and  C_3
REMARK    3  A    between atoms: C_5  and  C_6
REMARK    4  A    between atoms: C_22  and  O_23
REMARK                            x       y       z     vdW  Elec       q    Type
REMARK                         _______ _______ _______ _____ _____    ______ ____
ROOT
ATOM      1  C   UNL     1       2.649   8.074  18.004  0.00  0.00    +0.000 C 
ATOM      2  O   UNL     1       3.283   8.740  17.187  0.00  0.00    +0.000 OA
ATOM      3  N   UNL     1       2.784   6.685  18.167  0.00  0.00    +0.000 N 
ATOM      4  C   UNL     1       1.944   5.838  19.046  0.00  0.00    +0.000 C 
ATOM      5  S   UNL     1       2.266   4.105  18.774  0.00  0.00    +0.000 S 
ATOM      6  O   UNL     1       2.840   3.526  19.971  0.00  0.00    +0.000 OA
ATOM      7  O   UNL     1       1.182   3.504  18.042  0.00  0.00    +0.000 OA
ATOM      8  C   UNL     1       3.555   4.462  17.666  0.00  0.00    +0.000 A 
ATOM      9  C   UNL     1       4.334   3.474  17.088  0.00  0.00    +0.000 A 
ATOM     10  C   UNL     1       5.338   3.887  16.225  0.00  0.00    +0.000 A 
ATOM     11  C   UNL     1       5.530   5.257  15.980  0.00  0.00    +0.000 A 
ATOM     12  C   UNL     1       4.718   6.236  16.589  0.00  0.00    +0.000 A 
ATOM     13  C   UNL     1       3.706   5.844  17.450  0.00  0.00    +0.000 A 
ENDROOT
BRANCH   1  16
ATOM     14  C   UNL     1      -0.332  10.287  18.956  0.00  0.00    +0.000 A 
ATOM     15  C   UNL     1       0.633   9.593  18.197  0.00  0.00    +0.000 A 
ATOM     16  C   UNL     1       1.638   8.838  18.829  0.00  0.00    +0.000 A 
ATOM     17  C   UNL     1       1.688   8.867  20.223  0.00  0.00    +0.000 A 
ATOM     18  C   UNL     1       0.660   9.419  20.972  0.00  0.00    +0.000 A 
ATOM     19 CL   UNL     1       0.678   9.206  22.684  0.00  0.00    +0.000 Cl
ATOM     20  C   UNL     1      -0.354  10.129  20.349  0.00  0.00    +0.000 A 
BRANCH  14  22
ATOM     21  C   UNL     1      -2.202  10.190  16.949  0.00  0.00    +0.000 C 
ATOM     22  S   UNL     1      -1.470  11.383  18.115  0.00  0.00    +0.000 S 
ENDBRANCH  14  22
BRANCH  20  23
ATOM     23  O   UNL     1      -1.346  10.696  21.106  0.00  0.00    +0.000 OA
ATOM     24  H   UNL     1      -0.954  10.969  21.957  0.00  0.00    +0.000 HD
ENDBRANCH  20  23
ENDBRANCH   1  16
TORSDOF 3
ENDMDL
MODEL 8
REMARK VINA RESULT:      -6.7      5.375      9.682
REMARK  Name = 
REMARK  4 active torsions:
REMARK  status: ('A' for Active; 'I' for Inactive)
REMARK    1  A    between atoms: C_1  and  S_2
REMARK    2  A    between atoms: S_2  and  C_3
REMARK    3  A    between atoms: C_5  and  C_6
REMARK    4  A    between atoms: C_22  and  O_23
REMARK                            x       y       z     vdW  Elec       q    Type
REMARK                         _______ _______ _______ _____ _____    ______ ____
ROOT
ATOM      1  C   UNL     1      -0.893  11.398  22.592  0.00  0.00    +0.000 C 
ATOM      2  O   UNL     1      -0.366  10.632  23.397  0.00  0.00    +0.000 OA
ATOM      3  N   UNL     1      -0.688  11.348  21.202  0.00  0.00    +0.000 N 
ATOM      4  C   UNL     1      -1.201  12.334  20.223  0.00  0.00    +0.000 C 
ATOM      5  S   UNL     1      -0.508  12.056  18.602  0.00  0.00    +0.000 S 
ATOM      6  O   UNL     1      -1.562  11.672  17.686  0.00  0.00    +0.000 OA
ATOM      7  O   UNL     1       0.480  13.059  18.302  0.00  0.00    +0.000 OA
ATOM      8  C   UNL     1       0.304  10.616  19.136  0.00  0.00    +0.000 A 
ATOM      9  C   UNL     1       1.033   9.811  18.277  0.00  0.00    +0.000 A 
ATOM     10  C   UNL     1       1.629   8.685  18.823  0.00  0.00    +0.000 A 
ATOM     11  C   UNL     1       1.470   8.401  20.189  0.00  0.00    +0.000 A 
ATOM     12  C   UNL     1       0.717   9.242  21.034  0.00  0.00    +0.000 A 
ATOM     13  C   UNL     1       0.118  10.377  20.510  0.00  0.00    +0.000 A 
ENDROOT
BRANCH   1  16
ATOM     14  C   UNL     1      -3.976  13.247  23.919  0.00  0.00    +0.000 A 
ATOM     15  C   UNL     1      -3.152  12.261  23.338  0.00  0.00    +0.000 A 
ATOM     16  C   UNL     1      -1.770  12.475  23.188  0.00  0.00    +0.000 A 
ATOM     17  C   UNL     1      -1.265  13.721  23.561  0.00  0.00    +0.000 A 
ATOM     18  C   UNL     1      -2.036  14.632  24.267  0.00  0.00    +0.000 A 
ATOM     19 CL   UNL     1      -1.276  16.046  24.898  0.00  0.00    +0.000 Cl
ATOM     20  C   UNL     1      -3.391  14.404  24.452  0.00  0.00    +0.000 A 
BRANCH  14  22
ATOM     21  C   UNL     1      -6.155  13.927  22.394  0.00  0.00    +0.000 C 
ATOM     22  S   UNL     1      -5.750  13.006  23.913  0.00  0.00    +0.000 S 
ENDBRANCH  14  22
BRANCH  20  23
ATOM     23  O   UNL     1      -4.146  15.330  25.124  0.00  0.00    +0.000 OA
ATOM     24  H   UNL     1      -4.952  15.496  24.600  0.00  0.00    +0.000 HD
ENDBRANCH  20  23
ENDBRANCH   1  16
TORSDOF 3
ENDMDL
MODEL 9
REMARK VINA RESULT:      -6.6      3.007      6.965
REMARK  Name = 
REMARK  4 active torsions:
REMARK  status: ('A' for Active; 'I' for Inactive)
REMARK    1  A    between atoms: C_1  and  S_2
REMARK    2  A    between atoms: S_2  and  C_3
REMARK    3  A    between atoms: C_5  and  C_6
REMARK    4  A    between atoms: C_22  and  O_23
REMARK                            x       y       z     vdW  Elec       q    Type
REMARK                         _______ _______ _______ _____ _____    ______ ____
ROOT
ATOM      1  C   UNL     1       2.081   8.524  18.234  0.00  0.00    +0.000 C 
ATOM      2  O   UNL     1       2.739   8.999  17.310  0.00  0.00    +0.000 OA
ATOM      3  N   UNL     1       2.325   7.268  18.815  0.00  0.00    +0.000 N 
ATOM      4  C   UNL     1       1.473   6.613  19.834  0.00  0.00    +0.000 C 
ATOM      5  S   UNL     1       1.985   4.928  20.119  0.00  0.00    +0.000 S 
ATOM      6  O   UNL     1       2.470   4.794  21.478  0.00  0.00    +0.000 OA
ATOM      7  O   UNL     1       1.053   4.014  19.514  0.00  0.00    +0.000 OA
ATOM      8  C   UNL     1       3.354   5.108  19.065  0.00  0.00    +0.000 A 
ATOM      9  C   UNL     1       4.284   4.099  18.874  0.00  0.00    +0.000 A 
ATOM     10  C   UNL     1       5.336   4.367  18.013  0.00  0.00    +0.000 A 
ATOM     11  C   UNL     1       5.426   5.621  17.387  0.00  0.00    +0.000 A 
ATOM     12  C   UNL     1       4.462   6.626  17.607  0.00  0.00    +0.000 A 
ATOM     13  C   UNL     1       3.398   6.377  18.459  0.00  0.00    +0.000 A 
ENDROOT
BRANCH   1  16
ATOM     14  C   UNL     1      -0.206  10.624  20.482  0.00  0.00    +0.000 A 
ATOM     15  C   UNL     1       0.863   9.818  20.037  0.00  0.00    +0.000 A 
ATOM     16  C   UNL     1       0.914   9.362  18.707  0.00  0.00    +0.000 A 
ATOM     17  C   UNL     1      -0.163   9.669  17.876  0.00  0.00    +0.000 A 
ATOM     18  C   UNL     1      -1.136  10.580  18.261  0.00  0.00    +0.000 A 
ATOM     19 CL   UNL     1      -2.301  11.087  17.094  0.00  0.00    +0.000 Cl
ATOM     20  C   UNL     1      -1.165  11.064  19.560  0.00  0.00    +0.000 A 
BRANCH  14  22
ATOM     21  C   UNL     1      -0.094   9.346  22.909  0.00  0.00    +0.000 C 
ATOM     22  S   UNL     1      -0.324  11.019  22.224  0.00  0.00    +0.000 S 
ENDBRANCH  14  22
BRANCH  20  23
ATOM     23  O   UNL     1      -2.152  11.938  19.933  0.00  0.00    +0.000 OA
ATOM     24  H   UNL     1      -2.444  12.417  19.135  0.00  0.00    +0.000 HD
ENDBRANCH  20  23
ENDBRANCH   1  16
TORSDOF 3
ENDMDL
