MODEL 1
REMARK VINA RESULT:      -8.2      0.000      0.000
REMARK  Name = 
REMARK  5 active torsions:
REMARK  status: ('A' for Active; 'I' for Inactive)
REMARK    1  A    between atoms: C_1  and  C_2
REMARK    2  A    between atoms: C_7  and  C_8
REMARK    3  A    between atoms: C_8  and  C_9
REMARK    4  A    between atoms: C_8  and  C_16
REMARK    5  A    between atoms: C_17  and  O_18
REMARK                            x       y       z     vdW  Elec       q    Type
REMARK                         _______ _______ _______ _____ _____    ______ ____
ROOT
ATOM      1  C   UNL     1       4.089   4.655  18.840  0.00  0.00    +0.000 C 
ENDROOT
BRANCH   1   2
ATOM      2  C   UNL     1       3.169   5.854  19.151  0.00  0.00    +0.000 A 
ATOM      3  C   UNL     1       2.959   6.996  18.460  0.00  0.00    +0.000 A 
ATOM      4  N   UNL     1       2.230   8.024  18.966  0.00  0.00    +0.000 N 
ATOM      5  C   UNL     1       1.745   8.073  20.232  0.00  0.00    +0.000 A 
ATOM      6  O   UNL     1       1.167   9.057  20.678  0.00  0.00    +0.000 OA
ATOM      7  N   UNL     1       1.944   6.947  20.966  0.00  0.00    +0.000 N 
ATOM      8  C   UNL     1       2.434   5.776  20.458  0.00  0.00    +0.000 A 
ATOM      9  O   UNL     1       2.277   4.715  21.054  0.00  0.00    +0.000 OA
ATOM     10  H   UNL     1       2.141   8.860  18.402  0.00  0.00    +0.000 HD
ATOM     11  H   UNL     1       1.484   6.915  21.863  0.00  0.00    +0.000 HD
BRANCH   3  12
ATOM     12  O   UNL     1       3.493   7.366  17.264  0.00  0.00    +0.000 OA
ATOM     13  H   UNL     1       3.981   6.634  16.831  0.00  0.00    +0.000 HD
ENDBRANCH   3  12
ENDBRANCH   1   2
BRANCH   1  20
ATOM     14  C   UNL     1       1.173   3.958  17.422  0.00  0.00    +0.000 C 
ATOM     15  C   UNL     1       2.153   3.046  18.087  0.00  0.00    +0.000 A 
ATOM     16  N   UNL     1       1.847   1.692  18.195  0.00  0.00    +0.000 N 
ATOM     17  N   UNL     1       2.755   1.156  19.092  0.00  0.00    +0.000 N 
ATOM     18  C   UNL     1       3.728   2.098  19.338  0.00  0.00    +0.000 A 
ATOM     19  O   UNL     1       4.765   1.928  19.952  0.00  0.00    +0.000 OA
ATOM     20  C   UNL     1       3.326   3.363  18.677  0.00  0.00    +0.000 A 
ATOM     21  H   UNL     1       0.865   1.522  18.423  0.00  0.00    +0.000 HD
ATOM     22  H   UNL     1       3.007   0.174  19.055  0.00  0.00    +0.000 HD
ENDBRANCH   1  20
BRANCH   1  23
ATOM     23  C   UNL     1       5.115   4.922  17.706  0.00  0.00    +0.000 A 
ATOM     24  C   UNL     1       4.771   4.758  16.346  0.00  0.00    +0.000 A 
ATOM     25  C   UNL     1       5.698   4.939  15.316  0.00  0.00    +0.000 A 
ATOM     26  C   UNL     1       7.001   5.305  15.610  0.00  0.00    +0.000 A 
ATOM     27  C   UNL     1       7.368   5.514  16.935  0.00  0.00    +0.000 A 
ATOM     28  C   UNL     1       6.439   5.337  17.971  0.00  0.00    +0.000 A 
ATOM     29 CL   UNL     1       7.017   5.685  19.561  0.00  0.00    +0.000 Cl
ENDBRANCH   1  23
TORSDOF 4
ENDMDL
MODEL 2
REMARK VINA RESULT:      -8.2      0.998      1.637
REMARK  Name = 
REMARK  5 active torsions:
REMARK  status: ('A' for Active; 'I' for Inactive)
REMARK    1  A    between atoms: C_1  and  C_2
REMARK    2  A    between atoms: C_7  and  C_8
REMARK    3  A    between atoms: C_8  and  C_9
REMARK    4  A    between atoms: C_8  and  C_16
REMARK    5  A    between atoms: C_17  and  O_18
REMARK                            x       y       z     vdW  Elec       q    Type
REMARK                         _______ _______ _______ _____ _____    ______ ____
ROOT
ATOM      1  C   UNL     1       3.982   4.703  18.843  0.00  0.00    +0.000 C 
ENDROOT
BRANCH   1   2
ATOM      2  C   UNL     1       3.119   5.977  18.963  0.00  0.00    +0.000 A 
ATOM      3  C   UNL     1       3.025   7.049  18.146  0.00  0.00    +0.000 A 
ATOM      4  N   UNL     1       2.329   8.162  18.490  0.00  0.00    +0.000 N 
ATOM      5  C   UNL     1       1.766   8.372  19.706  0.00  0.00    +0.000 A 
ATOM      6  O   UNL     1       1.221   9.427  20.007  0.00  0.00    +0.000 OA
ATOM      7  N   UNL     1       1.846   7.320  20.564  0.00  0.00    +0.000 N 
ATOM      8  C   UNL     1       2.296   6.078  20.215  0.00  0.00    +0.000 A 
ATOM      9  O   UNL     1       2.035   5.096  20.903  0.00  0.00    +0.000 OA
ATOM     10  H   UNL     1       2.329   8.937  17.838  0.00  0.00    +0.000 HD
ATOM     11  H   UNL     1       1.328   7.409  21.423  0.00  0.00    +0.000 HD
BRANCH   3  12
ATOM     12  O   UNL     1       3.659   7.260  16.960  0.00  0.00    +0.000 OA
ATOM     13  H   UNL     1       4.633   7.177  17.037  0.00  0.00    +0.000 HD
ENDBRANCH   3  12
ENDBRANCH   1   2
BRANCH   1  20
ATOM     14  C   UNL     1       4.489   1.739  20.244  0.00  0.00    +0.000 C 
ATOM     15  C   UNL     1       3.327   2.229  19.440  0.00  0.00    +0.000 A 
ATOM     16  N   UNL     1       2.279   1.354  19.171  0.00  0.00    +0.000 N 
ATOM     17  N   UNL     1       1.511   1.955  18.187  0.00  0.00    +0.000 N 
ATOM     18  C   UNL     1       1.942   3.254  18.035  0.00  0.00    +0.000 A 
ATOM     19  O   UNL     1       1.406   4.124  17.375  0.00  0.00    +0.000 OA
ATOM     20  C   UNL     1       3.159   3.438  18.862  0.00  0.00    +0.000 A 
ATOM     21  H   UNL     1       2.595   0.408  18.951  0.00  0.00    +0.000 HD
ATOM     22  H   UNL     1       0.524   1.740  18.092  0.00  0.00    +0.000 HD
ENDBRANCH   1  20
BRANCH   1  23
ATOM     23  C   UNL     1       5.026   4.751  17.695  0.00  0.00    +0.000 A 
ATOM     24  C   UNL     1       4.677   4.422  16.366  0.00  0.00    +0.000 A 
ATOM     25  C   UNL     1       5.617   4.406  15.331  0.00  0.00    +0.000 A 
ATOM     26  C   UNL     1       6.938   4.734  15.587  0.00  0.00    +0.000 A 
ATOM     27  C   UNL     1       7.312   5.101  16.875  0.00  0.00    +0.000 A 
ATOM     28  C   UNL     1       6.371   5.122  17.915  0.00  0.00    +0.000 A 
ATOM     29 CL   UNL     1       6.963   5.653  19.449  0.00  0.00    +0.000 Cl
ENDBRANCH   1  23
TORSDOF 4
ENDMDL
MODEL 3
REMARK VINA RESULT:      -7.8      2.524      4.308
REMARK  Name = 
REMARK  5 active torsions:
REMARK  status: ('A' for Active; 'I' for Inactive)
REMARK    1  A    between atoms: C_1  and  C_2
REMARK    2  A    between atoms: C_7  and  C_8
REMARK    3  A    between atoms: C_8  and  C_9
REMARK    4  A    between atoms: C_8  and  C_16
REMARK    5  A    between atoms: C_17  and  O_18
REMARK                            x       y       z     vdW  Elec       q    Type
REMARK                         _______ _______ _______ _____ _____    ______ ____
ROOT
ATOM      1  C   UNL     1       3.054   5.982  17.961  0.00  0.00    +0.000 C 
ENDROOT
BRANCH   1   2
ATOM      2  C   UNL     1       2.485   7.041  18.929  0.00  0.00    +0.000 A 
ATOM      3  C   UNL     1       2.226   6.965  20.253  0.00  0.00    +0.000 A 
ATOM      4  N   UNL     1       1.570   7.950  20.919  0.00  0.00    +0.000 N 
ATOM      5  C   UNL     1       1.008   9.035  20.330  0.00  0.00    +0.000 A 
ATOM      6  O   UNL     1       0.348   9.856  20.956  0.00  0.00    +0.000 OA
ATOM      7  N   UNL     1       1.236   9.144  18.994  0.00  0.00    +0.000 N 
ATOM      8  C   UNL     1       2.096   8.345  18.295  0.00  0.00    +0.000 A 
ATOM      9  O   UNL     1       2.523   8.688  17.196  0.00  0.00    +0.000 OA
ATOM     10  H   UNL     1       1.387   7.809  21.904  0.00  0.00    +0.000 HD
ATOM     11  H   UNL     1       0.934  10.003  18.563  0.00  0.00    +0.000 HD
BRANCH   3  12
ATOM     12  O   UNL     1       2.446   5.918  21.094  0.00  0.00    +0.000 OA
ATOM     13  H   UNL     1       3.363   5.903  21.439  0.00  0.00    +0.000 HD
ENDBRANCH   3  12
ENDBRANCH   1   2
BRANCH   1  20
ATOM     14  C   UNL     1       5.142   6.877  15.544  0.00  0.00    +0.000 C 
ATOM     15  C   UNL     1       5.436   6.392  16.928  0.00  0.00    +0.000 A 
ATOM     16  N   UNL     1       6.762   6.237  17.319  0.00  0.00    +0.000 N 
ATOM     17  N   UNL     1       6.739   5.512  18.499  0.00  0.00    +0.000 N 
ATOM     18  C   UNL     1       5.435   5.435  18.934  0.00  0.00    +0.000 A 
ATOM     19  O   UNL     1       5.053   5.009  20.008  0.00  0.00    +0.000 OA
ATOM     20  C   UNL     1       4.562   6.013  17.885  0.00  0.00    +0.000 A 
ATOM     21  H   UNL     1       7.352   5.843  16.583  0.00  0.00    +0.000 HD
ATOM     22  H   UNL     1       7.490   5.593  19.176  0.00  0.00    +0.000 HD
ENDBRANCH   1  20
BRANCH   1  23
ATOM     23  C   UNL     1       2.469   4.559  18.165  0.00  0.00    +0.000 A 
ATOM     24  C   UNL     1       1.390   4.323  19.046  0.00  0.00    +0.000 A 
ATOM     25  C   UNL     1       0.889   3.041  19.284  0.00  0.00    +0.000 A 
ATOM     26  C   UNL     1       1.439   1.948  18.635  0.00  0.00    +0.000 A 
ATOM     27  C   UNL     1       2.477   2.144  17.730  0.00  0.00    +0.000 A 
ATOM     28  C   UNL     1       2.981   3.430  17.486  0.00  0.00    +0.000 A 
ATOM     29 CL   UNL     1       4.229   3.532  16.297  0.00  0.00    +0.000 Cl
ENDBRANCH   1  23
TORSDOF 4
ENDMDL
MODEL 4
REMARK VINA RESULT:      -7.7      2.586      4.400
REMARK  Name = 
REMARK  5 active torsions:
REMARK  status: ('A' for Active; 'I' for Inactive)
REMARK    1  A    between atoms: C_1  and  C_2
REMARK    2  A    between atoms: C_7  and  C_8
REMARK    3  A    between atoms: C_8  and  C_9
REMARK    4  A    between atoms: C_8  and  C_16
REMARK    5  A    between atoms: C_17  and  O_18
REMARK                            x       y       z     vdW  Elec       q    Type
REMARK                         _______ _______ _______ _____ _____    ______ ____
ROOT
ATOM      1  C   UNL     1       3.780   5.456  17.659  0.00  0.00    +0.000 C 
ENDROOT
BRANCH   1   2
ATOM      2  C   UNL     1       3.142   6.532  18.563  0.00  0.00    +0.000 A 
ATOM      3  C   UNL     1       2.787   6.480  19.866  0.00  0.00    +0.000 A 
ATOM      4  N   UNL     1       2.084   7.476  20.464  0.00  0.00    +0.000 N 
ATOM      5  C   UNL     1       1.567   8.549  19.816  0.00  0.00    +0.000 A 
ATOM      6  O   UNL     1       0.863   9.381  20.377  0.00  0.00    +0.000 OA
ATOM      7  N   UNL     1       1.892   8.635  18.499  0.00  0.00    +0.000 N 
ATOM      8  C   UNL     1       2.801   7.825  17.879  0.00  0.00    +0.000 A 
ATOM      9  O   UNL     1       3.309   8.148  16.809  0.00  0.00    +0.000 OA
ATOM     10  H   UNL     1       1.828   7.352  21.436  0.00  0.00    +0.000 HD
ATOM     11  H   UNL     1       1.623   9.486  18.031  0.00  0.00    +0.000 HD
BRANCH   3  12
ATOM     12  O   UNL     1       2.943   5.448  20.739  0.00  0.00    +0.000 OA
ATOM     13  H   UNL     1       3.676   5.603  21.372  0.00  0.00    +0.000 HD
ENDBRANCH   3  12
ENDBRANCH   1   2
BRANCH   1  20
ATOM     14  C   UNL     1       5.593   5.653  14.888  0.00  0.00    +0.000 C 
ATOM     15  C   UNL     1       6.013   5.798  16.315  0.00  0.00    +0.000 A 
ATOM     16  N   UNL     1       7.357   6.017  16.603  0.00  0.00    +0.000 N 
ATOM     17  N   UNL     1       7.505   5.814  17.965  0.00  0.00    +0.000 N 
ATOM     18  C   UNL     1       6.251   5.710  18.524  0.00  0.00    +0.000 A 
ATOM     19  O   UNL     1       5.986   5.683  19.712  0.00  0.00    +0.000 OA
ATOM     20  C   UNL     1       5.254   5.691  17.427  0.00  0.00    +0.000 A 
ATOM     21  H   UNL     1       7.986   5.464  16.015  0.00  0.00    +0.000 HD
ATOM     22  H   UNL     1       8.249   6.269  18.482  0.00  0.00    +0.000 HD
ENDBRANCH   1  20
BRANCH   1  23
ATOM     23  C   UNL     1       3.437   4.000  18.070  0.00  0.00    +0.000 A 
ATOM     24  C   UNL     1       4.398   3.155  18.669  0.00  0.00    +0.000 A 
ATOM     25  C   UNL     1       4.122   1.824  18.992  0.00  0.00    +0.000 A 
ATOM     26  C   UNL     1       2.867   1.294  18.742  0.00  0.00    +0.000 A 
ATOM     27  C   UNL     1       1.883   2.105  18.189  0.00  0.00    +0.000 A 
ATOM     28  C   UNL     1       2.155   3.442  17.866  0.00  0.00    +0.000 A 
ATOM     29 CL   UNL     1       0.823   4.347  17.240  0.00  0.00    +0.000 Cl
ENDBRANCH   1  23
TORSDOF 4
ENDMDL
MODEL 5
REMARK VINA RESULT:      -7.7      1.121      1.579
REMARK  Name = 
REMARK  5 active torsions:
REMARK  status: ('A' for Active; 'I' for Inactive)
REMARK    1  A    between atoms: C_1  and  C_2
REMARK    2  A    between atoms: C_7  and  C_8
REMARK    3  A    between atoms: C_8  and  C_9
REMARK    4  A    between atoms: C_8  and  C_16
REMARK    5  A    between atoms: C_17  and  O_18
REMARK                            x       y       z     vdW  Elec       q    Type
REMARK                         _______ _______ _______ _____ _____    ______ ____
ROOT
ATOM      1  C   UNL     1       4.075   4.714  19.383  0.00  0.00    +0.000 C 
ENDROOT
BRANCH   1   2
ATOM      2  C   UNL     1       3.096   5.905  19.445  0.00  0.00    +0.000 A 
ATOM      3  C   UNL     1       2.961   6.969  18.622  0.00  0.00    +0.000 A 
ATOM      4  N   UNL     1       2.147   8.014  18.919  0.00  0.00    +0.000 N 
ATOM      5  C   UNL     1       1.489   8.167  20.095  0.00  0.00    +0.000 A 
ATOM      6  O   UNL     1       0.834   9.169  20.358  0.00  0.00    +0.000 OA
ATOM      7  N   UNL     1       1.606   7.123  20.957  0.00  0.00    +0.000 N 
ATOM      8  C   UNL     1       2.187   5.927  20.640  0.00  0.00    +0.000 A 
ATOM      9  O   UNL     1       1.970   4.923  21.311  0.00  0.00    +0.000 OA
ATOM     10  H   UNL     1       2.120   8.789  18.267  0.00  0.00    +0.000 HD
ATOM     11  H   UNL     1       1.027   7.162  21.781  0.00  0.00    +0.000 HD
BRANCH   3  12
ATOM     12  O   UNL     1       3.649   7.241  17.480  0.00  0.00    +0.000 OA
ATOM     13  H   UNL     1       4.614   7.319  17.635  0.00  0.00    +0.000 HD
ENDBRANCH   3  12
ENDBRANCH   1   2
BRANCH   1  20
ATOM     14  C   UNL     1       1.334   4.206  17.586  0.00  0.00    +0.000 C 
ATOM     15  C   UNL     1       2.330   3.220  18.108  0.00  0.00    +0.000 A 
ATOM     16  N   UNL     1       2.122   1.864  17.871  0.00  0.00    +0.000 N 
ATOM     17  N   UNL     1       3.000   1.184  18.698  0.00  0.00    +0.000 N 
ATOM     18  C   UNL     1       3.877   2.096  19.242  0.00  0.00    +0.000 A 
ATOM     19  O   UNL     1       4.875   1.845  19.891  0.00  0.00    +0.000 OA
ATOM     20  C   UNL     1       3.428   3.456  18.858  0.00  0.00    +0.000 A 
ATOM     21  H   UNL     1       1.142   1.588  17.964  0.00  0.00    +0.000 HD
ATOM     22  H   UNL     1       3.329   0.254  18.458  0.00  0.00    +0.000 HD
ENDBRANCH   1  20
BRANCH   1  23
ATOM     23  C   UNL     1       5.433   5.046  18.710  0.00  0.00    +0.000 A 
ATOM     24  C   UNL     1       6.517   5.568  19.451  0.00  0.00    +0.000 A 
ATOM     25  C   UNL     1       7.728   5.925  18.850  0.00  0.00    +0.000 A 
ATOM     26  C   UNL     1       7.903   5.757  17.486  0.00  0.00    +0.000 A 
ATOM     27  C   UNL     1       6.873   5.209  16.729  0.00  0.00    +0.000 A 
ATOM     28  C   UNL     1       5.658   4.846  17.329  0.00  0.00    +0.000 A 
ATOM     29 CL   UNL     1       4.490   4.126  16.280  0.00  0.00    +0.000 Cl
ENDBRANCH   1  23
TORSDOF 4
ENDMDL
MODEL 6
REMARK VINA RESULT:      -7.6      0.792      1.826
REMARK  Name = 
REMARK  5 active torsions:
REMARK  status: ('A' for Active; 'I' for Inactive)
REMARK    1  A    between atoms: C_1  and  C_2
REMARK    2  A    between atoms: C_7  and  C_8
REMARK    3  A    between atoms: C_8  and  C_9
REMARK    4  A    between atoms: C_8  and  C_16
REMARK    5  A    between atoms: C_17  and  O_18
REMARK                            x       y       z     vdW  Elec       q    Type
REMARK                         _______ _______ _______ _____ _____    ______ ____
ROOT
ATOM      1  C   UNL     1       4.345   4.549  18.551  0.00  0.00    +0.000 C 
ENDROOT
BRANCH   1   2
ATOM      2  C   UNL     1       3.614   5.867  18.881  0.00  0.00    +0.000 A 
ATOM      3  C   UNL     1       2.874   6.209  19.958  0.00  0.00    +0.000 A 
ATOM      4  N   UNL     1       2.164   7.365  20.010  0.00  0.00    +0.000 N 
ATOM      5  C   UNL     1       2.020   8.228  18.973  0.00  0.00    +0.000 A 
ATOM      6  O   UNL     1       1.299   9.216  19.033  0.00  0.00    +0.000 OA
ATOM      7  N   UNL     1       2.742   7.915  17.864  0.00  0.00    +0.000 N 
ATOM      8  C   UNL     1       3.678   6.920  17.812  0.00  0.00    +0.000 A 
ATOM      9  O   UNL     1       4.527   6.898  16.926  0.00  0.00    +0.000 OA
ATOM     10  H   UNL     1       1.609   7.540  20.839  0.00  0.00    +0.000 HD
ATOM     11  H   UNL     1       2.747   8.605  17.130  0.00  0.00    +0.000 HD
BRANCH   3  12
ATOM     12  O   UNL     1       2.614   5.468  21.070  0.00  0.00    +0.000 OA
ATOM     13  H   UNL     1       3.216   4.699  21.155  0.00  0.00    +0.000 HD
ENDBRANCH   3  12
ENDBRANCH   1   2
BRANCH   1  20
ATOM     14  C   UNL     1       1.273   4.115  17.377  0.00  0.00    +0.000 C 
ATOM     15  C   UNL     1       2.179   3.142  18.063  0.00  0.00    +0.000 A 
ATOM     16  N   UNL     1       1.720   1.852  18.310  0.00  0.00    +0.000 N 
ATOM     17  N   UNL     1       2.617   1.280  19.196  0.00  0.00    +0.000 N 
ATOM     18  C   UNL     1       3.712   2.108  19.298  0.00  0.00    +0.000 A 
ATOM     19  O   UNL     1       4.760   1.858  19.862  0.00  0.00    +0.000 OA
ATOM     20  C   UNL     1       3.421   3.355  18.551  0.00  0.00    +0.000 A 
ATOM     21  H   UNL     1       0.743   1.827  18.610  0.00  0.00    +0.000 HD
ATOM     22  H   UNL     1       2.743   0.274  19.233  0.00  0.00    +0.000 HD
ENDBRANCH   1  20
BRANCH   1  23
ATOM     23  C   UNL     1       5.262   4.628  17.301  0.00  0.00    +0.000 A 
ATOM     24  C   UNL     1       4.793   4.273  16.017  0.00  0.00    +0.000 A 
ATOM     25  C   UNL     1       5.621   4.285  14.891  0.00  0.00    +0.000 A 
ATOM     26  C   UNL     1       6.946   4.669  15.008  0.00  0.00    +0.000 A 
ATOM     27  C   UNL     1       7.435   5.063  16.248  0.00  0.00    +0.000 A 
ATOM     28  C   UNL     1       6.606   5.055  17.380  0.00  0.00    +0.000 A 
ATOM     29 CL   UNL     1       7.331   5.624  18.842  0.00  0.00    +0.000 Cl
ENDBRANCH   1  23
TORSDOF 4
ENDMDL
MODEL 7
REMARK VINA RESULT:      -7.6      2.645      4.523
REMARK  Name = 
REMARK  5 active torsions:
REMARK  status: ('A' for Active; 'I' for Inactive)
REMARK    1  A    between atoms: C_1  and  C_2
REMARK    2  A    between atoms: C_7  and  C_8
REMARK    3  A    between atoms: C_8  and  C_9
REMARK    4  A    between atoms: C_8  and  C_16
REMARK    5  A    between atoms: C_17  and  O_18
REMARK                            x       y       z     vdW  Elec       q    Type
REMARK                         _______ _______ _______ _____ _____    ______ ____
ROOT
ATOM      1  C   UNL     1       3.234   5.945  17.650  0.00  0.00    +0.000 C 
ENDROOT
BRANCH   1   2
ATOM      2  C   UNL     1       2.688   6.956  18.681  0.00  0.00    +0.000 A 
ATOM      3  C   UNL     1       2.485   6.824  20.011  0.00  0.00    +0.000 A 
ATOM      4  N   UNL     1       1.841   7.769  20.741  0.00  0.00    +0.000 N 
ATOM      5  C   UNL     1       1.236   8.865  20.219  0.00  0.00    +0.000 A 
ATOM      6  O   UNL     1       0.589   9.649  20.903  0.00  0.00    +0.000 OA
ATOM      7  N   UNL     1       1.407   9.031  18.881  0.00  0.00    +0.000 N 
ATOM      8  C   UNL     1       2.251   8.276  18.116  0.00  0.00    +0.000 A 
ATOM      9  O   UNL     1       2.627   8.669  17.015  0.00  0.00    +0.000 OA
ATOM     10  H   UNL     1       1.700   7.587  21.727  0.00  0.00    +0.000 HD
ATOM     11  H   UNL     1       1.073   9.901  18.496  0.00  0.00    +0.000 HD
BRANCH   3  12
ATOM     12  O   UNL     1       2.757   5.749  20.800  0.00  0.00    +0.000 OA
ATOM     13  H   UNL     1       2.004   5.123  20.850  0.00  0.00    +0.000 HD
ENDBRANCH   3  12
ENDBRANCH   1   2
BRANCH   1  20
ATOM     14  C   UNL     1       5.733   5.131  19.673  0.00  0.00    +0.000 C 
ATOM     15  C   UNL     1       5.771   5.685  18.285  0.00  0.00    +0.000 A 
ATOM     16  N   UNL     1       7.005   5.958  17.702  0.00  0.00    +0.000 N 
ATOM     17  N   UNL     1       6.746   6.721  16.576  0.00  0.00    +0.000 N 
ATOM     18  C   UNL     1       5.388   6.711  16.350  0.00  0.00    +0.000 A 
ATOM     19  O   UNL     1       4.813   7.143  15.369  0.00  0.00    +0.000 OA
ATOM     20  C   UNL     1       4.733   6.029  17.492  0.00  0.00    +0.000 A 
ATOM     21  H   UNL     1       7.673   6.370  18.357  0.00  0.00    +0.000 HD
ATOM     22  H   UNL     1       7.386   6.723  15.789  0.00  0.00    +0.000 HD
ENDBRANCH   1  20
BRANCH   1  23
ATOM     23  C   UNL     1       2.706   4.499  17.840  0.00  0.00    +0.000 A 
ATOM     24  C   UNL     1       1.526   4.233  18.570  0.00  0.00    +0.000 A 
ATOM     25  C   UNL     1       1.068   2.933  18.798  0.00  0.00    +0.000 A 
ATOM     26  C   UNL     1       1.767   1.850  18.291  0.00  0.00    +0.000 A 
ATOM     27  C   UNL     1       2.912   2.073  17.534  0.00  0.00    +0.000 A 
ATOM     28  C   UNL     1       3.373   3.377  17.300  0.00  0.00    +0.000 A 
ATOM     29 CL   UNL     1       4.773   3.506  16.297  0.00  0.00    +0.000 Cl
ENDBRANCH   1  23
TORSDOF 4
ENDMDL
MODEL 8
REMARK VINA RESULT:      -7.5      2.602      4.639
REMARK  Name = 
REMARK  5 active torsions:
REMARK  status: ('A' for Active; 'I' for Inactive)
REMARK    1  A    between atoms: C_1  and  C_2
REMARK    2  A    between atoms: C_7  and  C_8
REMARK    3  A    between atoms: C_8  and  C_9
REMARK    4  A    between atoms: C_8  and  C_16
REMARK    5  A    between atoms: C_17  and  O_18
REMARK                            x       y       z     vdW  Elec       q    Type
REMARK                         _______ _______ _______ _____ _____    ______ ____
ROOT
ATOM      1  C   UNL     1       3.850   5.477  17.562  0.00  0.00    +0.000 C 
ENDROOT
BRANCH   1   2
ATOM      2  C   UNL     1       3.217   6.546  18.478  0.00  0.00    +0.000 A 
ATOM      3  C   UNL     1       2.874   6.485  19.784  0.00  0.00    +0.000 A 
ATOM      4  N   UNL     1       2.173   7.475  20.394  0.00  0.00    +0.000 N 
ATOM      5  C   UNL     1       1.647   8.551  19.758  0.00  0.00    +0.000 A 
ATOM      6  O   UNL     1       0.946   9.377  20.329  0.00  0.00    +0.000 OA
ATOM      7  N   UNL     1       1.960   8.645  18.438  0.00  0.00    +0.000 N 
ATOM      8  C   UNL     1       2.865   7.841  17.804  0.00  0.00    +0.000 A 
ATOM      9  O   UNL     1       3.361   8.172  16.732  0.00  0.00    +0.000 OA
ATOM     10  H   UNL     1       1.927   7.345  21.368  0.00  0.00    +0.000 HD
ATOM     11  H   UNL     1       1.683   9.498  17.977  0.00  0.00    +0.000 HD
BRANCH   3  12
ATOM     12  O   UNL     1       3.042   5.449  20.650  0.00  0.00    +0.000 OA
ATOM     13  H   UNL     1       2.189   5.078  20.958  0.00  0.00    +0.000 HD
ENDBRANCH   3  12
ENDBRANCH   1   2
BRANCH   1  20
ATOM     14  C   UNL     1       6.443   5.519  19.631  0.00  0.00    +0.000 C 
ATOM     15  C   UNL     1       6.402   5.708  18.148  0.00  0.00    +0.000 A 
ATOM     16  N   UNL     1       7.587   5.979  17.471  0.00  0.00    +0.000 N 
ATOM     17  N   UNL     1       7.225   6.396  16.200  0.00  0.00    +0.000 N 
ATOM     18  C   UNL     1       5.879   6.158  16.034  0.00  0.00    +0.000 A 
ATOM     19  O   UNL     1       5.248   6.254  14.998  0.00  0.00    +0.000 OA
ATOM     20  C   UNL     1       5.324   5.707  17.333  0.00  0.00    +0.000 A 
ATOM     21  H   UNL     1       8.198   6.624  17.977  0.00  0.00    +0.000 HD
ATOM     22  H   UNL     1       7.856   6.280  15.414  0.00  0.00    +0.000 HD
ENDBRANCH   1  20
BRANCH   1  23
ATOM     23  C   UNL     1       3.499   4.018  17.956  0.00  0.00    +0.000 A 
ATOM     24  C   UNL     1       4.466   3.151  18.512  0.00  0.00    +0.000 A 
ATOM     25  C   UNL     1       4.181   1.817  18.819  0.00  0.00    +0.000 A 
ATOM     26  C   UNL     1       2.914   1.307  18.595  0.00  0.00    +0.000 A 
ATOM     27  C   UNL     1       1.924   2.141  18.085  0.00  0.00    +0.000 A 
ATOM     28  C   UNL     1       2.205   3.480  17.778  0.00  0.00    +0.000 A 
ATOM     29 CL   UNL     1       0.868   4.413  17.206  0.00  0.00    +0.000 Cl
ENDBRANCH   1  23
TORSDOF 4
ENDMDL
MODEL 9
REMARK VINA RESULT:      -7.3      1.366      2.452
REMARK  Name = 
REMARK  5 active torsions:
REMARK  status: ('A' for Active; 'I' for Inactive)
REMARK    1  A    between atoms: C_1  and  C_2
REMARK    2  A    between atoms: C_7  and  C_8
REMARK    3  A    between atoms: C_8  and  C_9
REMARK    4  A    between atoms: C_8  and  C_16
REMARK    5  A    between atoms: C_17  and  O_18
REMARK                            x       y       z     vdW  Elec       q    Type
REMARK                         _______ _______ _______ _____ _____    ______ ____
ROOT
ATOM      1  C   UNL     1       4.167   4.742  18.691  0.00  0.00    +0.000 C 
ENDROOT
BRANCH   1   2
ATOM      2  C   UNL     1       3.437   6.093  18.847  0.00  0.00    +0.000 A 
ATOM      3  C   UNL     1       2.588   6.521  19.808  0.00  0.00    +0.000 A 
ATOM      4  N   UNL     1       1.907   7.690  19.702  0.00  0.00    +0.000 N 
ATOM      5  C   UNL     1       1.903   8.482  18.601  0.00  0.00    +0.000 A 
ATOM      6  O   UNL     1       1.205   9.485  18.513  0.00  0.00    +0.000 OA
ATOM      7  N   UNL     1       2.736   8.081  17.604  0.00  0.00    +0.000 N 
ATOM      8  C   UNL     1       3.647   7.069  17.726  0.00  0.00    +0.000 A 
ATOM      9  O   UNL     1       4.589   6.971  16.946  0.00  0.00    +0.000 OA
ATOM     10  H   UNL     1       1.267   7.931  20.449  0.00  0.00    +0.000 HD
ATOM     11  H   UNL     1       2.842   8.719  16.832  0.00  0.00    +0.000 HD
BRANCH   3  12
ATOM     12  O   UNL     1       2.187   5.862  20.929  0.00  0.00    +0.000 OA
ATOM     13  H   UNL     1       2.705   6.121  21.720  0.00  0.00    +0.000 HD
ENDBRANCH   3  12
ENDBRANCH   1   2
BRANCH   1  20
ATOM     14  C   UNL     1       4.468   1.801  20.195  0.00  0.00    +0.000 C 
ATOM     15  C   UNL     1       3.319   2.364  19.422  0.00  0.00    +0.000 A 
ATOM     16  N   UNL     1       2.184   1.581  19.236  0.00  0.00    +0.000 N 
ATOM     17  N   UNL     1       1.428   2.211  18.261  0.00  0.00    +0.000 N 
ATOM     18  C   UNL     1       1.968   3.457  18.034  0.00  0.00    +0.000 A 
ATOM     19  O   UNL     1       1.483   4.347  17.361  0.00  0.00    +0.000 OA
ATOM     20  C   UNL     1       3.234   3.560  18.800  0.00  0.00    +0.000 A 
ATOM     21  H   UNL     1       2.402   0.601  19.043  0.00  0.00    +0.000 HD
ATOM     22  H   UNL     1       0.423   2.085  18.217  0.00  0.00    +0.000 HD
ENDBRANCH   1  20
BRANCH   1  23
ATOM     23  C   UNL     1       5.118   4.675  17.467  0.00  0.00    +0.000 A 
ATOM     24  C   UNL     1       4.655   4.284  16.191  0.00  0.00    +0.000 A 
ATOM     25  C   UNL     1       5.509   4.163  15.092  0.00  0.00    +0.000 A 
ATOM     26  C   UNL     1       6.858   4.446  15.226  0.00  0.00    +0.000 A 
ATOM     27  C   UNL     1       7.346   4.872  16.457  0.00  0.00    +0.000 A 
ATOM     28  C   UNL     1       6.491   4.997  17.562  0.00  0.00    +0.000 A 
ATOM     29 CL   UNL     1       7.221   5.590  19.010  0.00  0.00    +0.000 Cl
ENDBRANCH   1  23
TORSDOF 4
ENDMDL
