MODEL 1
REMARK VINA RESULT:      -7.7      0.000      0.000
REMARK  Name = 
REMARK  8 active torsions:
REMARK  status: ('A' for Active; 'I' for Inactive)
REMARK    1  A    between atoms: C_1  and  C_2
REMARK    2  A    between atoms: C_5  and  C_6
REMARK    3  A    between atoms: N_7  and  C_8
REMARK    4  A    between atoms: C_13  and  N_14
REMARK    5  A    between atoms: N_14  and  C_15
REMARK    6  A    between atoms: C_15  and  N_17
REMARK    7  A    between atoms: N_17  and  C_18
REMARK    8  A    between atoms: C_21  and  C_22
REMARK                            x       y       z     vdW  Elec       q    Type
REMARK                         _______ _______ _______ _____ _____    ______ ____
ROOT
ATOM      1  N   UNL     1       5.656   5.327  19.519  0.00  0.00    +0.000 N 
ATOM      2  H   UNL     1       5.671   5.954  20.316  0.00  0.00    +0.000 HD
ENDROOT
BRANCH   1   8
ATOM      3  C   UNL     1       3.242   5.087  18.921  0.00  0.00    +0.000 A 
ATOM      4  C   UNL     1       2.186   4.166  18.744  0.00  0.00    +0.000 A 
ATOM      5  C   UNL     1       2.361   2.783  18.845  0.00  0.00    +0.000 A 
ATOM      6  C   UNL     1       3.600   2.273  19.186  0.00  0.00    +0.000 A 
ATOM      7  C   UNL     1       4.638   3.157  19.452  0.00  0.00    +0.000 A 
ATOM      8  C   UNL     1       4.482   4.562  19.328  0.00  0.00    +0.000 A 
BRANCH   3  15
ATOM      9  C   UNL     1       1.416   6.993  20.795  0.00  0.00    +0.000 C 
ATOM     10  C   UNL     1       2.151   7.341  19.547  0.00  0.00    +0.000 A 
ATOM     11  C   UNL     1       2.066   8.586  18.949  0.00  0.00    +0.000 A 
ATOM     12  C   UNL     1       2.764   8.542  17.745  0.00  0.00    +0.000 A 
ATOM     13  C   UNL     1       3.323   7.284  17.627  0.00  0.00    +0.000 A 
ATOM     14  C   UNL     1       4.268   6.895  16.533  0.00  0.00    +0.000 C 
ATOM     15  N   UNL     1       2.930   6.496  18.736  0.00  0.00    +0.000 N 
ENDBRANCH   3  15
ENDBRANCH   1   8
BRANCH   1  16
ATOM     16  C   UNL     1       6.720   5.403  18.635  0.00  0.00    +0.000 C 
ATOM     17  S   UNL     1       7.843   6.627  18.807  0.00  0.00    +0.000 S 
BRANCH  16  18
ATOM     18  N   UNL     1       6.819   4.323  17.779  0.00  0.00    +0.000 N 
ATOM     19  H   UNL     1       7.180   3.481  18.213  0.00  0.00    +0.000 HD
BRANCH  18  20
ATOM     20  C   UNL     1       6.577   4.244  16.397  0.00  0.00    +0.000 A 
ATOM     21  C   UNL     1       7.505   4.828  15.527  0.00  0.00    +0.000 A 
ATOM     22  C   UNL     1       7.369   4.683  14.142  0.00  0.00    +0.000 A 
ATOM     23  C   UNL     1       6.328   3.912  13.608  0.00  0.00    +0.000 A 
ATOM     24  C   UNL     1       5.413   3.313  14.489  0.00  0.00    +0.000 A 
ATOM     25  C   UNL     1       5.529   3.490  15.871  0.00  0.00    +0.000 A 
BRANCH  23  26
ATOM     26  C   UNL     1       6.191   3.695  12.121  0.00  0.00    +0.000 C 
ATOM     27  F   UNL     1       6.637   2.477  11.703  0.00  0.00    +0.000 F 
ATOM     28  F   UNL     1       4.898   3.781  11.702  0.00  0.00    +0.000 F 
ATOM     29  F   UNL     1       6.881   4.615  11.392  0.00  0.00    +0.000 F 
ENDBRANCH  23  26
ENDBRANCH  18  20
ENDBRANCH  16  18
ENDBRANCH   1  16
TORSDOF 6
ENDMDL
MODEL 2
REMARK VINA RESULT:      -7.5      5.626      8.518
REMARK  Name = 
REMARK  8 active torsions:
REMARK  status: ('A' for Active; 'I' for Inactive)
REMARK    1  A    between atoms: C_1  and  C_2
REMARK    2  A    between atoms: C_5  and  C_6
REMARK    3  A    between atoms: N_7  and  C_8
REMARK    4  A    between atoms: C_13  and  N_14
REMARK    5  A    between atoms: N_14  and  C_15
REMARK    6  A    between atoms: C_15  and  N_17
REMARK    7  A    between atoms: N_17  and  C_18
REMARK    8  A    between atoms: C_21  and  C_22
REMARK                            x       y       z     vdW  Elec       q    Type
REMARK                         _______ _______ _______ _____ _____    ______ ____
ROOT
ATOM      1  N   UNL     1       1.844   5.787  19.081  0.00  0.00    +0.000 N 
ATOM      2  H   UNL     1       1.150   5.666  18.351  0.00  0.00    +0.000 HD
ENDROOT
BRANCH   1   8
ATOM      3  C   UNL     1       3.413   3.874  19.435  0.00  0.00    +0.000 A 
ATOM      4  C   UNL     1       3.701   2.758  20.251  0.00  0.00    +0.000 A 
ATOM      5  C   UNL     1       2.971   2.454  21.404  0.00  0.00    +0.000 A 
ATOM      6  C   UNL     1       1.883   3.231  21.751  0.00  0.00    +0.000 A 
ATOM      7  C   UNL     1       1.520   4.285  20.921  0.00  0.00    +0.000 A 
ATOM      8  C   UNL     1       2.266   4.621  19.761  0.00  0.00    +0.000 A 
BRANCH   3  15
ATOM      9  C   UNL     1       6.264   5.405  19.371  0.00  0.00    +0.000 C 
ATOM     10  C   UNL     1       5.531   4.753  18.250  0.00  0.00    +0.000 A 
ATOM     11  C   UNL     1       5.969   4.802  16.939  0.00  0.00    +0.000 A 
ATOM     12  C   UNL     1       5.000   4.210  16.132  0.00  0.00    +0.000 A 
ATOM     13  C   UNL     1       3.990   3.750  16.953  0.00  0.00    +0.000 A 
ATOM     14  C   UNL     1       2.836   2.927  16.469  0.00  0.00    +0.000 C 
ATOM     15  N   UNL     1       4.284   4.103  18.293  0.00  0.00    +0.000 N 
ENDBRANCH   3  15
ENDBRANCH   1   8
BRANCH   1  16
ATOM     16  C   UNL     1       2.400   7.048  19.222  0.00  0.00    +0.000 C 
ATOM     17  S   UNL     1       3.028   7.821  17.882  0.00  0.00    +0.000 S 
BRANCH  16  18
ATOM     18  N   UNL     1       2.220   7.606  20.472  0.00  0.00    +0.000 N 
ATOM     19  H   UNL     1       2.852   7.251  21.180  0.00  0.00    +0.000 HD
BRANCH  18  20
ATOM     20  C   UNL     1       1.249   8.518  20.920  0.00  0.00    +0.000 A 
ATOM     21  C   UNL     1       1.053   8.654  22.299  0.00  0.00    +0.000 A 
ATOM     22  C   UNL     1       0.180   9.626  22.801  0.00  0.00    +0.000 A 
ATOM     23  C   UNL     1      -0.476  10.507  21.930  0.00  0.00    +0.000 A 
ATOM     24  C   UNL     1      -0.258  10.377  20.550  0.00  0.00    +0.000 A 
ATOM     25  C   UNL     1       0.587   9.382  20.049  0.00  0.00    +0.000 A 
BRANCH  23  26
ATOM     26  C   UNL     1      -1.380  11.598  22.449  0.00  0.00    +0.000 C 
ATOM     27  F   UNL     1      -2.234  12.093  21.510  0.00  0.00    +0.000 F 
ATOM     28  F   UNL     1      -2.166  11.175  23.478  0.00  0.00    +0.000 F 
ATOM     29  F   UNL     1      -0.688  12.671  22.925  0.00  0.00    +0.000 F 
ENDBRANCH  23  26
ENDBRANCH  18  20
ENDBRANCH  16  18
ENDBRANCH   1  16
TORSDOF 6
ENDMDL
MODEL 3
REMARK VINA RESULT:      -7.5      0.122      1.735
REMARK  Name = 
REMARK  8 active torsions:
REMARK  status: ('A' for Active; 'I' for Inactive)
REMARK    1  A    between atoms: C_1  and  C_2
REMARK    2  A    between atoms: C_5  and  C_6
REMARK    3  A    between atoms: N_7  and  C_8
REMARK    4  A    between atoms: C_13  and  N_14
REMARK    5  A    between atoms: N_14  and  C_15
REMARK    6  A    between atoms: C_15  and  N_17
REMARK    7  A    between atoms: N_17  and  C_18
REMARK    8  A    between atoms: C_21  and  C_22
REMARK                            x       y       z     vdW  Elec       q    Type
REMARK                         _______ _______ _______ _____ _____    ______ ____
ROOT
ATOM      1  N   UNL     1       5.619   5.227  19.567  0.00  0.00    +0.000 N 
ATOM      2  H   UNL     1       5.617   5.836  20.378  0.00  0.00    +0.000 HD
ENDROOT
BRANCH   1   8
ATOM      3  C   UNL     1       3.234   4.949  18.876  0.00  0.00    +0.000 A 
ATOM      4  C   UNL     1       2.193   4.015  18.682  0.00  0.00    +0.000 A 
ATOM      5  C   UNL     1       2.375   2.636  18.831  0.00  0.00    +0.000 A 
ATOM      6  C   UNL     1       3.601   2.147  19.238  0.00  0.00    +0.000 A 
ATOM      7  C   UNL     1       4.621   3.047  19.521  0.00  0.00    +0.000 A 
ATOM      8  C   UNL     1       4.460   4.447  19.350  0.00  0.00    +0.000 A 
BRANCH   3  15
ATOM      9  C   UNL     1       4.279   6.852  16.474  0.00  0.00    +0.000 C 
ATOM     10  C   UNL     1       3.353   7.186  17.592  0.00  0.00    +0.000 A 
ATOM     11  C   UNL     1       2.864   8.462  17.805  0.00  0.00    +0.000 A 
ATOM     12  C   UNL     1       2.137   8.460  18.993  0.00  0.00    +0.000 A 
ATOM     13  C   UNL     1       2.136   7.170  19.485  0.00  0.00    +0.000 A 
ATOM     14  C   UNL     1       1.338   6.736  20.675  0.00  0.00    +0.000 C 
ATOM     15  N   UNL     1       2.920   6.350  18.637  0.00  0.00    +0.000 N 
ENDBRANCH   3  15
ENDBRANCH   1   8
BRANCH   1  16
ATOM     16  C   UNL     1       6.688   5.341  18.694  0.00  0.00    +0.000 C 
ATOM     17  S   UNL     1       7.783   6.586  18.896  0.00  0.00    +0.000 S 
BRANCH  16  18
ATOM     18  N   UNL     1       6.817   4.279  17.820  0.00  0.00    +0.000 N 
ATOM     19  H   UNL     1       7.203   3.441  18.240  0.00  0.00    +0.000 HD
BRANCH  18  20
ATOM     20  C   UNL     1       6.576   4.216  16.437  0.00  0.00    +0.000 A 
ATOM     21  C   UNL     1       7.479   4.853  15.577  0.00  0.00    +0.000 A 
ATOM     22  C   UNL     1       7.347   4.728  14.189  0.00  0.00    +0.000 A 
ATOM     23  C   UNL     1       6.336   3.926  13.642  0.00  0.00    +0.000 A 
ATOM     24  C   UNL     1       5.447   3.275  14.513  0.00  0.00    +0.000 A 
ATOM     25  C   UNL     1       5.559   3.431  15.898  0.00  0.00    +0.000 A 
BRANCH  23  26
ATOM     26  C   UNL     1       6.206   3.731  12.152  0.00  0.00    +0.000 C 
ATOM     27  F   UNL     1       4.926   3.829  11.697  0.00  0.00    +0.000 F 
ATOM     28  F   UNL     1       6.923   4.649  11.445  0.00  0.00    +0.000 F 
ATOM     29  F   UNL     1       6.655   2.512  11.741  0.00  0.00    +0.000 F 
ENDBRANCH  23  26
ENDBRANCH  18  20
ENDBRANCH  16  18
ENDBRANCH   1  16
TORSDOF 6
ENDMDL
MODEL 4
REMARK VINA RESULT:      -7.5      4.621      7.300
REMARK  Name = 
REMARK  8 active torsions:
REMARK  status: ('A' for Active; 'I' for Inactive)
REMARK    1  A    between atoms: C_1  and  C_2
REMARK    2  A    between atoms: C_5  and  C_6
REMARK    3  A    between atoms: N_7  and  C_8
REMARK    4  A    between atoms: C_13  and  N_14
REMARK    5  A    between atoms: N_14  and  C_15
REMARK    6  A    between atoms: C_15  and  N_17
REMARK    7  A    between atoms: N_17  and  C_18
REMARK    8  A    between atoms: C_21  and  C_22
REMARK                            x       y       z     vdW  Elec       q    Type
REMARK                         _______ _______ _______ _____ _____    ______ ____
ROOT
ATOM      1  N   UNL     1       0.312   9.203  19.457  0.00  0.00    +0.000 N 
ATOM      2  H   UNL     1      -0.454   8.806  18.925  0.00  0.00    +0.000 HD
ENDROOT
BRANCH   1   8
ATOM      3  C   UNL     1      -0.216  11.161  20.918  0.00  0.00    +0.000 A 
ATOM      4  C   UNL     1      -0.571  11.559  22.226  0.00  0.00    +0.000 A 
ATOM      5  C   UNL     1      -0.829  10.645  23.252  0.00  0.00    +0.000 A 
ATOM      6  C   UNL     1      -0.686   9.291  23.016  0.00  0.00    +0.000 A 
ATOM      7  C   UNL     1      -0.254   8.871  21.764  0.00  0.00    +0.000 A 
ATOM      8  C   UNL     1      -0.011   9.785  20.705  0.00  0.00    +0.000 A 
BRANCH   3  15
ATOM      9  C   UNL     1       2.233  13.267  20.695  0.00  0.00    +0.000 C 
ATOM     10  C   UNL     1       1.039  13.128  19.814  0.00  0.00    +0.000 A 
ATOM     11  C   UNL     1       0.769  14.000  18.774  0.00  0.00    +0.000 A 
ATOM     12  C   UNL     1      -0.474  13.670  18.238  0.00  0.00    +0.000 A 
ATOM     13  C   UNL     1      -0.945  12.562  18.915  0.00  0.00    +0.000 A 
ATOM     14  C   UNL     1      -2.188  11.822  18.531  0.00  0.00    +0.000 C 
ATOM     15  N   UNL     1      -0.024  12.215  19.934  0.00  0.00    +0.000 N 
ENDBRANCH   3  15
ENDBRANCH   1   8
BRANCH   1  16
ATOM     16  C   UNL     1       1.593   8.998  18.973  0.00  0.00    +0.000 C 
ATOM     17  S   UNL     1       2.240  10.083  17.880  0.00  0.00    +0.000 S 
BRANCH  16  18
ATOM     18  N   UNL     1       2.272   7.968  19.593  0.00  0.00    +0.000 N 
ATOM     19  H   UNL     1       2.978   8.274  20.253  0.00  0.00    +0.000 HD
BRANCH  18  20
ATOM     20  C   UNL     1       2.188   6.580  19.386  0.00  0.00    +0.000 A 
ATOM     21  C   UNL     1       1.761   5.776  20.449  0.00  0.00    +0.000 A 
ATOM     22  C   UNL     1       1.554   4.404  20.264  0.00  0.00    +0.000 A 
ATOM     23  C   UNL     1       1.727   3.826  18.999  0.00  0.00    +0.000 A 
ATOM     24  C   UNL     1       2.136   4.643  17.934  0.00  0.00    +0.000 A 
ATOM     25  C   UNL     1       2.378   6.006  18.130  0.00  0.00    +0.000 A 
BRANCH  23  26
ATOM     26  C   UNL     1       1.458   2.360  18.761  0.00  0.00    +0.000 C 
ATOM     27  F   UNL     1       1.790   1.564  19.815  0.00  0.00    +0.000 F 
ATOM     28  F   UNL     1       0.143   2.109  18.506  0.00  0.00    +0.000 F 
ATOM     29  F   UNL     1       2.145   1.868  17.692  0.00  0.00    +0.000 F 
ENDBRANCH  23  26
ENDBRANCH  18  20
ENDBRANCH  16  18
ENDBRANCH   1  16
TORSDOF 6
ENDMDL
MODEL 5
REMARK VINA RESULT:      -7.4      4.715      7.491
REMARK  Name = 
REMARK  8 active torsions:
REMARK  status: ('A' for Active; 'I' for Inactive)
REMARK    1  A    between atoms: C_1  and  C_2
REMARK    2  A    between atoms: C_5  and  C_6
REMARK    3  A    between atoms: N_7  and  C_8
REMARK    4  A    between atoms: C_13  and  N_14
REMARK    5  A    between atoms: N_14  and  C_15
REMARK    6  A    between atoms: C_15  and  N_17
REMARK    7  A    between atoms: N_17  and  C_18
REMARK    8  A    between atoms: C_21  and  C_22
REMARK                            x       y       z     vdW  Elec       q    Type
REMARK                         _______ _______ _______ _____ _____    ______ ____
ROOT
ATOM      1  N   UNL     1       1.210   9.678  19.347  0.00  0.00    +0.000 N 
ATOM      2  H   UNL     1       2.077   9.708  18.821  0.00  0.00    +0.000 HD
ENDROOT
BRANCH   1   8
ATOM      3  C   UNL     1      -0.139  11.735  18.905  0.00  0.00    +0.000 A 
ATOM      4  C   UNL     1      -1.282  12.242  18.249  0.00  0.00    +0.000 A 
ATOM      5  C   UNL     1      -2.091  11.458  17.420  0.00  0.00    +0.000 A 
ATOM      6  C   UNL     1      -1.812  10.114  17.264  0.00  0.00    +0.000 A 
ATOM      7  C   UNL     1      -0.746   9.565  17.965  0.00  0.00    +0.000 A 
ATOM      8  C   UNL     1       0.099  10.353  18.790  0.00  0.00    +0.000 A 
BRANCH   3  15
ATOM      9  C   UNL     1       2.690  13.115  18.152  0.00  0.00    +0.000 C 
ATOM     10  C   UNL     1       1.864  13.292  19.379  0.00  0.00    +0.000 A 
ATOM     11  C   UNL     1       2.278  14.052  20.458  0.00  0.00    +0.000 A 
ATOM     12  C   UNL     1       1.342  13.908  21.480  0.00  0.00    +0.000 A 
ATOM     13  C   UNL     1       0.325  13.099  21.009  0.00  0.00    +0.000 A 
ATOM     14  C   UNL     1      -0.936  12.827  21.768  0.00  0.00    +0.000 C 
ATOM     15  N   UNL     1       0.642  12.673  19.697  0.00  0.00    +0.000 N 
ENDBRANCH   3  15
ENDBRANCH   1   8
BRANCH   1  16
ATOM     16  C   UNL     1       1.178   8.862  20.465  0.00  0.00    +0.000 C 
ATOM     17  S   UNL     1      -0.022   9.080  21.606  0.00  0.00    +0.000 S 
BRANCH  16  18
ATOM     18  N   UNL     1       2.082   7.818  20.427  0.00  0.00    +0.000 N 
ATOM     19  H   UNL     1       3.010   8.060  20.756  0.00  0.00    +0.000 HD
BRANCH  18  20
ATOM     20  C   UNL     1       1.930   6.513  19.928  0.00  0.00    +0.000 A 
ATOM     21  C   UNL     1       2.403   6.236  18.640  0.00  0.00    +0.000 A 
ATOM     22  C   UNL     1       2.377   4.930  18.139  0.00  0.00    +0.000 A 
ATOM     23  C   UNL     1       1.920   3.873  18.938  0.00  0.00    +0.000 A 
ATOM     24  C   UNL     1       1.467   4.156  20.236  0.00  0.00    +0.000 A 
ATOM     25  C   UNL     1       1.460   5.467  20.721  0.00  0.00    +0.000 A 
BRANCH  23  26
ATOM     26  C   UNL     1       1.933   2.448  18.440  0.00  0.00    +0.000 C 
ATOM     27  F   UNL     1       2.795   1.640  19.117  0.00  0.00    +0.000 F 
ATOM     28  F   UNL     1       0.711   1.853  18.541  0.00  0.00    +0.000 F 
ATOM     29  F   UNL     1       2.286   2.354  17.128  0.00  0.00    +0.000 F 
ENDBRANCH  23  26
ENDBRANCH  18  20
ENDBRANCH  16  18
ENDBRANCH   1  16
TORSDOF 6
ENDMDL
MODEL 6
REMARK VINA RESULT:      -7.4      4.878      7.463
REMARK  Name = 
REMARK  8 active torsions:
REMARK  status: ('A' for Active; 'I' for Inactive)
REMARK    1  A    between atoms: C_1  and  C_2
REMARK    2  A    between atoms: C_5  and  C_6
REMARK    3  A    between atoms: N_7  and  C_8
REMARK    4  A    between atoms: C_13  and  N_14
REMARK    5  A    between atoms: N_14  and  C_15
REMARK    6  A    between atoms: C_15  and  N_17
REMARK    7  A    between atoms: N_17  and  C_18
REMARK    8  A    between atoms: C_21  and  C_22
REMARK                            x       y       z     vdW  Elec       q    Type
REMARK                         _______ _______ _______ _____ _____    ______ ____
ROOT
ATOM      1  N   UNL     1       1.125   9.871  19.588  0.00  0.00    +0.000 N 
ATOM      2  H   UNL     1       2.023  10.198  19.250  0.00  0.00    +0.000 HD
ENDROOT
BRANCH   1   8
ATOM      3  C   UNL     1      -0.565  11.670  19.192  0.00  0.00    +0.000 A 
ATOM      4  C   UNL     1      -1.699  12.037  18.434  0.00  0.00    +0.000 A 
ATOM      5  C   UNL     1      -2.214  11.241  17.406  0.00  0.00    +0.000 A 
ATOM      6  C   UNL     1      -1.639  10.014  17.136  0.00  0.00    +0.000 A 
ATOM      7  C   UNL     1      -0.575   9.585  17.921  0.00  0.00    +0.000 A 
ATOM      8  C   UNL     1      -0.026  10.392  18.952  0.00  0.00    +0.000 A 
BRANCH   3  15
ATOM      9  C   UNL     1      -1.749  12.160  22.164  0.00  0.00    +0.000 C 
ATOM     10  C   UNL     1      -0.598  12.830  21.497  0.00  0.00    +0.000 A 
ATOM     11  C   UNL     1       0.096  13.879  22.074  0.00  0.00    +0.000 A 
ATOM     12  C   UNL     1       1.018  14.357  21.146  0.00  0.00    +0.000 A 
ATOM     13  C   UNL     1       0.926  13.568  20.015  0.00  0.00    +0.000 A 
ATOM     14  C   UNL     1       1.858  13.680  18.849  0.00  0.00    +0.000 C 
ATOM     15  N   UNL     1      -0.105  12.615  20.198  0.00  0.00    +0.000 N 
ENDBRANCH   3  15
ENDBRANCH   1   8
BRANCH   1  16
ATOM     16  C   UNL     1       1.135   8.850  20.523  0.00  0.00    +0.000 C 
ATOM     17  S   UNL     1      -0.058   8.796  21.691  0.00  0.00    +0.000 S 
BRANCH  16  18
ATOM     18  N   UNL     1       2.074   7.868  20.276  0.00  0.00    +0.000 N 
ATOM     19  H   UNL     1       3.034   8.179  20.368  0.00  0.00    +0.000 HD
BRANCH  18  20
ATOM     20  C   UNL     1       1.898   6.544  19.839  0.00  0.00    +0.000 A 
ATOM     21  C   UNL     1       2.219   6.235  18.512  0.00  0.00    +0.000 A 
ATOM     22  C   UNL     1       2.168   4.912  18.058  0.00  0.00    +0.000 A 
ATOM     23  C   UNL     1       1.840   3.872  18.939  0.00  0.00    +0.000 A 
ATOM     24  C   UNL     1       1.539   4.189  20.273  0.00  0.00    +0.000 A 
ATOM     25  C   UNL     1       1.555   5.515  20.715  0.00  0.00    +0.000 A 
BRANCH  23  26
ATOM     26  C   UNL     1       1.831   2.432  18.488  0.00  0.00    +0.000 C 
ATOM     27  F   UNL     1       2.599   1.613  19.258  0.00  0.00    +0.000 F 
ATOM     28  F   UNL     1       0.580   1.892  18.504  0.00  0.00    +0.000 F 
ATOM     29  F   UNL     1       2.286   2.280  17.212  0.00  0.00    +0.000 F 
ENDBRANCH  23  26
ENDBRANCH  18  20
ENDBRANCH  16  18
ENDBRANCH   1  16
TORSDOF 6
ENDMDL
MODEL 7
REMARK VINA RESULT:      -7.3      0.339      1.237
REMARK  Name = 
REMARK  8 active torsions:
REMARK  status: ('A' for Active; 'I' for Inactive)
REMARK    1  A    between atoms: C_1  and  C_2
REMARK    2  A    between atoms: C_5  and  C_6
REMARK    3  A    between atoms: N_7  and  C_8
REMARK    4  A    between atoms: C_13  and  N_14
REMARK    5  A    between atoms: N_14  and  C_15
REMARK    6  A    between atoms: C_15  and  N_17
REMARK    7  A    between atoms: N_17  and  C_18
REMARK    8  A    between atoms: C_21  and  C_22
REMARK                            x       y       z     vdW  Elec       q    Type
REMARK                         _______ _______ _______ _____ _____    ______ ____
ROOT
ATOM      1  N   UNL     1       5.798   5.543  19.407  0.00  0.00    +0.000 N 
ATOM      2  H   UNL     1       5.859   6.150  20.217  0.00  0.00    +0.000 HD
ENDROOT
BRANCH   1   8
ATOM      3  C   UNL     1       3.370   5.184  18.936  0.00  0.00    +0.000 A 
ATOM      4  C   UNL     1       2.345   4.216  18.849  0.00  0.00    +0.000 A 
ATOM      5  C   UNL     1       2.582   2.847  19.000  0.00  0.00    +0.000 A 
ATOM      6  C   UNL     1       3.854   2.400  19.302  0.00  0.00    +0.000 A 
ATOM      7  C   UNL     1       4.867   3.334  19.480  0.00  0.00    +0.000 A 
ATOM      8  C   UNL     1       4.648   4.726  19.305  0.00  0.00    +0.000 A 
BRANCH   3  15
ATOM      9  C   UNL     1       1.495   7.075  20.776  0.00  0.00    +0.000 C 
ATOM     10  C   UNL     1       2.192   7.410  19.503  0.00  0.00    +0.000 A 
ATOM     11  C   UNL     1       2.041   8.627  18.862  0.00  0.00    +0.000 A 
ATOM     12  C   UNL     1       2.720   8.569  17.647  0.00  0.00    +0.000 A 
ATOM     13  C   UNL     1       3.332   7.334  17.564  0.00  0.00    +0.000 A 
ATOM     14  C   UNL     1       4.274   6.948  16.466  0.00  0.00    +0.000 C 
ATOM     15  N   UNL     1       2.993   6.571  18.708  0.00  0.00    +0.000 N 
ENDBRANCH   3  15
ENDBRANCH   1   8
BRANCH   1  16
ATOM     16  C   UNL     1       6.768   5.694  18.430  0.00  0.00    +0.000 C 
ATOM     17  S   UNL     1       7.625   7.123  18.339  0.00  0.00    +0.000 S 
BRANCH  16  18
ATOM     18  N   UNL     1       7.033   4.540  17.717  0.00  0.00    +0.000 N 
ATOM     19  H   UNL     1       7.526   3.830  18.246  0.00  0.00    +0.000 HD
BRANCH  18  20
ATOM     20  C   UNL     1       6.799   4.244  16.364  0.00  0.00    +0.000 A 
ATOM     21  C   UNL     1       5.711   3.423  16.044  0.00  0.00    +0.000 A 
ATOM     22  C   UNL     1       5.367   3.188  14.708  0.00  0.00    +0.000 A 
ATOM     23  C   UNL     1       6.079   3.808  13.672  0.00  0.00    +0.000 A 
ATOM     24  C   UNL     1       7.156   4.646  14.003  0.00  0.00    +0.000 A 
ATOM     25  C   UNL     1       7.521   4.851  15.337  0.00  0.00    +0.000 A 
BRANCH  23  26
ATOM     26  C   UNL     1       5.695   3.614  12.226  0.00  0.00    +0.000 C 
ATOM     27  F   UNL     1       4.396   3.927  11.958  0.00  0.00    +0.000 F 
ATOM     28  F   UNL     1       6.442   4.381  11.384  0.00  0.00    +0.000 F 
ATOM     29  F   UNL     1       5.863   2.328  11.807  0.00  0.00    +0.000 F 
ENDBRANCH  23  26
ENDBRANCH  18  20
ENDBRANCH  16  18
ENDBRANCH   1  16
TORSDOF 6
ENDMDL
MODEL 8
REMARK VINA RESULT:      -7.3      4.624      7.243
REMARK  Name = 
REMARK  8 active torsions:
REMARK  status: ('A' for Active; 'I' for Inactive)
REMARK    1  A    between atoms: C_1  and  C_2
REMARK    2  A    between atoms: C_5  and  C_6
REMARK    3  A    between atoms: N_7  and  C_8
REMARK    4  A    between atoms: C_13  and  N_14
REMARK    5  A    between atoms: N_14  and  C_15
REMARK    6  A    between atoms: C_15  and  N_17
REMARK    7  A    between atoms: N_17  and  C_18
REMARK    8  A    between atoms: C_21  and  C_22
REMARK                            x       y       z     vdW  Elec       q    Type
REMARK                         _______ _______ _______ _____ _____    ______ ____
ROOT
ATOM      1  N   UNL     1       1.146   9.711  19.579  0.00  0.00    +0.000 N 
ATOM      2  H   UNL     1       1.999   9.651  19.035  0.00  0.00    +0.000 HD
ENDROOT
BRANCH   1   8
ATOM      3  C   UNL     1      -0.078  11.840  19.115  0.00  0.00    +0.000 A 
ATOM      4  C   UNL     1      -1.189  12.408  18.453  0.00  0.00    +0.000 A 
ATOM      5  C   UNL     1      -2.043  11.665  17.632  0.00  0.00    +0.000 A 
ATOM      6  C   UNL     1      -1.845  10.306  17.490  0.00  0.00    +0.000 A 
ATOM      7  C   UNL     1      -0.814   9.701  18.197  0.00  0.00    +0.000 A 
ATOM      8  C   UNL     1       0.077  10.445  19.014  0.00  0.00    +0.000 A 
BRANCH   3  15
ATOM      9  C   UNL     1      -0.612  12.976  22.099  0.00  0.00    +0.000 C 
ATOM     10  C   UNL     1       0.548  13.229  21.199  0.00  0.00    +0.000 A 
ATOM     11  C   UNL     1       1.565  14.111  21.516  0.00  0.00    +0.000 A 
ATOM     12  C   UNL     1       2.416  14.211  20.418  0.00  0.00    +0.000 A 
ATOM     13  C   UNL     1       1.951  13.349  19.444  0.00  0.00    +0.000 A 
ATOM     14  C   UNL     1       2.682  13.068  18.168  0.00  0.00    +0.000 C 
ATOM     15  N   UNL     1       0.757  12.737  19.898  0.00  0.00    +0.000 N 
ENDBRANCH   3  15
ENDBRANCH   1   8
BRANCH   1  16
ATOM     16  C   UNL     1       1.077   8.948  20.733  0.00  0.00    +0.000 C 
ATOM     17  S   UNL     1      -0.160   9.218  21.822  0.00  0.00    +0.000 S 
BRANCH  16  18
ATOM     18  N   UNL     1       1.983   7.906  20.775  0.00  0.00    +0.000 N 
ATOM     19  H   UNL     1       2.787   8.078  21.367  0.00  0.00    +0.000 HD
BRANCH  18  20
ATOM     20  C   UNL     1       1.995   6.695  20.062  0.00  0.00    +0.000 A 
ATOM     21  C   UNL     1       2.521   6.695  18.765  0.00  0.00    +0.000 A 
ATOM     22  C   UNL     1       2.659   5.497  18.054  0.00  0.00    +0.000 A 
ATOM     23  C   UNL     1       2.315   4.276  18.649  0.00  0.00    +0.000 A 
ATOM     24  C   UNL     1       1.807   4.283  19.957  0.00  0.00    +0.000 A 
ATOM     25  C   UNL     1       1.636   5.484  20.652  0.00  0.00    +0.000 A 
BRANCH  23  26
ATOM     26  C   UNL     1       2.505   2.966  17.924  0.00  0.00    +0.000 C 
ATOM     27  F   UNL     1       1.508   2.066  18.151  0.00  0.00    +0.000 F 
ATOM     28  F   UNL     1       2.560   3.125  16.572  0.00  0.00    +0.000 F 
ATOM     29  F   UNL     1       3.662   2.337  18.273  0.00  0.00    +0.000 F 
ENDBRANCH  23  26
ENDBRANCH  18  20
ENDBRANCH  16  18
ENDBRANCH   1  16
TORSDOF 6
ENDMDL
MODEL 9
REMARK VINA RESULT:      -7.3      5.628      8.510
REMARK  Name = 
REMARK  8 active torsions:
REMARK  status: ('A' for Active; 'I' for Inactive)
REMARK    1  A    between atoms: C_1  and  C_2
REMARK    2  A    between atoms: C_5  and  C_6
REMARK    3  A    between atoms: N_7  and  C_8
REMARK    4  A    between atoms: C_13  and  N_14
REMARK    5  A    between atoms: N_14  and  C_15
REMARK    6  A    between atoms: C_15  and  N_17
REMARK    7  A    between atoms: N_17  and  C_18
REMARK    8  A    between atoms: C_21  and  C_22
REMARK                            x       y       z     vdW  Elec       q    Type
REMARK                         _______ _______ _______ _____ _____    ______ ____
ROOT
ATOM      1  N   UNL     1       1.775   5.767  19.146  0.00  0.00    +0.000 N 
ATOM      2  H   UNL     1       1.072   5.655  18.425  0.00  0.00    +0.000 HD
ENDROOT
BRANCH   1   8
ATOM      3  C   UNL     1       3.376   3.871  19.449  0.00  0.00    +0.000 A 
ATOM      4  C   UNL     1       3.684   2.739  20.236  0.00  0.00    +0.000 A 
ATOM      5  C   UNL     1       2.961   2.393  21.381  0.00  0.00    +0.000 A 
ATOM      6  C   UNL     1       1.861   3.144  21.750  0.00  0.00    +0.000 A 
ATOM      7  C   UNL     1       1.480   4.213  20.948  0.00  0.00    +0.000 A 
ATOM      8  C   UNL     1       2.218   4.591  19.796  0.00  0.00    +0.000 A 
BRANCH   3  15
ATOM      9  C   UNL     1       6.222   5.413  19.426  0.00  0.00    +0.000 C 
ATOM     10  C   UNL     1       5.486   4.798  18.286  0.00  0.00    +0.000 A 
ATOM     11  C   UNL     1       5.917   4.896  16.975  0.00  0.00    +0.000 A 
ATOM     12  C   UNL     1       4.946   4.329  16.152  0.00  0.00    +0.000 A 
ATOM     13  C   UNL     1       3.941   3.836  16.962  0.00  0.00    +0.000 A 
ATOM     14  C   UNL     1       2.789   3.027  16.454  0.00  0.00    +0.000 C 
ATOM     15  N   UNL     1       4.241   4.143  18.312  0.00  0.00    +0.000 N 
ENDBRANCH   3  15
ENDBRANCH   1   8
BRANCH   1  16
ATOM     16  C   UNL     1       2.323   7.029  19.305  0.00  0.00    +0.000 C 
ATOM     17  S   UNL     1       2.873   7.860  17.965  0.00  0.00    +0.000 S 
BRANCH  16  18
ATOM     18  N   UNL     1       2.201   7.539  20.584  0.00  0.00    +0.000 N 
ATOM     19  H   UNL     1       2.720   7.026  21.287  0.00  0.00    +0.000 HD
BRANCH  18  20
ATOM     20  C   UNL     1       1.409   8.599  21.058  0.00  0.00    +0.000 A 
ATOM     21  C   UNL     1       0.734   9.392  20.124  0.00  0.00    +0.000 A 
ATOM     22  C   UNL     1      -0.154  10.388  20.546  0.00  0.00    +0.000 A 
ATOM     23  C   UNL     1      -0.415  10.573  21.911  0.00  0.00    +0.000 A 
ATOM     24  C   UNL     1       0.252   9.760  22.841  0.00  0.00    +0.000 A 
ATOM     25  C   UNL     1       1.166   8.790  22.418  0.00  0.00    +0.000 A 
BRANCH  23  26
ATOM     26  C   UNL     1      -1.408  11.603  22.389  0.00  0.00    +0.000 C 
ATOM     27  F   UNL     1      -0.833  12.763  22.813  0.00  0.00    +0.000 F 
ATOM     28  F   UNL     1      -2.292  11.962  21.417  0.00  0.00    +0.000 F 
ATOM     29  F   UNL     1      -2.162  11.158  23.433  0.00  0.00    +0.000 F 
ENDBRANCH  23  26
ENDBRANCH  18  20
ENDBRANCH  16  18
ENDBRANCH   1  16
TORSDOF 6
ENDMDL
