MODEL 1
REMARK VINA RESULT:      -8.4      0.000      0.000
REMARK  Name = 
REMARK  4 active torsions:
REMARK  status: ('A' for Active; 'I' for Inactive)
REMARK    1  A    between atoms: C_1  and  S_2
REMARK    2  A    between atoms: S_2  and  C_5
REMARK    3  A    between atoms: C_8  and  N_9
REMARK    4  A    between atoms: C_10  and  C_12
REMARK                            x       y       z     vdW  Elec       q    Type
REMARK                         _______ _______ _______ _____ _____    ______ ____
ROOT
ATOM      1  C   UNL     1      -0.414  10.398  18.412  0.00  0.00    +0.000 A 
ATOM      2  C   UNL     1      -0.504  11.791  18.629  0.00  0.00    +0.000 A 
ATOM      3  C   UNL     1      -1.757  12.433  18.738  0.00  0.00    +0.000 A 
ATOM      4  C   UNL     1      -2.911  11.709  18.471  0.00  0.00    +0.000 A 
ATOM      5  C   UNL     1      -2.705  10.486  17.843  0.00  0.00    +0.000 A 
ATOM      6  C   UNL     1      -1.545   9.729  17.980  0.00  0.00    +0.000 A 
ATOM      7  S   UNL     1      -3.375  10.659  16.196  0.00  0.00    +0.000 S 
ATOM      8  O   UNL     1      -2.670  11.785  15.605  0.00  0.00    +0.000 OA
ATOM      9  O   UNL     1      -3.317   9.347  15.588  0.00  0.00    +0.000 OA
ATOM     10  N   UNL     1      -4.888  11.098  16.501  0.00  0.00    +0.000 NA
ATOM     11  C   UNL     1      -5.140  11.808  17.559  0.00  0.00    +0.000 C 
ATOM     12  C   UNL     1      -6.564  12.331  17.503  0.00  0.00    +0.000 C 
ATOM     13  C   UNL     1      -6.939  13.337  18.558  0.00  0.00    +0.000 C 
ATOM     14  C   UNL     1      -7.272  12.598  19.827  0.00  0.00    +0.000 C 
ATOM     15  C   UNL     1      -6.073  12.001  20.550  0.00  0.00    +0.000 C 
ATOM     16  C   UNL     1      -4.618  12.140  20.054  0.00  0.00    +0.000 C 
ATOM     17  N   UNL     1      -4.261  12.172  18.598  0.00  0.00    +0.000 N 
ENDROOT
BRANCH   1  19
ATOM     18  N   UNL     1       1.499   8.937  17.851  0.00  0.00    +0.000 N 
ATOM     19  C   UNL     1       0.842   9.697  18.810  0.00  0.00    +0.000 C 
ATOM     20  O   UNL     1       1.156   9.794  19.989  0.00  0.00    +0.000 OA
ATOM     21  H   UNL     1       1.286   9.078  16.883  0.00  0.00    +0.000 HD
BRANCH  18  25
ATOM     22  C   UNL     1       4.354   5.884  18.564  0.00  0.00    +0.000 A 
ATOM     23  C   UNL     1       3.243   5.984  19.390  0.00  0.00    +0.000 A 
ATOM     24  C   UNL     1       2.303   6.994  19.164  0.00  0.00    +0.000 A 
ATOM     25  C   UNL     1       2.463   7.929  18.128  0.00  0.00    +0.000 A 
ATOM     26  C   UNL     1       3.600   7.819  17.311  0.00  0.00    +0.000 A 
ATOM     27  C   UNL     1       4.544   6.799  17.525  0.00  0.00    +0.000 A 
BRANCH  22  29
ATOM     28  C   UNL     1       6.296   4.340  17.287  0.00  0.00    +0.000 C 
ATOM     29  S   UNL     1       5.536   4.605  18.879  0.00  0.00    +0.000 S 
ATOM     30  O   UNL     1       4.811   3.403  19.242  0.00  0.00    +0.000 OA
ATOM     31  O   UNL     1       6.553   5.154  19.763  0.00  0.00    +0.000 OA
ENDBRANCH  22  29
ENDBRANCH  18  25
ENDBRANCH   1  19
TORSDOF 3
ENDMDL
MODEL 2
REMARK VINA RESULT:      -8.2      3.472      4.182
REMARK  Name = 
REMARK  4 active torsions:
REMARK  status: ('A' for Active; 'I' for Inactive)
REMARK    1  A    between atoms: C_1  and  S_2
REMARK    2  A    between atoms: S_2  and  C_5
REMARK    3  A    between atoms: C_8  and  N_9
REMARK    4  A    between atoms: C_10  and  C_12
REMARK                            x       y       z     vdW  Elec       q    Type
REMARK                         _______ _______ _______ _____ _____    ______ ____
ROOT
ATOM      1  C   UNL     1      -0.313  10.117  21.661  0.00  0.00    +0.000 A 
ATOM      2  C   UNL     1      -0.791  10.393  22.962  0.00  0.00    +0.000 A 
ATOM      3  C   UNL     1      -1.671  11.469  23.203  0.00  0.00    +0.000 A 
ATOM      4  C   UNL     1      -1.942  12.362  22.175  0.00  0.00    +0.000 A 
ATOM      5  C   UNL     1      -1.094  12.269  21.077  0.00  0.00    +0.000 A 
ATOM      6  C   UNL     1      -0.446  11.098  20.695  0.00  0.00    +0.000 A 
ATOM      7  S   UNL     1      -0.131  13.773  21.070  0.00  0.00    +0.000 S 
ATOM      8  O   UNL     1       0.532  13.817  22.363  0.00  0.00    +0.000 OA
ATOM      9  O   UNL     1       0.637  13.765  19.843  0.00  0.00    +0.000 OA
ATOM     10  N   UNL     1      -1.276  14.896  21.037  0.00  0.00    +0.000 NA
ATOM     11  C   UNL     1      -2.411  14.661  21.624  0.00  0.00    +0.000 C 
ATOM     12  C   UNL     1      -3.226  15.939  21.705  0.00  0.00    +0.000 C 
ATOM     13  C   UNL     1      -4.478  15.872  22.537  0.00  0.00    +0.000 C 
ATOM     14  C   UNL     1      -5.568  15.240  21.714  0.00  0.00    +0.000 C 
ATOM     15  C   UNL     1      -5.409  13.744  21.487  0.00  0.00    +0.000 C 
ATOM     16  C   UNL     1      -4.243  12.911  22.058  0.00  0.00    +0.000 C 
ATOM     17  N   UNL     1      -2.858  13.463  22.216  0.00  0.00    +0.000 N 
ENDROOT
BRANCH   1  19
ATOM     18  N   UNL     1       1.427   8.586  20.800  0.00  0.00    +0.000 N 
ATOM     19  C   UNL     1       0.163   8.735  21.357  0.00  0.00    +0.000 C 
ATOM     20  O   UNL     1      -0.643   7.838  21.559  0.00  0.00    +0.000 OA
ATOM     21  H   UNL     1       2.080   9.344  20.858  0.00  0.00    +0.000 HD
BRANCH  18  25
ATOM     22  C   UNL     1       2.711   5.150  18.675  0.00  0.00    +0.000 A 
ATOM     23  C   UNL     1       2.252   5.013  19.977  0.00  0.00    +0.000 A 
ATOM     24  C   UNL     1       1.835   6.145  20.685  0.00  0.00    +0.000 A 
ATOM     25  C   UNL     1       1.887   7.428  20.116  0.00  0.00    +0.000 A 
ATOM     26  C   UNL     1       2.367   7.547  18.802  0.00  0.00    +0.000 A 
ATOM     27  C   UNL     1       2.778   6.413  18.080  0.00  0.00    +0.000 A 
BRANCH  22  29
ATOM     28  C   UNL     1       4.565   4.308  16.767  0.00  0.00    +0.000 C 
ATOM     29  S   UNL     1       3.246   3.704  17.805  0.00  0.00    +0.000 S 
ATOM     30  O   UNL     1       2.159   3.267  16.950  0.00  0.00    +0.000 OA
ATOM     31  O   UNL     1       3.835   2.797  18.779  0.00  0.00    +0.000 OA
ENDBRANCH  22  29
ENDBRANCH  18  25
ENDBRANCH   1  19
TORSDOF 3
ENDMDL
MODEL 3
REMARK VINA RESULT:      -8.0      1.269      1.580
REMARK  Name = 
REMARK  4 active torsions:
REMARK  status: ('A' for Active; 'I' for Inactive)
REMARK    1  A    between atoms: C_1  and  S_2
REMARK    2  A    between atoms: S_2  and  C_5
REMARK    3  A    between atoms: C_8  and  N_9
REMARK    4  A    between atoms: C_10  and  C_12
REMARK                            x       y       z     vdW  Elec       q    Type
REMARK                         _______ _______ _______ _____ _____    ______ ____
ROOT
ATOM      1  C   UNL     1       0.112  10.612  18.325  0.00  0.00    +0.000 A 
ATOM      2  C   UNL     1       0.137  12.025  18.335  0.00  0.00    +0.000 A 
ATOM      3  C   UNL     1      -0.917  12.769  18.908  0.00  0.00    +0.000 A 
ATOM      4  C   UNL     1      -2.064  12.106  19.323  0.00  0.00    +0.000 A 
ATOM      5  C   UNL     1      -2.178  10.795  18.874  0.00  0.00    +0.000 A 
ATOM      6  C   UNL     1      -1.091   9.978  18.577  0.00  0.00    +0.000 A 
ATOM      7  S   UNL     1      -3.542  10.788  17.719  0.00  0.00    +0.000 S 
ATOM      8  O   UNL     1      -3.194  11.764  16.699  0.00  0.00    +0.000 OA
ATOM      9  O   UNL     1      -3.779   9.404  17.370  0.00  0.00    +0.000 OA
ATOM     10  N   UNL     1      -4.734  11.379  18.616  0.00  0.00    +0.000 NA
ATOM     11  C   UNL     1      -4.460  12.246  19.543  0.00  0.00    +0.000 C 
ATOM     12  C   UNL     1      -5.742  12.864  20.069  0.00  0.00    +0.000 C 
ATOM     13  C   UNL     1      -5.577  14.032  21.004  0.00  0.00    +0.000 C 
ATOM     14  C   UNL     1      -5.278  13.504  22.382  0.00  0.00    +0.000 C 
ATOM     15  C   UNL     1      -3.881  12.924  22.552  0.00  0.00    +0.000 C 
ATOM     16  C   UNL     1      -2.828  12.881  21.425  0.00  0.00    +0.000 C 
ATOM     17  N   UNL     1      -3.195  12.683  19.985  0.00  0.00    +0.000 N 
ENDROOT
BRANCH   1  19
ATOM     18  N   UNL     1       1.366   8.499  18.051  0.00  0.00    +0.000 N 
ATOM     19  C   UNL     1       1.407   9.880  18.202  0.00  0.00    +0.000 C 
ATOM     20  O   UNL     1       2.417  10.559  18.320  0.00  0.00    +0.000 OA
ATOM     21  H   UNL     1       0.510   8.063  17.766  0.00  0.00    +0.000 HD
BRANCH  18  25
ATOM     22  C   UNL     1       4.593   5.817  18.656  0.00  0.00    +0.000 A 
ATOM     23  C   UNL     1       3.549   5.844  19.570  0.00  0.00    +0.000 A 
ATOM     24  C   UNL     1       2.487   6.732  19.379  0.00  0.00    +0.000 A 
ATOM     25  C   UNL     1       2.456   7.619  18.290  0.00  0.00    +0.000 A 
ATOM     26  C   UNL     1       3.528   7.586  17.383  0.00  0.00    +0.000 A 
ATOM     27  C   UNL     1       4.595   6.688  17.563  0.00  0.00    +0.000 A 
BRANCH  22  29
ATOM     28  C   UNL     1       6.695   4.559  17.320  0.00  0.00    +0.000 C 
ATOM     29  S   UNL     1       5.933   4.693  18.927  0.00  0.00    +0.000 S 
ATOM     30  O   UNL     1       5.372   3.402  19.274  0.00  0.00    +0.000 OA
ATOM     31  O   UNL     1       6.887   5.350  19.810  0.00  0.00    +0.000 OA
ENDBRANCH  22  29
ENDBRANCH  18  25
ENDBRANCH   1  19
TORSDOF 3
ENDMDL
MODEL 4
REMARK VINA RESULT:      -7.9      3.671      4.606
REMARK  Name = 
REMARK  4 active torsions:
REMARK  status: ('A' for Active; 'I' for Inactive)
REMARK    1  A    between atoms: C_1  and  S_2
REMARK    2  A    between atoms: S_2  and  C_5
REMARK    3  A    between atoms: C_8  and  N_9
REMARK    4  A    between atoms: C_10  and  C_12
REMARK                            x       y       z     vdW  Elec       q    Type
REMARK                         _______ _______ _______ _____ _____    ______ ____
ROOT
ATOM      1  C   UNL     1       0.956   9.375  19.137  0.00  0.00    +0.000 A 
ATOM      2  C   UNL     1      -0.392   9.553  18.753  0.00  0.00    +0.000 A 
ATOM      3  C   UNL     1      -1.197  10.545  19.353  0.00  0.00    +0.000 A 
ATOM      4  C   UNL     1      -0.701  11.248  20.443  0.00  0.00    +0.000 A 
ATOM      5  C   UNL     1       0.442  10.707  21.019  0.00  0.00    +0.000 A 
ATOM      6  C   UNL     1       1.379   9.950  20.322  0.00  0.00    +0.000 A 
ATOM      7  S   UNL     1      -0.054  10.110  22.629  0.00  0.00    +0.000 S 
ATOM      8  O   UNL     1      -1.128   9.163  22.379  0.00  0.00    +0.000 OA
ATOM      9  O   UNL     1       1.157   9.695  23.305  0.00  0.00    +0.000 OA
ATOM     10  N   UNL     1      -0.672  11.432  23.294  0.00  0.00    +0.000 NA
ATOM     11  C   UNL     1      -1.262  12.306  22.535  0.00  0.00    +0.000 C 
ATOM     12  C   UNL     1      -2.000  13.320  23.390  0.00  0.00    +0.000 C 
ATOM     13  C   UNL     1      -2.898  14.277  22.653  0.00  0.00    +0.000 C 
ATOM     14  C   UNL     1      -2.053  15.386  22.085  0.00  0.00    +0.000 C 
ATOM     15  C   UNL     1      -1.187  14.984  20.900  0.00  0.00    +0.000 C 
ATOM     16  C   UNL     1      -1.169  13.565  20.295  0.00  0.00    +0.000 C 
ATOM     17  N   UNL     1      -1.343  12.330  21.128  0.00  0.00    +0.000 N 
ENDROOT
BRANCH   1  19
ATOM     18  N   UNL     1       2.277   7.409  18.431  0.00  0.00    +0.000 N 
ATOM     19  C   UNL     1       1.888   8.718  18.175  0.00  0.00    +0.000 C 
ATOM     20  O   UNL     1       2.297   9.423  17.262  0.00  0.00    +0.000 OA
ATOM     21  H   UNL     1       1.745   6.857  19.075  0.00  0.00    +0.000 HD
BRANCH  18  25
ATOM     22  C   UNL     1       5.633   5.552  16.622  0.00  0.00    +0.000 A 
ATOM     23  C   UNL     1       4.605   4.765  17.123  0.00  0.00    +0.000 A 
ATOM     24  C   UNL     1       3.501   5.372  17.728  0.00  0.00    +0.000 A 
ATOM     25  C   UNL     1       3.411   6.767  17.860  0.00  0.00    +0.000 A 
ATOM     26  C   UNL     1       4.466   7.547  17.359  0.00  0.00    +0.000 A 
ATOM     27  C   UNL     1       5.575   6.944  16.740  0.00  0.00    +0.000 A 
BRANCH  22  29
ATOM     28  C   UNL     1       6.288   3.495  14.855  0.00  0.00    +0.000 C 
ATOM     29  S   UNL     1       7.027   4.759  15.873  0.00  0.00    +0.000 S 
ATOM     30  O   UNL     1       7.790   4.111  16.922  0.00  0.00    +0.000 OA
ATOM     31  O   UNL     1       7.656   5.725  14.984  0.00  0.00    +0.000 OA
ENDBRANCH  22  29
ENDBRANCH  18  25
ENDBRANCH   1  19
TORSDOF 3
ENDMDL
MODEL 5
REMARK VINA RESULT:      -7.9      3.837      4.871
REMARK  Name = 
REMARK  4 active torsions:
REMARK  status: ('A' for Active; 'I' for Inactive)
REMARK    1  A    between atoms: C_1  and  S_2
REMARK    2  A    between atoms: S_2  and  C_5
REMARK    3  A    between atoms: C_8  and  N_9
REMARK    4  A    between atoms: C_10  and  C_12
REMARK                            x       y       z     vdW  Elec       q    Type
REMARK                         _______ _______ _______ _____ _____    ______ ____
ROOT
ATOM      1  C   UNL     1      -0.627  12.249  21.771  0.00  0.00    +0.000 A 
ATOM      2  C   UNL     1      -1.300  11.605  22.834  0.00  0.00    +0.000 A 
ATOM      3  C   UNL     1      -2.580  12.029  23.251  0.00  0.00    +0.000 A 
ATOM      4  C   UNL     1      -3.113  13.193  22.713  0.00  0.00    +0.000 A 
ATOM      5  C   UNL     1      -2.208  13.987  22.017  0.00  0.00    +0.000 A 
ATOM      6  C   UNL     1      -1.081  13.492  21.368  0.00  0.00    +0.000 A 
ATOM      7  S   UNL     1      -2.001  15.469  22.994  0.00  0.00    +0.000 S 
ATOM      8  O   UNL     1      -1.551  15.015  24.300  0.00  0.00    +0.000 OA
ATOM      9  O   UNL     1      -1.193  16.373  22.205  0.00  0.00    +0.000 OA
ATOM     10  N   UNL     1      -3.513  15.992  23.120  0.00  0.00    +0.000 NA
ATOM     11  C   UNL     1      -4.482  15.128  23.151  0.00  0.00    +0.000 C 
ATOM     12  C   UNL     1      -5.776  15.816  23.545  0.00  0.00    +0.000 C 
ATOM     13  C   UNL     1      -6.947  14.912  23.821  0.00  0.00    +0.000 C 
ATOM     14  C   UNL     1      -7.568  14.518  22.508  0.00  0.00    +0.000 C 
ATOM     15  C   UNL     1      -6.752  13.529  21.688  0.00  0.00    +0.000 C 
ATOM     16  C   UNL     1      -5.400  12.946  22.149  0.00  0.00    +0.000 C 
ATOM     17  N   UNL     1      -4.417  13.733  22.962  0.00  0.00    +0.000 N 
ENDROOT
BRANCH   1  19
ATOM     18  N   UNL     1       0.042  10.393  20.282  0.00  0.00    +0.000 N 
ATOM     19  C   UNL     1       0.430  11.493  21.037  0.00  0.00    +0.000 C 
ATOM     20  O   UNL     1       1.580  11.867  21.223  0.00  0.00    +0.000 OA
ATOM     21  H   UNL     1      -0.921  10.287  20.030  0.00  0.00    +0.000 HD
BRANCH  18  25
ATOM     22  C   UNL     1       2.554   7.282  18.870  0.00  0.00    +0.000 A 
ATOM     23  C   UNL     1       2.102   7.251  20.182  0.00  0.00    +0.000 A 
ATOM     24  C   UNL     1       1.281   8.279  20.654  0.00  0.00    +0.000 A 
ATOM     25  C   UNL     1       0.913   9.360  19.837  0.00  0.00    +0.000 A 
ATOM     26  C   UNL     1       1.390   9.381  18.517  0.00  0.00    +0.000 A 
ATOM     27  C   UNL     1       2.208   8.346  18.031  0.00  0.00    +0.000 A 
BRANCH  22  29
ATOM     28  C   UNL     1       4.629   6.773  17.076  0.00  0.00    +0.000 C 
ATOM     29  S   UNL     1       3.604   5.977  18.299  0.00  0.00    +0.000 S 
ATOM     30  O   UNL     1       2.774   4.995  17.628  0.00  0.00    +0.000 OA
ATOM     31  O   UNL     1       4.465   5.589  19.407  0.00  0.00    +0.000 OA
ENDBRANCH  22  29
ENDBRANCH  18  25
ENDBRANCH   1  19
TORSDOF 3
ENDMDL
MODEL 6
REMARK VINA RESULT:      -7.6      4.286      5.072
REMARK  Name = 
REMARK  4 active torsions:
REMARK  status: ('A' for Active; 'I' for Inactive)
REMARK    1  A    between atoms: C_1  and  S_2
REMARK    2  A    between atoms: S_2  and  C_5
REMARK    3  A    between atoms: C_8  and  N_9
REMARK    4  A    between atoms: C_10  and  C_12
REMARK                            x       y       z     vdW  Elec       q    Type
REMARK                         _______ _______ _______ _____ _____    ______ ____
ROOT
ATOM      1  C   UNL     1      -1.236  11.870  21.617  0.00  0.00    +0.000 A 
ATOM      2  C   UNL     1      -1.741  12.595  20.514  0.00  0.00    +0.000 A 
ATOM      3  C   UNL     1      -2.458  13.797  20.698  0.00  0.00    +0.000 A 
ATOM      4  C   UNL     1      -2.806  14.185  21.986  0.00  0.00    +0.000 A 
ATOM      5  C   UNL     1      -2.657  13.200  22.956  0.00  0.00    +0.000 A 
ATOM      6  C   UNL     1      -1.730  12.165  22.875  0.00  0.00    +0.000 A 
ATOM      7  S   UNL     1      -4.310  12.774  23.483  0.00  0.00    +0.000 S 
ATOM      8  O   UNL     1      -5.007  12.356  22.278  0.00  0.00    +0.000 OA
ATOM      9  O   UNL     1      -4.165  11.873  24.606  0.00  0.00    +0.000 OA
ATOM     10  N   UNL     1      -4.884  14.199  23.945  0.00  0.00    +0.000 NA
ATOM     11  C   UNL     1      -4.476  15.273  23.339  0.00  0.00    +0.000 C 
ATOM     12  C   UNL     1      -5.339  16.455  23.744  0.00  0.00    +0.000 C 
ATOM     13  C   UNL     1      -5.119  17.728  22.973  0.00  0.00    +0.000 C 
ATOM     14  C   UNL     1      -3.912  18.428  23.537  0.00  0.00    +0.000 C 
ATOM     15  C   UNL     1      -2.581  17.771  23.206  0.00  0.00    +0.000 C 
ATOM     16  C   UNL     1      -2.445  16.497  22.346  0.00  0.00    +0.000 C 
ATOM     17  N   UNL     1      -3.465  15.398  22.366  0.00  0.00    +0.000 N 
ENDROOT
BRANCH   1  19
ATOM     18  N   UNL     1       0.252  10.630  20.081  0.00  0.00    +0.000 N 
ATOM     19  C   UNL     1      -0.089  10.941  21.391  0.00  0.00    +0.000 C 
ATOM     20  O   UNL     1       0.418  10.465  22.397  0.00  0.00    +0.000 OA
ATOM     21  H   UNL     1      -0.080  11.213  19.336  0.00  0.00    +0.000 HD
BRANCH  18  25
ATOM     22  C   UNL     1       2.510   7.273  18.813  0.00  0.00    +0.000 A 
ATOM     23  C   UNL     1       2.034   7.321  20.115  0.00  0.00    +0.000 A 
ATOM     24  C   UNL     1       1.296   8.430  20.540  0.00  0.00    +0.000 A 
ATOM     25  C   UNL     1       1.037   9.513  19.685  0.00  0.00    +0.000 A 
ATOM     26  C   UNL     1       1.539   9.452  18.375  0.00  0.00    +0.000 A 
ATOM     27  C   UNL     1       2.273   8.336  17.936  0.00  0.00    +0.000 A 
BRANCH  22  29
ATOM     28  C   UNL     1       4.529   6.521  17.039  0.00  0.00    +0.000 C 
ATOM     29  S   UNL     1       3.454   5.865  18.302  0.00  0.00    +0.000 S 
ATOM     30  O   UNL     1       2.547   4.919  17.683  0.00  0.00    +0.000 OA
ATOM     31  O   UNL     1       4.291   5.467  19.425  0.00  0.00    +0.000 OA
ENDBRANCH  22  29
ENDBRANCH  18  25
ENDBRANCH   1  19
TORSDOF 3
ENDMDL
MODEL 7
REMARK VINA RESULT:      -7.6      3.794      4.845
REMARK  Name = 
REMARK  4 active torsions:
REMARK  status: ('A' for Active; 'I' for Inactive)
REMARK    1  A    between atoms: C_1  and  S_2
REMARK    2  A    between atoms: S_2  and  C_5
REMARK    3  A    between atoms: C_8  and  N_9
REMARK    4  A    between atoms: C_10  and  C_12
REMARK                            x       y       z     vdW  Elec       q    Type
REMARK                         _______ _______ _______ _____ _____    ______ ____
ROOT
ATOM      1  C   UNL     1      -0.741  12.412  21.615  0.00  0.00    +0.000 A 
ATOM      2  C   UNL     1      -1.300  11.909  22.812  0.00  0.00    +0.000 A 
ATOM      3  C   UNL     1      -2.581  12.313  23.244  0.00  0.00    +0.000 A 
ATOM      4  C   UNL     1      -3.231  13.336  22.566  0.00  0.00    +0.000 A 
ATOM      5  C   UNL     1      -2.430  14.061  21.691  0.00  0.00    +0.000 A 
ATOM      6  C   UNL     1      -1.310  13.540  21.051  0.00  0.00    +0.000 A 
ATOM      7  S   UNL     1      -2.277  15.694  22.401  0.00  0.00    +0.000 S 
ATOM      8  O   UNL     1      -1.718  15.490  23.727  0.00  0.00    +0.000 OA
ATOM      9  O   UNL     1      -1.586  16.505  21.422  0.00  0.00    +0.000 OA
ATOM     10  N   UNL     1      -3.813  16.133  22.548  0.00  0.00    +0.000 NA
ATOM     11  C   UNL     1      -4.712  15.225  22.785  0.00  0.00    +0.000 C 
ATOM     12  C   UNL     1      -6.028  15.884  23.154  0.00  0.00    +0.000 C 
ATOM     13  C   UNL     1      -7.110  14.965  23.652  0.00  0.00    +0.000 C 
ATOM     14  C   UNL     1      -7.776  14.321  22.466  0.00  0.00    +0.000 C 
ATOM     15  C   UNL     1      -6.938  13.266  21.760  0.00  0.00    +0.000 C 
ATOM     16  C   UNL     1      -5.522  12.854  22.211  0.00  0.00    +0.000 C 
ATOM     17  N   UNL     1      -4.554  13.825  22.817  0.00  0.00    +0.000 N 
ENDROOT
BRANCH   1  19
ATOM     18  N   UNL     1      -0.067  10.617  20.054  0.00  0.00    +0.000 N 
ATOM     19  C   UNL     1       0.325  11.614  20.939  0.00  0.00    +0.000 C 
ATOM     20  O   UNL     1       1.473  11.861  21.281  0.00  0.00    +0.000 OA
ATOM     21  H   UNL     1      -1.000  10.624  19.690  0.00  0.00    +0.000 HD
BRANCH  18  25
ATOM     22  C   UNL     1       2.472   7.445  18.841  0.00  0.00    +0.000 A 
ATOM     23  C   UNL     1       2.091   8.405  17.914  0.00  0.00    +0.000 A 
ATOM     24  C   UNL     1       1.247   9.448  18.308  0.00  0.00    +0.000 A 
ATOM     25  C   UNL     1       0.756   9.541  19.620  0.00  0.00    +0.000 A 
ATOM     26  C   UNL     1       1.142   8.554  20.540  0.00  0.00    +0.000 A 
ATOM     27  C   UNL     1       1.999   7.507  20.155  0.00  0.00    +0.000 A 
BRANCH  22  29
ATOM     28  C   UNL     1       2.389   4.830  17.870  0.00  0.00    +0.000 C 
ATOM     29  S   UNL     1       3.530   6.127  18.316  0.00  0.00    +0.000 S 
ATOM     30  O   UNL     1       4.298   5.684  19.463  0.00  0.00    +0.000 OA
ATOM     31  O   UNL     1       4.198   6.559  17.097  0.00  0.00    +0.000 OA
ENDBRANCH  22  29
ENDBRANCH  18  25
ENDBRANCH   1  19
TORSDOF 3
ENDMDL
MODEL 8
REMARK VINA RESULT:      -7.6      4.419      5.255
REMARK  Name = 
REMARK  4 active torsions:
REMARK  status: ('A' for Active; 'I' for Inactive)
REMARK    1  A    between atoms: C_1  and  S_2
REMARK    2  A    between atoms: S_2  and  C_5
REMARK    3  A    between atoms: C_8  and  N_9
REMARK    4  A    between atoms: C_10  and  C_12
REMARK                            x       y       z     vdW  Elec       q    Type
REMARK                         _______ _______ _______ _____ _____    ______ ____
ROOT
ATOM      1  C   UNL     1      -0.813  12.439  21.189  0.00  0.00    +0.000 A 
ATOM      2  C   UNL     1      -1.374  13.390  20.307  0.00  0.00    +0.000 A 
ATOM      3  C   UNL     1      -2.104  14.496  20.794  0.00  0.00    +0.000 A 
ATOM      4  C   UNL     1      -2.406  14.561  22.148  0.00  0.00    +0.000 A 
ATOM      5  C   UNL     1      -2.201  13.380  22.852  0.00  0.00    +0.000 A 
ATOM      6  C   UNL     1      -1.261  12.418  22.497  0.00  0.00    +0.000 A 
ATOM      7  S   UNL     1      -3.824  12.800  23.322  0.00  0.00    +0.000 S 
ATOM      8  O   UNL     1      -4.562  12.658  22.078  0.00  0.00    +0.000 OA
ATOM      9  O   UNL     1      -3.618  11.664  24.195  0.00  0.00    +0.000 OA
ATOM     10  N   UNL     1      -4.404  14.060  24.128  0.00  0.00    +0.000 NA
ATOM     11  C   UNL     1      -4.039  15.257  23.778  0.00  0.00    +0.000 C 
ATOM     12  C   UNL     1      -4.905  16.287  24.480  0.00  0.00    +0.000 C 
ATOM     13  C   UNL     1      -4.738  17.711  24.023  0.00  0.00    +0.000 C 
ATOM     14  C   UNL     1      -3.522  18.291  24.695  0.00  0.00    +0.000 C 
ATOM     15  C   UNL     1      -2.193  17.765  24.171  0.00  0.00    +0.000 C 
ATOM     16  C   UNL     1      -2.071  16.732  23.031  0.00  0.00    +0.000 C 
ATOM     17  N   UNL     1      -3.070  15.634  22.826  0.00  0.00    +0.000 N 
ENDROOT
BRANCH   1  19
ATOM     18  N   UNL     1       0.100  10.666  19.729  0.00  0.00    +0.000 N 
ATOM     19  C   UNL     1       0.339  11.620  20.710  0.00  0.00    +0.000 C 
ATOM     20  O   UNL     1       1.403  11.810  21.283  0.00  0.00    +0.000 OA
ATOM     21  H   UNL     1      -0.741  10.720  19.187  0.00  0.00    +0.000 HD
BRANCH  18  25
ATOM     22  C   UNL     1       2.577   7.369  18.742  0.00  0.00    +0.000 A 
ATOM     23  C   UNL     1       2.024   7.449  20.012  0.00  0.00    +0.000 A 
ATOM     24  C   UNL     1       1.213   8.539  20.345  0.00  0.00    +0.000 A 
ATOM     25  C   UNL     1       0.957   9.571  19.428  0.00  0.00    +0.000 A 
ATOM     26  C   UNL     1       1.535   9.479  18.152  0.00  0.00    +0.000 A 
ATOM     27  C   UNL     1       2.343   8.381  17.807  0.00  0.00    +0.000 A 
BRANCH  22  29
ATOM     28  C   UNL     1       2.445   4.690  17.973  0.00  0.00    +0.000 C 
ATOM     29  S   UNL     1       3.610   5.987  18.349  0.00  0.00    +0.000 S 
ATOM     30  O   UNL     1       4.335   5.614  19.548  0.00  0.00    +0.000 OA
ATOM     31  O   UNL     1       4.322   6.306  17.120  0.00  0.00    +0.000 OA
ENDBRANCH  22  29
ENDBRANCH  18  25
ENDBRANCH   1  19
TORSDOF 3
ENDMDL
MODEL 9
REMARK VINA RESULT:      -7.6      4.689      5.546
REMARK  Name = 
REMARK  4 active torsions:
REMARK  status: ('A' for Active; 'I' for Inactive)
REMARK    1  A    between atoms: C_1  and  S_2
REMARK    2  A    between atoms: S_2  and  C_5
REMARK    3  A    between atoms: C_8  and  N_9
REMARK    4  A    between atoms: C_10  and  C_12
REMARK                            x       y       z     vdW  Elec       q    Type
REMARK                         _______ _______ _______ _____ _____    ______ ____
ROOT
ATOM      1  C   UNL     1      -0.637  12.774  21.251  0.00  0.00    +0.000 A 
ATOM      2  C   UNL     1      -1.036  13.900  20.496  0.00  0.00    +0.000 A 
ATOM      3  C   UNL     1      -1.664  15.005  21.109  0.00  0.00    +0.000 A 
ATOM      4  C   UNL     1      -2.035  14.915  22.445  0.00  0.00    +0.000 A 
ATOM      5  C   UNL     1      -2.005  13.631  22.977  0.00  0.00    +0.000 A 
ATOM      6  C   UNL     1      -1.159  12.623  22.523  0.00  0.00    +0.000 A 
ATOM      7  S   UNL     1      -3.707  13.188  23.289  0.00  0.00    +0.000 S 
ATOM      8  O   UNL     1      -4.383  13.311  22.009  0.00  0.00    +0.000 OA
ATOM      9  O   UNL     1      -3.681  11.924  23.994  0.00  0.00    +0.000 OA
ATOM     10  N   UNL     1      -4.187  14.383  24.246  0.00  0.00    +0.000 NA
ATOM     11  C   UNL     1      -3.671  15.565  24.091  0.00  0.00    +0.000 C 
ATOM     12  C   UNL     1      -4.454  16.582  24.900  0.00  0.00    +0.000 C 
ATOM     13  C   UNL     1      -4.103  18.026  24.664  0.00  0.00    +0.000 C 
ATOM     14  C   UNL     1      -2.870  18.356  25.462  0.00  0.00    +0.000 C 
ATOM     15  C   UNL     1      -1.581  17.754  24.921  0.00  0.00    +0.000 C 
ATOM     16  C   UNL     1      -1.510  16.885  23.649  0.00  0.00    +0.000 C 
ATOM     17  N   UNL     1      -2.612  15.953  23.245  0.00  0.00    +0.000 N 
ENDROOT
BRANCH   1  19
ATOM     18  N   UNL     1       0.077  10.873  19.842  0.00  0.00    +0.000 N 
ATOM     19  C   UNL     1       0.441  11.898  20.705  0.00  0.00    +0.000 C 
ATOM     20  O   UNL     1       1.569  12.115  21.128  0.00  0.00    +0.000 OA
ATOM     21  H   UNL     1      -0.823  10.899  19.403  0.00  0.00    +0.000 HD
BRANCH  18  25
ATOM     22  C   UNL     1       2.394   7.469  18.829  0.00  0.00    +0.000 A 
ATOM     23  C   UNL     1       1.916   7.607  20.125  0.00  0.00    +0.000 A 
ATOM     24  C   UNL     1       1.159   8.732  20.466  0.00  0.00    +0.000 A 
ATOM     25  C   UNL     1       0.882   9.743  19.531  0.00  0.00    +0.000 A 
ATOM     26  C   UNL     1       1.385   9.592  18.228  0.00  0.00    +0.000 A 
ATOM     27  C   UNL     1       2.138   8.458  17.875  0.00  0.00    +0.000 A 
BRANCH  22  29
ATOM     28  C   UNL     1       4.563   6.671  17.266  0.00  0.00    +0.000 C 
ATOM     29  S   UNL     1       3.361   6.043  18.425  0.00  0.00    +0.000 S 
ATOM     30  O   UNL     1       2.505   5.103  17.729  0.00  0.00    +0.000 OA
ATOM     31  O   UNL     1       4.080   5.645  19.627  0.00  0.00    +0.000 OA
ENDBRANCH  22  29
ENDBRANCH  18  25
ENDBRANCH   1  19
TORSDOF 3
ENDMDL
