MODEL 1
REMARK VINA RESULT:      -5.1      0.000      0.000
REMARK  Name = 
REMARK  19 active torsions:
REMARK  status: ('A' for Active; 'I' for Inactive)
REMARK    1  A    between atoms: C_1  and  C_2
REMARK    2  A    between atoms: C_2  and  C_3
REMARK    3  A    between atoms: C_3  and  C_4
REMARK    4  A    between atoms: C_4  and  C_5
REMARK    5  A    between atoms: C_5  and  C_6
REMARK    6  A    between atoms: C_6  and  C_7
REMARK    7  A    between atoms: C_7  and  C_8
REMARK    8  A    between atoms: C_8  and  C_9
REMARK    9  A    between atoms: C_9  and  C_10
REMARK   10  A    between atoms: C_10  and  C_11
REMARK   11  A    between atoms: C_11  and  C_12
REMARK   12  A    between atoms: C_12  and  C_13
REMARK   13  A    between atoms: C_13  and  C_14
REMARK   14  A    between atoms: C_14  and  C_15
REMARK   15  A    between atoms: C_15  and  C_16
REMARK   16  A    between atoms: N_18  and  O_19
REMARK   17  A    between atoms: N_18  and  C_20
REMARK   18  A    between atoms: C_20  and  C_21
REMARK   19  A    between atoms: C_21  and  O_22
REMARK                            x       y       z     vdW  Elec       q    Type
REMARK                         _______ _______ _______ _____ _____    ______ ____
ROOT
ATOM      1  C   UNL     1       4.620   6.677  17.849  0.00  0.00    +0.000 C 
ENDROOT
BRANCH   1   2
ATOM      2  C   UNL     1       3.852   5.395  17.561  0.00  0.00    +0.000 C 
BRANCH   2   3
ATOM      3  C   UNL     1       2.372   5.594  17.849  0.00  0.00    +0.000 C 
BRANCH   3   4
ATOM      4  C   UNL     1       1.591   4.346  17.476  0.00  0.00    +0.000 C 
BRANCH   4   5
ATOM      5  C   UNL     1       2.541   3.235  17.062  0.00  0.00    +0.000 C 
BRANCH   5   6
ATOM      6  C   UNL     1       2.410   2.053  18.008  0.00  0.00    +0.000 C 
BRANCH   6   7
ATOM      7  C   UNL     1       3.786   1.503  18.351  0.00  0.00    +0.000 C 
BRANCH   7   8
ATOM      8  C   UNL     1       4.402   2.307  19.487  0.00  0.00    +0.000 C 
BRANCH   8   9
ATOM      9  C   UNL     1       3.378   2.518  20.597  0.00  0.00    +0.000 C 
BRANCH   9  10
ATOM     10  C   UNL     1       3.207   4.004  20.882  0.00  0.00    +0.000 C 
BRANCH  10  12
ATOM     11  C   UNL     1       0.860   3.142  20.930  0.00  0.00    +0.000 C 
ATOM     12  C   UNL     1       1.749   4.342  21.163  0.00  0.00    +0.000 C 
ENDBRANCH  10  12
ENDBRANCH   9  10
ENDBRANCH   8   9
ENDBRANCH   7   8
ENDBRANCH   6   7
ENDBRANCH   5   6
ENDBRANCH   4   5
ENDBRANCH   3   4
ENDBRANCH   2   3
ENDBRANCH   1   2
BRANCH   1  13
ATOM     13  C   UNL     1       6.120   6.419  17.814  0.00  0.00    +0.000 C 
BRANCH  13  14
ATOM     14  C   UNL     1       6.410   4.934  18.009  0.00  0.00    +0.000 C 
BRANCH  14  15
ATOM     15  C   UNL     1       7.494   4.473  17.046  0.00  0.00    +0.000 C 
BRANCH  15  16
ATOM     16  C   UNL     1       7.058   4.711  15.612  0.00  0.00    +0.000 C 
ATOM     17  O   UNL     1       7.523   5.666  14.993  0.00  0.00    +0.000 OA
ATOM     18  N   UNL     1       6.141   3.868  15.042  0.00  0.00    +0.000 N 
BRANCH  18  19
ATOM     19  O   UNL     1       5.671   2.668  15.595  0.00  0.00    +0.000 OA
ATOM     20  H   UNL     1       6.423   2.222  16.006  0.00  0.00    +0.000 HD
ENDBRANCH  18  19
BRANCH  18  21
ATOM     21  C   UNL     1       5.656   4.053  13.674  0.00  0.00    +0.000 C 
BRANCH  21  22
ATOM     22  C   UNL     1       6.390   3.179  12.655  0.00  0.00    +0.000 C 
BRANCH  22  23
ATOM     23  O   UNL     1       5.482   2.517  11.780  0.00  0.00    +0.000 OA
ATOM     24  H   UNL     1       5.141   1.728  12.237  0.00  0.00    +0.000 HD
ENDBRANCH  22  23
ENDBRANCH  21  22
ENDBRANCH  18  21
ENDBRANCH  15  16
ENDBRANCH  14  15
ENDBRANCH  13  14
ENDBRANCH   1  13
TORSDOF 18
ENDMDL
MODEL 2
REMARK VINA RESULT:      -5.0      3.223      5.211
REMARK  Name = 
REMARK  19 active torsions:
REMARK  status: ('A' for Active; 'I' for Inactive)
REMARK    1  A    between atoms: C_1  and  C_2
REMARK    2  A    between atoms: C_2  and  C_3
REMARK    3  A    between atoms: C_3  and  C_4
REMARK    4  A    between atoms: C_4  and  C_5
REMARK    5  A    between atoms: C_5  and  C_6
REMARK    6  A    between atoms: C_6  and  C_7
REMARK    7  A    between atoms: C_7  and  C_8
REMARK    8  A    between atoms: C_8  and  C_9
REMARK    9  A    between atoms: C_9  and  C_10
REMARK   10  A    between atoms: C_10  and  C_11
REMARK   11  A    between atoms: C_11  and  C_12
REMARK   12  A    between atoms: C_12  and  C_13
REMARK   13  A    between atoms: C_13  and  C_14
REMARK   14  A    between atoms: C_14  and  C_15
REMARK   15  A    between atoms: C_15  and  C_16
REMARK   16  A    between atoms: N_18  and  O_19
REMARK   17  A    between atoms: N_18  and  C_20
REMARK   18  A    between atoms: C_20  and  C_21
REMARK   19  A    between atoms: C_21  and  O_22
REMARK                            x       y       z     vdW  Elec       q    Type
REMARK                         _______ _______ _______ _____ _____    ______ ____
ROOT
ATOM      1  C   UNL     1       5.368   5.306  18.783  0.00  0.00    +0.000 C 
ENDROOT
BRANCH   1   2
ATOM      2  C   UNL     1       4.391   5.594  17.652  0.00  0.00    +0.000 C 
BRANCH   2   3
ATOM      3  C   UNL     1       3.950   7.048  17.698  0.00  0.00    +0.000 C 
BRANCH   3   4
ATOM      4  C   UNL     1       2.462   7.138  17.994  0.00  0.00    +0.000 C 
BRANCH   4   5
ATOM      5  C   UNL     1       2.000   5.899  18.742  0.00  0.00    +0.000 C 
BRANCH   5   6
ATOM      6  C   UNL     1       2.061   6.136  20.241  0.00  0.00    +0.000 C 
BRANCH   6   7
ATOM      7  C   UNL     1       2.134   4.808  20.979  0.00  0.00    +0.000 C 
BRANCH   7   8
ATOM      8  C   UNL     1       1.054   3.864  20.465  0.00  0.00    +0.000 C 
BRANCH   8   9
ATOM      9  C   UNL     1       1.637   2.475  20.234  0.00  0.00    +0.000 C 
BRANCH   9  10
ATOM     10  C   UNL     1       3.145   2.560  20.039  0.00  0.00    +0.000 C 
BRANCH  10  12
ATOM     11  C   UNL     1       2.577   2.321  17.615  0.00  0.00    +0.000 C 
ATOM     12  C   UNL     1       3.559   1.954  18.705  0.00  0.00    +0.000 C 
ENDBRANCH  10  12
ENDBRANCH   9  10
ENDBRANCH   8   9
ENDBRANCH   7   8
ENDBRANCH   6   7
ENDBRANCH   5   6
ENDBRANCH   4   5
ENDBRANCH   3   4
ENDBRANCH   2   3
ENDBRANCH   1   2
BRANCH   1  13
ATOM     13  C   UNL     1       6.564   4.519  18.268  0.00  0.00    +0.000 C 
BRANCH  13  14
ATOM     14  C   UNL     1       7.580   5.455  17.623  0.00  0.00    +0.000 C 
BRANCH  14  15
ATOM     15  C   UNL     1       7.925   6.598  18.566  0.00  0.00    +0.000 C 
BRANCH  15  16
ATOM     16  C   UNL     1       7.808   7.929  17.843  0.00  0.00    +0.000 C 
ATOM     17  O   UNL     1       7.140   7.997  16.813  0.00  0.00    +0.000 OA
ATOM     18  N   UNL     1       8.466   9.022  18.343  0.00  0.00    +0.000 N 
BRANCH  18  19
ATOM     19  O   UNL     1       9.118   9.095  19.582  0.00  0.00    +0.000 OA
ATOM     20  H   UNL     1       8.840   8.331  20.104  0.00  0.00    +0.000 HD
ENDBRANCH  18  19
BRANCH  18  21
ATOM     21  C   UNL     1       8.419  10.328  17.685  0.00  0.00    +0.000 C 
BRANCH  21  22
ATOM     22  C   UNL     1       9.538  11.267  18.138  0.00  0.00    +0.000 C 
BRANCH  22  23
ATOM     23  O   UNL     1       9.232  11.885  19.384  0.00  0.00    +0.000 OA
ATOM     24  H   UNL     1       8.778  11.230  19.944  0.00  0.00    +0.000 HD
ENDBRANCH  22  23
ENDBRANCH  21  22
ENDBRANCH  18  21
ENDBRANCH  15  16
ENDBRANCH  14  15
ENDBRANCH  13  14
ENDBRANCH   1  13
TORSDOF 18
ENDMDL
MODEL 3
REMARK VINA RESULT:      -4.9      4.465      6.778
REMARK  Name = 
REMARK  19 active torsions:
REMARK  status: ('A' for Active; 'I' for Inactive)
REMARK    1  A    between atoms: C_1  and  C_2
REMARK    2  A    between atoms: C_2  and  C_3
REMARK    3  A    between atoms: C_3  and  C_4
REMARK    4  A    between atoms: C_4  and  C_5
REMARK    5  A    between atoms: C_5  and  C_6
REMARK    6  A    between atoms: C_6  and  C_7
REMARK    7  A    between atoms: C_7  and  C_8
REMARK    8  A    between atoms: C_8  and  C_9
REMARK    9  A    between atoms: C_9  and  C_10
REMARK   10  A    between atoms: C_10  and  C_11
REMARK   11  A    between atoms: C_11  and  C_12
REMARK   12  A    between atoms: C_12  and  C_13
REMARK   13  A    between atoms: C_13  and  C_14
REMARK   14  A    between atoms: C_14  and  C_15
REMARK   15  A    between atoms: C_15  and  C_16
REMARK   16  A    between atoms: N_18  and  O_19
REMARK   17  A    between atoms: N_18  and  C_20
REMARK   18  A    between atoms: C_20  and  C_21
REMARK   19  A    between atoms: C_21  and  O_22
REMARK                            x       y       z     vdW  Elec       q    Type
REMARK                         _______ _______ _______ _____ _____    ______ ____
ROOT
ATOM      1  C   UNL     1       2.197   4.242  21.141  0.00  0.00    +0.000 C 
ENDROOT
BRANCH   1   2
ATOM      2  C   UNL     1       1.518   2.995  20.592  0.00  0.00    +0.000 C 
BRANCH   2   3
ATOM      3  C   UNL     1       1.191   3.181  19.119  0.00  0.00    +0.000 C 
BRANCH   3   4
ATOM      4  C   UNL     1       1.775   2.042  18.302  0.00  0.00    +0.000 C 
BRANCH   4   5
ATOM      5  C   UNL     1       3.213   2.352  17.920  0.00  0.00    +0.000 C 
BRANCH   5   6
ATOM      6  C   UNL     1       3.300   3.720  17.266  0.00  0.00    +0.000 C 
BRANCH   6   7
ATOM      7  C   UNL     1       4.733   4.229  17.306  0.00  0.00    +0.000 C 
BRANCH   7   8
ATOM      8  C   UNL     1       5.318   4.036  18.699  0.00  0.00    +0.000 C 
BRANCH   8   9
ATOM      9  C   UNL     1       6.013   5.312  19.158  0.00  0.00    +0.000 C 
BRANCH   9  10
ATOM     10  C   UNL     1       7.404   5.406  18.547  0.00  0.00    +0.000 C 
BRANCH  10  12
ATOM     11  C   UNL     1       6.712   7.453  17.286  0.00  0.00    +0.000 C 
ATOM     12  C   UNL     1       7.754   6.847  18.200  0.00  0.00    +0.000 C 
ENDBRANCH  10  12
ENDBRANCH   9  10
ENDBRANCH   8   9
ENDBRANCH   7   8
ENDBRANCH   6   7
ENDBRANCH   5   6
ENDBRANCH   4   5
ENDBRANCH   3   4
ENDBRANCH   2   3
ENDBRANCH   1   2
BRANCH   1  13
ATOM     13  C   UNL     1       1.632   5.491  20.480  0.00  0.00    +0.000 C 
BRANCH  13  14
ATOM     14  C   UNL     1       2.757   6.346  19.906  0.00  0.00    +0.000 C 
BRANCH  14  15
ATOM     15  C   UNL     1       2.220   7.283  18.835  0.00  0.00    +0.000 C 
BRANCH  15  16
ATOM     16  C   UNL     1       1.683   8.553  19.469  0.00  0.00    +0.000 C 
ATOM     17  O   UNL     1       1.472   8.578  20.681  0.00  0.00    +0.000 OA
ATOM     18  N   UNL     1       1.427   9.641  18.677  0.00  0.00    +0.000 N 
BRANCH  18  19
ATOM     19  O   UNL     1       1.777   9.776  17.325  0.00  0.00    +0.000 OA
ATOM     20  H   UNL     1       1.072  10.273  16.889  0.00  0.00    +0.000 HD
ENDBRANCH  18  19
BRANCH  18  21
ATOM     21  C   UNL     1       0.884  10.889  19.216  0.00  0.00    +0.000 C 
BRANCH  21  22
ATOM     22  C   UNL     1      -0.402  11.334  18.518  0.00  0.00    +0.000 C 
BRANCH  22  23
ATOM     23  O   UNL     1      -1.535  10.621  19.002  0.00  0.00    +0.000 OA
ATOM     24  H   UNL     1      -2.324  11.175  18.868  0.00  0.00    +0.000 HD
ENDBRANCH  22  23
ENDBRANCH  21  22
ENDBRANCH  18  21
ENDBRANCH  15  16
ENDBRANCH  14  15
ENDBRANCH  13  14
ENDBRANCH   1  13
TORSDOF 18
ENDMDL
MODEL 4
REMARK VINA RESULT:      -4.8      4.803      6.935
REMARK  Name = 
REMARK  19 active torsions:
REMARK  status: ('A' for Active; 'I' for Inactive)
REMARK    1  A    between atoms: C_1  and  C_2
REMARK    2  A    between atoms: C_2  and  C_3
REMARK    3  A    between atoms: C_3  and  C_4
REMARK    4  A    between atoms: C_4  and  C_5
REMARK    5  A    between atoms: C_5  and  C_6
REMARK    6  A    between atoms: C_6  and  C_7
REMARK    7  A    between atoms: C_7  and  C_8
REMARK    8  A    between atoms: C_8  and  C_9
REMARK    9  A    between atoms: C_9  and  C_10
REMARK   10  A    between atoms: C_10  and  C_11
REMARK   11  A    between atoms: C_11  and  C_12
REMARK   12  A    between atoms: C_12  and  C_13
REMARK   13  A    between atoms: C_13  and  C_14
REMARK   14  A    between atoms: C_14  and  C_15
REMARK   15  A    between atoms: C_15  and  C_16
REMARK   16  A    between atoms: N_18  and  O_19
REMARK   17  A    between atoms: N_18  and  C_20
REMARK   18  A    between atoms: C_20  and  C_21
REMARK   19  A    between atoms: C_21  and  O_22
REMARK                            x       y       z     vdW  Elec       q    Type
REMARK                         _______ _______ _______ _____ _____    ______ ____
ROOT
ATOM      1  C   UNL     1       1.905   5.813  20.496  0.00  0.00    +0.000 C 
ENDROOT
BRANCH   1   2
ATOM      2  C   UNL     1       1.441   4.365  20.548  0.00  0.00    +0.000 C 
BRANCH   2   3
ATOM      3  C   UNL     1       1.170   3.849  19.143  0.00  0.00    +0.000 C 
BRANCH   3   4
ATOM      4  C   UNL     1       1.653   2.415  19.007  0.00  0.00    +0.000 C 
BRANCH   4   5
ATOM      5  C   UNL     1       2.328   2.213  17.660  0.00  0.00    +0.000 C 
BRANCH   5   6
ATOM      6  C   UNL     1       3.794   2.602  17.744  0.00  0.00    +0.000 C 
BRANCH   6   7
ATOM      7  C   UNL     1       4.076   3.782  16.827  0.00  0.00    +0.000 C 
BRANCH   7   8
ATOM      8  C   UNL     1       5.387   4.450  17.222  0.00  0.00    +0.000 C 
BRANCH   8   9
ATOM      9  C   UNL     1       5.632   5.680  16.356  0.00  0.00    +0.000 C 
BRANCH   9  10
ATOM     10  C   UNL     1       5.922   6.893  17.229  0.00  0.00    +0.000 C 
BRANCH  10  12
ATOM     11  C   UNL     1       7.894   6.481  18.711  0.00  0.00    +0.000 C 
ATOM     12  C   UNL     1       7.421   7.090  17.411  0.00  0.00    +0.000 C 
ENDBRANCH  10  12
ENDBRANCH   9  10
ENDBRANCH   8   9
ENDBRANCH   7   8
ENDBRANCH   6   7
ENDBRANCH   5   6
ENDBRANCH   4   5
ENDBRANCH   3   4
ENDBRANCH   2   3
ENDBRANCH   1   2
BRANCH   1  13
ATOM     13  C   UNL     1       2.853   6.027  19.324  0.00  0.00    +0.000 C 
BRANCH  13  14
ATOM     14  C   UNL     1       2.475   7.289  18.556  0.00  0.00    +0.000 C 
BRANCH  14  15
ATOM     15  C   UNL     1       1.847   8.313  19.489  0.00  0.00    +0.000 C 
BRANCH  15  16
ATOM     16  C   UNL     1       1.266   9.465  18.689  0.00  0.00    +0.000 C 
ATOM     17  O   UNL     1       1.717   9.710  17.572  0.00  0.00    +0.000 OA
ATOM     18  N   UNL     1       0.263  10.221  19.237  0.00  0.00    +0.000 N 
BRANCH  18  19
ATOM     19  O   UNL     1      -0.430   9.936  20.422  0.00  0.00    +0.000 OA
ATOM     20  H   UNL     1      -0.018  10.447  21.131  0.00  0.00    +0.000 HD
ENDBRANCH  18  19
BRANCH  18  21
ATOM     21  C   UNL     1      -0.327  11.362  18.534  0.00  0.00    +0.000 C 
BRANCH  21  22
ATOM     22  C   UNL     1      -1.648  11.021  17.842  0.00  0.00    +0.000 C 
BRANCH  22  23
ATOM     23  O   UNL     1      -1.498   9.941  16.926  0.00  0.00    +0.000 OA
ATOM     24  H   UNL     1      -1.100  10.289  16.108  0.00  0.00    +0.000 HD
ENDBRANCH  22  23
ENDBRANCH  21  22
ENDBRANCH  18  21
ENDBRANCH  15  16
ENDBRANCH  14  15
ENDBRANCH  13  14
ENDBRANCH   1  13
TORSDOF 18
ENDMDL
MODEL 5
REMARK VINA RESULT:      -4.8      4.960      6.850
REMARK  Name = 
REMARK  19 active torsions:
REMARK  status: ('A' for Active; 'I' for Inactive)
REMARK    1  A    between atoms: C_1  and  C_2
REMARK    2  A    between atoms: C_2  and  C_3
REMARK    3  A    between atoms: C_3  and  C_4
REMARK    4  A    between atoms: C_4  and  C_5
REMARK    5  A    between atoms: C_5  and  C_6
REMARK    6  A    between atoms: C_6  and  C_7
REMARK    7  A    between atoms: C_7  and  C_8
REMARK    8  A    between atoms: C_8  and  C_9
REMARK    9  A    between atoms: C_9  and  C_10
REMARK   10  A    between atoms: C_10  and  C_11
REMARK   11  A    between atoms: C_11  and  C_12
REMARK   12  A    between atoms: C_12  and  C_13
REMARK   13  A    between atoms: C_13  and  C_14
REMARK   14  A    between atoms: C_14  and  C_15
REMARK   15  A    between atoms: C_15  and  C_16
REMARK   16  A    between atoms: N_18  and  O_19
REMARK   17  A    between atoms: N_18  and  C_20
REMARK   18  A    between atoms: C_20  and  C_21
REMARK   19  A    between atoms: C_21  and  O_22
REMARK                            x       y       z     vdW  Elec       q    Type
REMARK                         _______ _______ _______ _____ _____    ______ ____
ROOT
ATOM      1  C   UNL     1       6.798   7.780  17.163  0.00  0.00    +0.000 C 
ENDROOT
BRANCH   1   2
ATOM      2  C   UNL     1       6.559   6.285  17.008  0.00  0.00    +0.000 C 
BRANCH   2   3
ATOM      3  C   UNL     1       7.064   5.542  18.235  0.00  0.00    +0.000 C 
BRANCH   3   4
ATOM      4  C   UNL     1       5.898   5.124  19.114  0.00  0.00    +0.000 C 
BRANCH   4   5
ATOM      5  C   UNL     1       4.581   5.472  18.441  0.00  0.00    +0.000 C 
BRANCH   5   6
ATOM      6  C   UNL     1       3.572   5.946  19.473  0.00  0.00    +0.000 C 
BRANCH   6   7
ATOM      7  C   UNL     1       2.208   5.335  19.191  0.00  0.00    +0.000 C 
BRANCH   7   8
ATOM      8  C   UNL     1       1.568   4.862  20.489  0.00  0.00    +0.000 C 
BRANCH   8   9
ATOM      9  C   UNL     1       0.844   3.539  20.266  0.00  0.00    +0.000 C 
BRANCH   9  10
ATOM     10  C   UNL     1       1.232   2.945  18.918  0.00  0.00    +0.000 C 
BRANCH  10  12
ATOM     11  C   UNL     1       3.333   1.927  18.021  0.00  0.00    +0.000 C 
ATOM     12  C   UNL     1       2.263   1.836  19.085  0.00  0.00    +0.000 C 
ENDBRANCH  10  12
ENDBRANCH   9  10
ENDBRANCH   8   9
ENDBRANCH   7   8
ENDBRANCH   6   7
ENDBRANCH   5   6
ENDBRANCH   4   5
ENDBRANCH   3   4
ENDBRANCH   2   3
ENDBRANCH   1   2
BRANCH   1  13
ATOM     13  C   UNL     1       8.056   8.036  17.980  0.00  0.00    +0.000 C 
BRANCH  13  14
ATOM     14  C   UNL     1       8.253   9.532  18.201  0.00  0.00    +0.000 C 
BRANCH  14  15
ATOM     15  C   UNL     1       9.364   9.780  19.211  0.00  0.00    +0.000 C 
BRANCH  15  16
ATOM     16  C   UNL     1       9.640  11.268  19.334  0.00  0.00    +0.000 C 
ATOM     17  O   UNL     1       9.159  11.893  20.277  0.00  0.00    +0.000 OA
ATOM     18  N   UNL     1      10.404  11.887  18.381  0.00  0.00    +0.000 N 
BRANCH  18  19
ATOM     19  O   UNL     1      11.128  11.250  17.363  0.00  0.00    +0.000 OA
ATOM     20  H   UNL     1      11.861  10.778  17.778  0.00  0.00    +0.000 HD
ENDBRANCH  18  19
BRANCH  18  21
ATOM     21  C   UNL     1      10.689  13.323  18.422  0.00  0.00    +0.000 C 
BRANCH  21  22
ATOM     22  C   UNL     1      10.281  14.051  17.140  0.00  0.00    +0.000 C 
BRANCH  22  23
ATOM     23  O   UNL     1      11.215  13.826  16.089  0.00  0.00    +0.000 OA
ATOM     24  H   UNL     1      10.717  13.663  15.268  0.00  0.00    +0.000 HD
ENDBRANCH  22  23
ENDBRANCH  21  22
ENDBRANCH  18  21
ENDBRANCH  15  16
ENDBRANCH  14  15
ENDBRANCH  13  14
ENDBRANCH   1  13
TORSDOF 18
ENDMDL
MODEL 6
REMARK VINA RESULT:      -4.8      5.557      7.738
REMARK  Name = 
REMARK  19 active torsions:
REMARK  status: ('A' for Active; 'I' for Inactive)
REMARK    1  A    between atoms: C_1  and  C_2
REMARK    2  A    between atoms: C_2  and  C_3
REMARK    3  A    between atoms: C_3  and  C_4
REMARK    4  A    between atoms: C_4  and  C_5
REMARK    5  A    between atoms: C_5  and  C_6
REMARK    6  A    between atoms: C_6  and  C_7
REMARK    7  A    between atoms: C_7  and  C_8
REMARK    8  A    between atoms: C_8  and  C_9
REMARK    9  A    between atoms: C_9  and  C_10
REMARK   10  A    between atoms: C_10  and  C_11
REMARK   11  A    between atoms: C_11  and  C_12
REMARK   12  A    between atoms: C_12  and  C_13
REMARK   13  A    between atoms: C_13  and  C_14
REMARK   14  A    between atoms: C_14  and  C_15
REMARK   15  A    between atoms: C_15  and  C_16
REMARK   16  A    between atoms: N_18  and  O_19
REMARK   17  A    between atoms: N_18  and  C_20
REMARK   18  A    between atoms: C_20  and  C_21
REMARK   19  A    between atoms: C_21  and  O_22
REMARK                            x       y       z     vdW  Elec       q    Type
REMARK                         _______ _______ _______ _____ _____    ______ ____
ROOT
ATOM      1  C   UNL     1       2.364   6.207  19.836  0.00  0.00    +0.000 C 
ENDROOT
BRANCH   1   2
ATOM      2  C   UNL     1       1.615   5.394  20.882  0.00  0.00    +0.000 C 
BRANCH   2   3
ATOM      3  C   UNL     1       0.904   4.221  20.226  0.00  0.00    +0.000 C 
BRANCH   3   4
ATOM      4  C   UNL     1       1.388   2.911  20.822  0.00  0.00    +0.000 C 
BRANCH   4   5
ATOM      5  C   UNL     1       2.362   2.230  19.874  0.00  0.00    +0.000 C 
BRANCH   5   6
ATOM      6  C   UNL     1       3.793   2.534  20.283  0.00  0.00    +0.000 C 
BRANCH   6   7
ATOM      7  C   UNL     1       4.561   3.114  19.105  0.00  0.00    +0.000 C 
BRANCH   7   8
ATOM      8  C   UNL     1       3.814   2.838  17.807  0.00  0.00    +0.000 C 
BRANCH   8   9
ATOM      9  C   UNL     1       3.425   4.150  17.135  0.00  0.00    +0.000 C 
BRANCH   9  10
ATOM     10  C   UNL     1       4.671   4.936  16.749  0.00  0.00    +0.000 C 
BRANCH  10  12
ATOM     11  C   UNL     1       6.835   4.581  15.545  0.00  0.00    +0.000 C 
ATOM     12  C   UNL     1       5.345   4.327  15.526  0.00  0.00    +0.000 C 
ENDBRANCH  10  12
ENDBRANCH   9  10
ENDBRANCH   8   9
ENDBRANCH   7   8
ENDBRANCH   6   7
ENDBRANCH   5   6
ENDBRANCH   4   5
ENDBRANCH   3   4
ENDBRANCH   2   3
ENDBRANCH   1   2
BRANCH   1  13
ATOM     13  C   UNL     1       1.995   7.679  19.940  0.00  0.00    +0.000 C 
BRANCH  13  14
ATOM     14  C   UNL     1       1.431   7.992  21.322  0.00  0.00    +0.000 C 
BRANCH  14  15
ATOM     15  C   UNL     1       0.119   8.752  21.203  0.00  0.00    +0.000 C 
BRANCH  15  16
ATOM     16  C   UNL     1       0.386  10.217  20.905  0.00  0.00    +0.000 C 
ATOM     17  O   UNL     1       1.160  10.846  21.625  0.00  0.00    +0.000 OA
ATOM     18  N   UNL     1      -0.255  10.813  19.851  0.00  0.00    +0.000 N 
BRANCH  18  19
ATOM     19  O   UNL     1      -1.025  10.160  18.878  0.00  0.00    +0.000 OA
ATOM     20  H   UNL     1      -1.474   9.421  19.310  0.00  0.00    +0.000 HD
ENDBRANCH  18  19
BRANCH  18  21
ATOM     21  C   UNL     1      -0.065  12.227  19.522  0.00  0.00    +0.000 C 
BRANCH  21  22
ATOM     22  C   UNL     1      -1.260  12.837  18.788  0.00  0.00    +0.000 C 
BRANCH  22  23
ATOM     23  O   UNL     1      -1.095  12.774  17.375  0.00  0.00    +0.000 OA
ATOM     24  H   UNL     1      -1.415  13.611  16.994  0.00  0.00    +0.000 HD
ENDBRANCH  22  23
ENDBRANCH  21  22
ENDBRANCH  18  21
ENDBRANCH  15  16
ENDBRANCH  14  15
ENDBRANCH  13  14
ENDBRANCH   1  13
TORSDOF 18
ENDMDL
MODEL 7
REMARK VINA RESULT:      -4.8      5.567      7.447
REMARK  Name = 
REMARK  19 active torsions:
REMARK  status: ('A' for Active; 'I' for Inactive)
REMARK    1  A    between atoms: C_1  and  C_2
REMARK    2  A    between atoms: C_2  and  C_3
REMARK    3  A    between atoms: C_3  and  C_4
REMARK    4  A    between atoms: C_4  and  C_5
REMARK    5  A    between atoms: C_5  and  C_6
REMARK    6  A    between atoms: C_6  and  C_7
REMARK    7  A    between atoms: C_7  and  C_8
REMARK    8  A    between atoms: C_8  and  C_9
REMARK    9  A    between atoms: C_9  and  C_10
REMARK   10  A    between atoms: C_10  and  C_11
REMARK   11  A    between atoms: C_11  and  C_12
REMARK   12  A    between atoms: C_12  and  C_13
REMARK   13  A    between atoms: C_13  and  C_14
REMARK   14  A    between atoms: C_14  and  C_15
REMARK   15  A    between atoms: C_15  and  C_16
REMARK   16  A    between atoms: N_18  and  O_19
REMARK   17  A    between atoms: N_18  and  C_20
REMARK   18  A    between atoms: C_20  and  C_21
REMARK   19  A    between atoms: C_21  and  O_22
REMARK                            x       y       z     vdW  Elec       q    Type
REMARK                         _______ _______ _______ _____ _____    ______ ____
ROOT
ATOM      1  C   UNL     1       7.353   7.937  17.390  0.00  0.00    +0.000 C 
ENDROOT
BRANCH   1   2
ATOM      2  C   UNL     1       7.084   6.446  17.537  0.00  0.00    +0.000 C 
BRANCH   2   3
ATOM      3  C   UNL     1       6.130   5.974  16.451  0.00  0.00    +0.000 C 
BRANCH   3   4
ATOM      4  C   UNL     1       4.703   6.359  16.802  0.00  0.00    +0.000 C 
BRANCH   4   5
ATOM      5  C   UNL     1       4.277   5.679  18.092  0.00  0.00    +0.000 C 
BRANCH   5   6
ATOM      6  C   UNL     1       2.787   5.871  18.320  0.00  0.00    +0.000 C 
BRANCH   6   7
ATOM      7  C   UNL     1       2.533   6.350  19.741  0.00  0.00    +0.000 C 
BRANCH   7   8
ATOM      8  C   UNL     1       2.243   5.162  20.649  0.00  0.00    +0.000 C 
BRANCH   8   9
ATOM      9  C   UNL     1       1.023   4.401  20.144  0.00  0.00    +0.000 C 
BRANCH   9  10
ATOM     10  C   UNL     1       1.282   2.901  20.181  0.00  0.00    +0.000 C 
BRANCH  10  12
ATOM     11  C   UNL     1       2.214   2.319  17.933  0.00  0.00    +0.000 C 
ATOM     12  C   UNL     1       0.996   2.263  18.828  0.00  0.00    +0.000 C 
ENDBRANCH  10  12
ENDBRANCH   9  10
ENDBRANCH   8   9
ENDBRANCH   7   8
ENDBRANCH   6   7
ENDBRANCH   5   6
ENDBRANCH   4   5
ENDBRANCH   3   4
ENDBRANCH   2   3
ENDBRANCH   1   2
BRANCH   1  13
ATOM     13  C   UNL     1       8.408   8.389  18.388  0.00  0.00    +0.000 C 
BRANCH  13  14
ATOM     14  C   UNL     1       8.693   9.879  18.226  0.00  0.00    +0.000 C 
BRANCH  14  15
ATOM     15  C   UNL     1       9.440  10.414  19.439  0.00  0.00    +0.000 C 
BRANCH  15  16
ATOM     16  C   UNL     1      10.478  11.435  19.008  0.00  0.00    +0.000 C 
ATOM     17  O   UNL     1      10.903  11.410  17.854  0.00  0.00    +0.000 OA
ATOM     18  N   UNL     1      10.932  12.352  19.918  0.00  0.00    +0.000 N 
BRANCH  18  19
ATOM     19  O   UNL     1      10.405  12.572  21.199  0.00  0.00    +0.000 OA
ATOM     20  H   UNL     1      10.757  11.885  21.781  0.00  0.00    +0.000 HD
ENDBRANCH  18  19
BRANCH  18  21
ATOM     21  C   UNL     1      11.950  13.348  19.580  0.00  0.00    +0.000 C 
BRANCH  21  22
ATOM     22  C   UNL     1      11.355  14.667  19.083  0.00  0.00    +0.000 C 
BRANCH  22  23
ATOM     23  O   UNL     1      10.007  14.828  19.513  0.00  0.00    +0.000 OA
ATOM     24  H   UNL     1      10.011  14.988  20.473  0.00  0.00    +0.000 HD
ENDBRANCH  22  23
ENDBRANCH  21  22
ENDBRANCH  18  21
ENDBRANCH  15  16
ENDBRANCH  14  15
ENDBRANCH  13  14
ENDBRANCH   1  13
TORSDOF 18
ENDMDL
MODEL 8
REMARK VINA RESULT:      -4.8      6.432      8.122
REMARK  Name = 
REMARK  19 active torsions:
REMARK  status: ('A' for Active; 'I' for Inactive)
REMARK    1  A    between atoms: C_1  and  C_2
REMARK    2  A    between atoms: C_2  and  C_3
REMARK    3  A    between atoms: C_3  and  C_4
REMARK    4  A    between atoms: C_4  and  C_5
REMARK    5  A    between atoms: C_5  and  C_6
REMARK    6  A    between atoms: C_6  and  C_7
REMARK    7  A    between atoms: C_7  and  C_8
REMARK    8  A    between atoms: C_8  and  C_9
REMARK    9  A    between atoms: C_9  and  C_10
REMARK   10  A    between atoms: C_10  and  C_11
REMARK   11  A    between atoms: C_11  and  C_12
REMARK   12  A    between atoms: C_12  and  C_13
REMARK   13  A    between atoms: C_13  and  C_14
REMARK   14  A    between atoms: C_14  and  C_15
REMARK   15  A    between atoms: C_15  and  C_16
REMARK   16  A    between atoms: N_18  and  O_19
REMARK   17  A    between atoms: N_18  and  C_20
REMARK   18  A    between atoms: C_20  and  C_21
REMARK   19  A    between atoms: C_21  and  O_22
REMARK                            x       y       z     vdW  Elec       q    Type
REMARK                         _______ _______ _______ _____ _____    ______ ____
ROOT
ATOM      1  C   UNL     1       8.363   9.479  18.129  0.00  0.00    +0.000 C 
ENDROOT
BRANCH   1   2
ATOM      2  C   UNL     1       8.287   7.974  18.342  0.00  0.00    +0.000 C 
BRANCH   2   3
ATOM      3  C   UNL     1       7.497   7.324  17.217  0.00  0.00    +0.000 C 
BRANCH   3   4
ATOM      4  C   UNL     1       6.304   6.570  17.779  0.00  0.00    +0.000 C 
BRANCH   4   5
ATOM      5  C   UNL     1       5.777   5.580  16.754  0.00  0.00    +0.000 C 
BRANCH   5   6
ATOM      6  C   UNL     1       5.365   4.286  17.435  0.00  0.00    +0.000 C 
BRANCH   6   7
ATOM      7  C   UNL     1       4.226   3.631  16.668  0.00  0.00    +0.000 C 
BRANCH   7   8
ATOM      8  C   UNL     1       2.891   3.994  17.304  0.00  0.00    +0.000 C 
BRANCH   8   9
ATOM      9  C   UNL     1       3.044   4.113  18.816  0.00  0.00    +0.000 C 
BRANCH   9  10
ATOM     10  C   UNL     1       2.327   5.357  19.324  0.00  0.00    +0.000 C 
BRANCH  10  12
ATOM     11  C   UNL     1       1.169   3.660  20.751  0.00  0.00    +0.000 C 
ATOM     12  C   UNL     1       1.652   5.090  20.663  0.00  0.00    +0.000 C 
ENDBRANCH  10  12
ENDBRANCH   9  10
ENDBRANCH   8   9
ENDBRANCH   7   8
ENDBRANCH   6   7
ENDBRANCH   5   6
ENDBRANCH   4   5
ENDBRANCH   3   4
ENDBRANCH   2   3
ENDBRANCH   1   2
BRANCH   1  13
ATOM     13  C   UNL     1       9.276  10.118  19.166  0.00  0.00    +0.000 C 
BRANCH  13  14
ATOM     14  C   UNL     1      10.092  11.243  18.537  0.00  0.00    +0.000 C 
BRANCH  14  15
ATOM     15  C   UNL     1       9.207  12.446  18.249  0.00  0.00    +0.000 C 
BRANCH  15  16
ATOM     16  C   UNL     1       9.972  13.733  18.501  0.00  0.00    +0.000 C 
ATOM     17  O   UNL     1      11.039  13.689  19.111  0.00  0.00    +0.000 OA
ATOM     18  N   UNL     1       9.449  14.920  18.059  0.00  0.00    +0.000 N 
BRANCH  18  19
ATOM     19  O   UNL     1       8.333  15.068  17.223  0.00  0.00    +0.000 OA
ATOM     20  H   UNL     1       8.052  14.184  16.952  0.00  0.00    +0.000 HD
ENDBRANCH  18  19
BRANCH  18  21
ATOM     21  C   UNL     1      10.119  16.201  18.290  0.00  0.00    +0.000 C 
BRANCH  21  22
ATOM     22  C   UNL     1      10.491  16.923  16.994  0.00  0.00    +0.000 C 
BRANCH  22  23
ATOM     23  O   UNL     1      10.816  16.004  15.956  0.00  0.00    +0.000 OA
ATOM     24  H   UNL     1       9.987  15.619  15.620  0.00  0.00    +0.000 HD
ENDBRANCH  22  23
ENDBRANCH  21  22
ENDBRANCH  18  21
ENDBRANCH  15  16
ENDBRANCH  14  15
ENDBRANCH  13  14
ENDBRANCH   1  13
TORSDOF 18
ENDMDL
MODEL 9
REMARK VINA RESULT:      -4.7      4.316      7.210
REMARK  Name = 
REMARK  19 active torsions:
REMARK  status: ('A' for Active; 'I' for Inactive)
REMARK    1  A    between atoms: C_1  and  C_2
REMARK    2  A    between atoms: C_2  and  C_3
REMARK    3  A    between atoms: C_3  and  C_4
REMARK    4  A    between atoms: C_4  and  C_5
REMARK    5  A    between atoms: C_5  and  C_6
REMARK    6  A    between atoms: C_6  and  C_7
REMARK    7  A    between atoms: C_7  and  C_8
REMARK    8  A    between atoms: C_8  and  C_9
REMARK    9  A    between atoms: C_9  and  C_10
REMARK   10  A    between atoms: C_10  and  C_11
REMARK   11  A    between atoms: C_11  and  C_12
REMARK   12  A    between atoms: C_12  and  C_13
REMARK   13  A    between atoms: C_13  and  C_14
REMARK   14  A    between atoms: C_14  and  C_15
REMARK   15  A    between atoms: C_15  and  C_16
REMARK   16  A    between atoms: N_18  and  O_19
REMARK   17  A    between atoms: N_18  and  C_20
REMARK   18  A    between atoms: C_20  and  C_21
REMARK   19  A    between atoms: C_21  and  O_22
REMARK                            x       y       z     vdW  Elec       q    Type
REMARK                         _______ _______ _______ _____ _____    ______ ____
ROOT
ATOM      1  C   UNL     1       2.007   3.279  20.979  0.00  0.00    +0.000 C 
ENDROOT
BRANCH   1   2
ATOM      2  C   UNL     1       0.726   3.287  20.156  0.00  0.00    +0.000 C 
BRANCH   2   3
ATOM      3  C   UNL     1       0.881   2.393  18.936  0.00  0.00    +0.000 C 
BRANCH   3   4
ATOM      4  C   UNL     1       1.906   2.979  17.981  0.00  0.00    +0.000 C 
BRANCH   4   5
ATOM      5  C   UNL     1       3.139   2.092  17.923  0.00  0.00    +0.000 C 
BRANCH   5   6
ATOM      6  C   UNL     1       4.390   2.941  17.773  0.00  0.00    +0.000 C 
BRANCH   6   7
ATOM      7  C   UNL     1       4.166   4.023  16.729  0.00  0.00    +0.000 C 
BRANCH   7   8
ATOM      8  C   UNL     1       5.479   4.361  16.036  0.00  0.00    +0.000 C 
BRANCH   8   9
ATOM      9  C   UNL     1       5.276   4.422  14.527  0.00  0.00    +0.000 C 
BRANCH   9  10
ATOM     10  C   UNL     1       6.590   4.151  13.805  0.00  0.00    +0.000 C 
BRANCH  10  12
ATOM     11  C   UNL     1       4.873   3.433  12.135  0.00  0.00    +0.000 C 
ATOM     12  C   UNL     1       6.348   3.470  12.465  0.00  0.00    +0.000 C 
ENDBRANCH  10  12
ENDBRANCH   9  10
ENDBRANCH   8   9
ENDBRANCH   7   8
ENDBRANCH   6   7
ENDBRANCH   5   6
ENDBRANCH   4   5
ENDBRANCH   3   4
ENDBRANCH   2   3
ENDBRANCH   1   2
BRANCH   1  13
ATOM     13  C   UNL     1       2.592   4.681  21.066  0.00  0.00    +0.000 C 
BRANCH  13  14
ATOM     14  C   UNL     1       1.639   5.698  20.446  0.00  0.00    +0.000 C 
BRANCH  14  15
ATOM     15  C   UNL     1       2.417   6.762  19.685  0.00  0.00    +0.000 C 
BRANCH  15  16
ATOM     16  C   UNL     1       1.810   8.132  19.931  0.00  0.00    +0.000 C 
ATOM     17  O   UNL     1       1.517   8.462  21.079  0.00  0.00    +0.000 OA
ATOM     18  N   UNL     1       1.584   8.964  18.867  0.00  0.00    +0.000 N 
BRANCH  18  19
ATOM     19  O   UNL     1       2.022   8.756  17.551  0.00  0.00    +0.000 OA
ATOM     20  H   UNL     1       1.581   7.964  17.219  0.00  0.00    +0.000 HD
ENDBRANCH  18  19
BRANCH  18  21
ATOM     21  C   UNL     1       0.978  10.287  19.027  0.00  0.00    +0.000 C 
BRANCH  21  22
ATOM     22  C   UNL     1      -0.481  10.338  18.570  0.00  0.00    +0.000 C 
BRANCH  22  23
ATOM     23  O   UNL     1      -1.158  11.472  19.103  0.00  0.00    +0.000 OA
ATOM     24  H   UNL     1      -0.502  12.034  19.553  0.00  0.00    +0.000 HD
ENDBRANCH  22  23
ENDBRANCH  21  22
ENDBRANCH  18  21
ENDBRANCH  15  16
ENDBRANCH  14  15
ENDBRANCH  13  14
ENDBRANCH   1  13
TORSDOF 18
ENDMDL
