MODEL 1
REMARK VINA RESULT:      -7.8      0.000      0.000
REMARK  Name = 
REMARK  5 active torsions:
REMARK  status: ('A' for Active; 'I' for Inactive)
REMARK    1  A    between atoms: C_1  and  C_2
REMARK    2  A    between atoms: N_4  and  C_5
REMARK    3  A    between atoms: C_5  and  C_6
REMARK    4  A    between atoms: C_10  and  C_11
REMARK    5  A    between atoms: N_15  and  C_16
REMARK                            x       y       z     vdW  Elec       q    Type
REMARK                         _______ _______ _______ _____ _____    ______ ____
ROOT
ATOM      1  C   UNL     1       6.543   4.618  16.600  0.00  0.00    +0.000 A 
ATOM      2  C   UNL     1       7.373   5.105  17.602  0.00  0.00    +0.000 A 
ATOM      3  N   UNL     1       7.030   5.091  18.911  0.00  0.00    +0.000 NA
ATOM      4  C   UNL     1       5.807   4.579  19.182  0.00  0.00    +0.000 A 
ATOM      5  C   UNL     1       4.956   4.085  18.197  0.00  0.00    +0.000 A 
ATOM      6  N   UNL     1       5.329   4.080  16.888  0.00  0.00    +0.000 NA
ENDROOT
BRANCH   5   7
ATOM      7  C   UNL     1       3.577   3.588  18.583  0.00  0.00    +0.000 C 
ATOM      8  C   UNL     1       2.625   3.302  17.424  0.00  0.00    +0.000 C 
ATOM      9  C   UNL     1       1.270   3.183  18.088  0.00  0.00    +0.000 C 
ATOM     10  C   UNL     1       1.413   3.886  19.435  0.00  0.00    +0.000 C 
ATOM     11  N   UNL     1       2.783   4.415  19.535  0.00  0.00    +0.000 NA
BRANCH  11  12
ATOM     12  C   UNL     1       2.887   5.892  19.405  0.00  0.00    +0.000 C 
ATOM     13  C   UNL     1       1.894   6.601  20.357  0.00  0.00    +0.000 C 
ATOM     14  C   UNL     1       1.913   8.110  20.168  0.00  0.00    +0.000 C 
ATOM     15  O   UNL     1       1.664   8.440  18.804  0.00  0.00    +0.000 OA
ATOM     16  C   UNL     1       2.711   7.976  17.959  0.00  0.00    +0.000 C 
ATOM     17  C   UNL     1       2.793   6.457  17.978  0.00  0.00    +0.000 C 
ENDBRANCH  11  12
ENDBRANCH   5   7
BRANCH   1  18
ATOM     18  C   UNL     1       6.969   4.689  15.157  0.00  0.00    +0.000 C 
BRANCH  18  22
ATOM     19  C   UNL     1       5.262   3.138  12.167  0.00  0.00    +0.000 C 
ATOM     20  C   UNL     1       6.317   3.890  12.934  0.00  0.00    +0.000 C 
ATOM     21  O   UNL     1       7.292   4.393  12.386  0.00  0.00    +0.000 OA
ATOM     22  N   UNL     1       6.099   3.923  14.291  0.00  0.00    +0.000 N 
ATOM     23  H   UNL     1       5.185   3.673  14.647  0.00  0.00    +0.000 HD
ENDBRANCH  18  22
ENDBRANCH   1  18
TORSDOF 4
ENDMDL
MODEL 2
REMARK VINA RESULT:      -7.5      2.990      6.558
REMARK  Name = 
REMARK  5 active torsions:
REMARK  status: ('A' for Active; 'I' for Inactive)
REMARK    1  A    between atoms: C_1  and  C_2
REMARK    2  A    between atoms: N_4  and  C_5
REMARK    3  A    between atoms: C_5  and  C_6
REMARK    4  A    between atoms: C_10  and  C_11
REMARK    5  A    between atoms: N_15  and  C_16
REMARK                            x       y       z     vdW  Elec       q    Type
REMARK                         _______ _______ _______ _____ _____    ______ ____
ROOT
ATOM      1  C   UNL     1       1.757   8.573  18.932  0.00  0.00    +0.000 A 
ATOM      2  C   UNL     1       1.516   8.350  20.282  0.00  0.00    +0.000 A 
ATOM      3  N   UNL     1       1.722   7.151  20.877  0.00  0.00    +0.000 NA
ATOM      4  C   UNL     1       2.169   6.170  20.059  0.00  0.00    +0.000 A 
ATOM      5  C   UNL     1       2.418   6.367  18.703  0.00  0.00    +0.000 A 
ATOM      6  N   UNL     1       2.233   7.587  18.128  0.00  0.00    +0.000 NA
ENDROOT
BRANCH   5   7
ATOM      7  C   UNL     1       2.857   5.196  17.848  0.00  0.00    +0.000 C 
ATOM      8  C   UNL     1       2.852   3.832  18.535  0.00  0.00    +0.000 C 
ATOM      9  C   UNL     1       3.652   2.951  17.599  0.00  0.00    +0.000 C 
ATOM     10  C   UNL     1       4.475   3.908  16.741  0.00  0.00    +0.000 C 
ATOM     11  N   UNL     1       4.187   5.283  17.181  0.00  0.00    +0.000 NA
BRANCH  11  12
ATOM     12  C   UNL     1       5.287   5.934  17.940  0.00  0.00    +0.000 C 
ATOM     13  C   UNL     1       6.159   6.808  17.006  0.00  0.00    +0.000 C 
ATOM     14  C   UNL     1       7.350   7.402  17.743  0.00  0.00    +0.000 C 
ATOM     15  O   UNL     1       8.112   6.370  18.364  0.00  0.00    +0.000 OA
ATOM     16  C   UNL     1       7.366   5.721  19.388  0.00  0.00    +0.000 C 
ATOM     17  C   UNL     1       6.154   5.008  18.809  0.00  0.00    +0.000 C 
ENDBRANCH  11  12
ENDBRANCH   5   7
BRANCH   1  18
ATOM     18  C   UNL     1       1.480   9.921  18.322  0.00  0.00    +0.000 C 
BRANCH  18  22
ATOM     19  C   UNL     1      -2.180  10.211  17.436  0.00  0.00    +0.000 C 
ATOM     20  C   UNL     1      -0.937  10.331  18.276  0.00  0.00    +0.000 C 
ATOM     21  O   UNL     1      -0.960  10.758  19.426  0.00  0.00    +0.000 OA
ATOM     22  N   UNL     1       0.213   9.956  17.623  0.00  0.00    +0.000 N 
ATOM     23  H   UNL     1       0.138   9.426  16.763  0.00  0.00    +0.000 HD
ENDBRANCH  18  22
ENDBRANCH   1  18
TORSDOF 4
ENDMDL
MODEL 3
REMARK VINA RESULT:      -7.5      3.348      7.453
REMARK  Name = 
REMARK  5 active torsions:
REMARK  status: ('A' for Active; 'I' for Inactive)
REMARK    1  A    between atoms: C_1  and  C_2
REMARK    2  A    between atoms: N_4  and  C_5
REMARK    3  A    between atoms: C_5  and  C_6
REMARK    4  A    between atoms: C_10  and  C_11
REMARK    5  A    between atoms: N_15  and  C_16
REMARK                            x       y       z     vdW  Elec       q    Type
REMARK                         _______ _______ _______ _____ _____    ______ ____
ROOT
ATOM      1  C   UNL     1       1.513   8.320  20.110  0.00  0.00    +0.000 A 
ATOM      2  C   UNL     1       1.136   9.212  19.114  0.00  0.00    +0.000 A 
ATOM      3  N   UNL     1       1.662   9.187  17.867  0.00  0.00    +0.000 NA
ATOM      4  C   UNL     1       2.600   8.236  17.656  0.00  0.00    +0.000 A 
ATOM      5  C   UNL     1       2.997   7.329  18.635  0.00  0.00    +0.000 A 
ATOM      6  N   UNL     1       2.435   7.350  19.875  0.00  0.00    +0.000 NA
ENDROOT
BRANCH   5   7
ATOM      7  C   UNL     1       4.100   6.337  18.330  0.00  0.00    +0.000 C 
ATOM      8  C   UNL     1       4.316   6.015  16.853  0.00  0.00    +0.000 C 
ATOM      9  C   UNL     1       5.186   4.777  16.875  0.00  0.00    +0.000 C 
ATOM     10  C   UNL     1       5.003   4.173  18.265  0.00  0.00    +0.000 C 
ATOM     11  N   UNL     1       4.046   5.010  19.006  0.00  0.00    +0.000 NA
BRANCH  11  12
ATOM     12  C   UNL     1       2.705   4.396  19.195  0.00  0.00    +0.000 C 
ATOM     13  C   UNL     1       2.492   3.980  20.671  0.00  0.00    +0.000 C 
ATOM     14  C   UNL     1       1.167   3.259  20.866  0.00  0.00    +0.000 C 
ATOM     15  O   UNL     1       1.077   2.143  19.984  0.00  0.00    +0.000 OA
ATOM     16  C   UNL     1       1.042   2.560  18.624  0.00  0.00    +0.000 C 
ATOM     17  C   UNL     1       2.338   3.254  18.234  0.00  0.00    +0.000 C 
ENDBRANCH  11  12
ENDBRANCH   5   7
BRANCH   1  18
ATOM     18  C   UNL     1       0.913   8.417  21.487  0.00  0.00    +0.000 C 
BRANCH  18  22
ATOM     19  C   UNL     1      -1.261  11.194  22.840  0.00  0.00    +0.000 C 
ATOM     20  C   UNL     1      -0.252  10.076  22.865  0.00  0.00    +0.000 C 
ATOM     21  O   UNL     1       0.278   9.695  23.903  0.00  0.00    +0.000 OA
ATOM     22  N   UNL     1       0.037   9.561  21.623  0.00  0.00    +0.000 N 
ATOM     23  H   UNL     1      -0.579   9.775  20.848  0.00  0.00    +0.000 HD
ENDBRANCH  18  22
ENDBRANCH   1  18
TORSDOF 4
ENDMDL
MODEL 4
REMARK VINA RESULT:      -7.3      3.043      7.363
REMARK  Name = 
REMARK  5 active torsions:
REMARK  status: ('A' for Active; 'I' for Inactive)
REMARK    1  A    between atoms: C_1  and  C_2
REMARK    2  A    between atoms: N_4  and  C_5
REMARK    3  A    between atoms: C_5  and  C_6
REMARK    4  A    between atoms: C_10  and  C_11
REMARK    5  A    between atoms: N_15  and  C_16
REMARK                            x       y       z     vdW  Elec       q    Type
REMARK                         _______ _______ _______ _____ _____    ______ ____
ROOT
ATOM      1  C   UNL     1       1.697   8.140  20.081  0.00  0.00    +0.000 A 
ATOM      2  C   UNL     1       1.800   9.200  19.189  0.00  0.00    +0.000 A 
ATOM      3  N   UNL     1       2.156   9.037  17.893  0.00  0.00    +0.000 NA
ATOM      4  C   UNL     1       2.422   7.764  17.523  0.00  0.00    +0.000 A 
ATOM      5  C   UNL     1       2.327   6.683  18.396  0.00  0.00    +0.000 A 
ATOM      6  N   UNL     1       1.939   6.861  19.689  0.00  0.00    +0.000 NA
ENDROOT
BRANCH   5   7
ATOM      7  C   UNL     1       2.705   5.298  17.913  0.00  0.00    +0.000 C 
ATOM      8  C   UNL     1       2.536   4.171  18.929  0.00  0.00    +0.000 C 
ATOM      9  C   UNL     1       3.305   3.016  18.321  0.00  0.00    +0.000 C 
ATOM     10  C   UNL     1       4.260   3.648  17.313  0.00  0.00    +0.000 C 
ATOM     11  N   UNL     1       4.074   5.107  17.355  0.00  0.00    +0.000 NA
BRANCH  11  12
ATOM     12  C   UNL     1       5.184   5.854  18.004  0.00  0.00    +0.000 C 
ATOM     13  C   UNL     1       5.954   6.708  16.967  0.00  0.00    +0.000 C 
ATOM     14  C   UNL     1       7.155   7.402  17.592  0.00  0.00    +0.000 C 
ATOM     15  O   UNL     1       8.003   6.447  18.224  0.00  0.00    +0.000 OA
ATOM     16  C   UNL     1       7.354   5.828  19.329  0.00  0.00    +0.000 C 
ATOM     17  C   UNL     1       6.146   5.025  18.870  0.00  0.00    +0.000 C 
ENDBRANCH  11  12
ENDBRANCH   5   7
BRANCH   1  18
ATOM     18  C   UNL     1       1.325   8.388  21.518  0.00  0.00    +0.000 C 
BRANCH  18  22
ATOM     19  C   UNL     1      -1.145  10.905  22.871  0.00  0.00    +0.000 C 
ATOM     20  C   UNL     1      -0.028   9.896  22.899  0.00  0.00    +0.000 C 
ATOM     21  O   UNL     1       0.521   9.553  23.941  0.00  0.00    +0.000 OA
ATOM     22  N   UNL     1       0.334   9.434  21.656  0.00  0.00    +0.000 N 
ATOM     23  H   UNL     1      -0.287   9.596  20.872  0.00  0.00    +0.000 HD
ENDBRANCH  18  22
ENDBRANCH   1  18
TORSDOF 4
ENDMDL
MODEL 5
REMARK VINA RESULT:      -7.2      2.128      3.481
REMARK  Name = 
REMARK  5 active torsions:
REMARK  status: ('A' for Active; 'I' for Inactive)
REMARK    1  A    between atoms: C_1  and  C_2
REMARK    2  A    between atoms: N_4  and  C_5
REMARK    3  A    between atoms: C_5  and  C_6
REMARK    4  A    between atoms: C_10  and  C_11
REMARK    5  A    between atoms: N_15  and  C_16
REMARK                            x       y       z     vdW  Elec       q    Type
REMARK                         _______ _______ _______ _____ _____    ______ ____
ROOT
ATOM      1  C   UNL     1       6.372   4.433  15.009  0.00  0.00    +0.000 A 
ATOM      2  C   UNL     1       7.498   4.563  15.813  0.00  0.00    +0.000 A 
ATOM      3  N   UNL     1       7.475   5.189  17.013  0.00  0.00    +0.000 NA
ATOM      4  C   UNL     1       6.276   5.698  17.376  0.00  0.00    +0.000 A 
ATOM      5  C   UNL     1       5.132   5.582  16.590  0.00  0.00    +0.000 A 
ATOM      6  N   UNL     1       5.166   4.923  15.399  0.00  0.00    +0.000 NA
ENDROOT
BRANCH   5   7
ATOM      7  C   UNL     1       3.844   6.238  17.045  0.00  0.00    +0.000 C 
ATOM      8  C   UNL     1       3.996   7.364  18.065  0.00  0.00    +0.000 C 
ATOM      9  C   UNL     1       2.591   7.569  18.590  0.00  0.00    +0.000 C 
ATOM     10  C   UNL     1       1.840   6.281  18.263  0.00  0.00    +0.000 C 
ATOM     11  N   UNL     1       2.778   5.359  17.603  0.00  0.00    +0.000 NA
BRANCH  11  12
ATOM     12  C   UNL     1       3.211   4.211  18.442  0.00  0.00    +0.000 C 
ATOM     13  C   UNL     1       2.998   2.871  17.697  0.00  0.00    +0.000 C 
ATOM     14  C   UNL     1       3.341   1.678  18.577  0.00  0.00    +0.000 C 
ATOM     15  O   UNL     1       2.599   1.731  19.792  0.00  0.00    +0.000 OA
ATOM     16  C   UNL     1       2.974   2.855  20.580  0.00  0.00    +0.000 C 
ATOM     17  C   UNL     1       2.636   4.155  19.867  0.00  0.00    +0.000 C 
ENDBRANCH  11  12
ENDBRANCH   5   7
BRANCH   1  18
ATOM     18  C   UNL     1       6.467   3.751  13.670  0.00  0.00    +0.000 C 
BRANCH  18  22
ATOM     19  C   UNL     1       3.735   3.371  11.091  0.00  0.00    +0.000 C 
ATOM     20  C   UNL     1       4.988   3.032  11.852  0.00  0.00    +0.000 C 
ATOM     21  O   UNL     1       5.686   2.064  11.570  0.00  0.00    +0.000 OA
ATOM     22  N   UNL     1       5.248   3.882  12.901  0.00  0.00    +0.000 N 
ATOM     23  H   UNL     1       4.757   4.766  12.949  0.00  0.00    +0.000 HD
ENDBRANCH  18  22
ENDBRANCH   1  18
TORSDOF 4
ENDMDL
MODEL 6
REMARK VINA RESULT:      -7.2      1.850      3.248
REMARK  Name = 
REMARK  5 active torsions:
REMARK  status: ('A' for Active; 'I' for Inactive)
REMARK    1  A    between atoms: C_1  and  C_2
REMARK    2  A    between atoms: N_4  and  C_5
REMARK    3  A    between atoms: C_5  and  C_6
REMARK    4  A    between atoms: C_10  and  C_11
REMARK    5  A    between atoms: N_15  and  C_16
REMARK                            x       y       z     vdW  Elec       q    Type
REMARK                         _______ _______ _______ _____ _____    ______ ____
ROOT
ATOM      1  C   UNL     1       6.738   4.724  15.962  0.00  0.00    +0.000 A 
ATOM      2  C   UNL     1       7.542   4.493  17.071  0.00  0.00    +0.000 A 
ATOM      3  N   UNL     1       7.164   4.808  18.331  0.00  0.00    +0.000 NA
ATOM      4  C   UNL     1       5.944   5.383  18.441  0.00  0.00    +0.000 A 
ATOM      5  C   UNL     1       5.118   5.626  17.347  0.00  0.00    +0.000 A 
ATOM      6  N   UNL     1       5.502   5.276  16.089  0.00  0.00    +0.000 NA
ENDROOT
BRANCH   5   7
ATOM      7  C   UNL     1       3.793   6.332  17.555  0.00  0.00    +0.000 C 
ATOM      8  C   UNL     1       3.749   7.337  18.704  0.00  0.00    +0.000 C 
ATOM      9  C   UNL     1       2.270   7.599  18.899  0.00  0.00    +0.000 C 
ATOM     10  C   UNL     1       1.557   6.412  18.257  0.00  0.00    +0.000 C 
ATOM     11  N   UNL     1       2.579   5.488  17.737  0.00  0.00    +0.000 NA
BRANCH  11  12
ATOM     12  C   UNL     1       2.732   4.233  18.519  0.00  0.00    +0.000 C 
ATOM     13  C   UNL     1       2.749   3.000  17.583  0.00  0.00    +0.000 C 
ATOM     14  C   UNL     1       2.805   1.699  18.369  0.00  0.00    +0.000 C 
ATOM     15  O   UNL     1       1.730   1.639  19.303  0.00  0.00    +0.000 OA
ATOM     16  C   UNL     1       1.854   2.646  20.300  0.00  0.00    +0.000 C 
ATOM     17  C   UNL     1       1.753   4.034  19.687  0.00  0.00    +0.000 C 
ENDBRANCH  11  12
ENDBRANCH   5   7
BRANCH   1  18
ATOM     18  C   UNL     1       7.227   4.379  14.581  0.00  0.00    +0.000 C 
BRANCH  18  22
ATOM     19  C   UNL     1       5.139   2.939  11.782  0.00  0.00    +0.000 C 
ATOM     20  C   UNL     1       6.309   3.625  12.436  0.00  0.00    +0.000 C 
ATOM     21  O   UNL     1       7.253   4.070  11.792  0.00  0.00    +0.000 OA
ATOM     22  N   UNL     1       6.231   3.668  13.808  0.00  0.00    +0.000 N 
ATOM     23  H   UNL     1       5.343   3.472  14.255  0.00  0.00    +0.000 HD
ENDBRANCH  18  22
ENDBRANCH   1  18
TORSDOF 4
ENDMDL
MODEL 7
REMARK VINA RESULT:      -7.2      0.971      1.195
REMARK  Name = 
REMARK  5 active torsions:
REMARK  status: ('A' for Active; 'I' for Inactive)
REMARK    1  A    between atoms: C_1  and  C_2
REMARK    2  A    between atoms: N_4  and  C_5
REMARK    3  A    between atoms: C_5  and  C_6
REMARK    4  A    between atoms: C_10  and  C_11
REMARK    5  A    between atoms: N_15  and  C_16
REMARK                            x       y       z     vdW  Elec       q    Type
REMARK                         _______ _______ _______ _____ _____    ______ ____
ROOT
ATOM      1  C   UNL     1       5.947   4.173  16.373  0.00  0.00    +0.000 A 
ATOM      2  C   UNL     1       6.924   4.709  17.203  0.00  0.00    +0.000 A 
ATOM      3  N   UNL     1       6.773   4.810  18.544  0.00  0.00    +0.000 NA
ATOM      4  C   UNL     1       5.591   4.364  19.027  0.00  0.00    +0.000 A 
ATOM      5  C   UNL     1       4.595   3.822  18.218  0.00  0.00    +0.000 A 
ATOM      6  N   UNL     1       4.776   3.701  16.874  0.00  0.00    +0.000 NA
ENDROOT
BRANCH   5   7
ATOM      7  C   UNL     1       3.276   3.405  18.836  0.00  0.00    +0.000 C 
ATOM      8  C   UNL     1       2.159   3.066  17.852  0.00  0.00    +0.000 C 
ATOM      9  C   UNL     1       0.912   3.046  18.712  0.00  0.00    +0.000 C 
ATOM     10  C   UNL     1       1.267   3.844  19.964  0.00  0.00    +0.000 C 
ATOM     11  N   UNL     1       2.649   4.330  19.823  0.00  0.00    +0.000 NA
BRANCH  11  12
ATOM     12  C   UNL     1       2.769   5.788  19.561  0.00  0.00    +0.000 C 
ATOM     13  C   UNL     1       1.869   6.597  20.526  0.00  0.00    +0.000 C 
ATOM     14  C   UNL     1       1.900   8.085  20.210  0.00  0.00    +0.000 C 
ATOM     15  O   UNL     1       1.547   8.307  18.847  0.00  0.00    +0.000 OA
ATOM     16  C   UNL     1       2.514   7.750  17.964  0.00  0.00    +0.000 C 
ATOM     17  C   UNL     1       2.570   6.237  18.105  0.00  0.00    +0.000 C 
ENDBRANCH  11  12
ENDBRANCH   5   7
BRANCH   1  18
ATOM     18  C   UNL     1       6.162   4.115  14.884  0.00  0.00    +0.000 C 
BRANCH  18  22
ATOM     19  C   UNL     1       8.763   5.969  12.869  0.00  0.00    +0.000 C 
ATOM     20  C   UNL     1       7.625   5.022  13.138  0.00  0.00    +0.000 C 
ATOM     21  O   UNL     1       7.125   4.330  12.258  0.00  0.00    +0.000 OA
ATOM     22  N   UNL     1       7.184   5.038  14.441  0.00  0.00    +0.000 N 
ATOM     23  H   UNL     1       7.765   5.469  15.149  0.00  0.00    +0.000 HD
ENDBRANCH  18  22
ENDBRANCH   1  18
TORSDOF 4
ENDMDL
MODEL 8
REMARK VINA RESULT:      -7.2      1.926      3.155
REMARK  Name = 
REMARK  5 active torsions:
REMARK  status: ('A' for Active; 'I' for Inactive)
REMARK    1  A    between atoms: C_1  and  C_2
REMARK    2  A    between atoms: N_4  and  C_5
REMARK    3  A    between atoms: C_5  and  C_6
REMARK    4  A    between atoms: C_10  and  C_11
REMARK    5  A    between atoms: N_15  and  C_16
REMARK                            x       y       z     vdW  Elec       q    Type
REMARK                         _______ _______ _______ _____ _____    ______ ____
ROOT
ATOM      1  C   UNL     1       6.449   4.690  18.001  0.00  0.00    +0.000 A 
ATOM      2  C   UNL     1       6.307   4.369  16.657  0.00  0.00    +0.000 A 
ATOM      3  N   UNL     1       5.151   3.898  16.133  0.00  0.00    +0.000 NA
ATOM      4  C   UNL     1       4.138   3.743  17.015  0.00  0.00    +0.000 A 
ATOM      5  C   UNL     1       4.253   4.057  18.367  0.00  0.00    +0.000 A 
ATOM      6  N   UNL     1       5.414   4.558  18.872  0.00  0.00    +0.000 NA
ENDROOT
BRANCH   5   7
ATOM      7  C   UNL     1       3.086   3.793  19.296  0.00  0.00    +0.000 C 
ATOM      8  C   UNL     1       1.797   3.323  18.627  0.00  0.00    +0.000 C 
ATOM      9  C   UNL     1       0.747   3.489  19.705  0.00  0.00    +0.000 C 
ATOM     10  C   UNL     1       1.339   4.481  20.702  0.00  0.00    +0.000 C 
ATOM     11  N   UNL     1       2.663   4.893  20.209  0.00  0.00    +0.000 NA
BRANCH  11  12
ATOM     12  C   UNL     1       2.721   6.280  19.676  0.00  0.00    +0.000 C 
ATOM     13  C   UNL     1       1.841   7.233  20.521  0.00  0.00    +0.000 C 
ATOM     14  C   UNL     1       1.807   8.635  19.934  0.00  0.00    +0.000 C 
ATOM     15  O   UNL     1       1.382   8.591  18.574  0.00  0.00    +0.000 OA
ATOM     16  C   UNL     1       2.324   7.903  17.760  0.00  0.00    +0.000 C 
ATOM     17  C   UNL     1       2.438   6.444  18.174  0.00  0.00    +0.000 C 
ENDBRANCH  11  12
ENDBRANCH   5   7
BRANCH   1  18
ATOM     18  C   UNL     1       7.769   5.183  18.531  0.00  0.00    +0.000 C 
BRANCH  18  22
ATOM     19  C   UNL     1       7.991   8.918  18.019  0.00  0.00    +0.000 C 
ATOM     20  C   UNL     1       7.881   7.465  17.642  0.00  0.00    +0.000 C 
ATOM     21  O   UNL     1       7.851   7.090  16.475  0.00  0.00    +0.000 OA
ATOM     22  N   UNL     1       7.783   6.617  18.720  0.00  0.00    +0.000 N 
ATOM     23  H   UNL     1       8.020   6.966  19.641  0.00  0.00    +0.000 HD
ENDBRANCH  18  22
ENDBRANCH   1  18
TORSDOF 4
ENDMDL
MODEL 9
REMARK VINA RESULT:      -7.0      3.033      6.740
REMARK  Name = 
REMARK  5 active torsions:
REMARK  status: ('A' for Active; 'I' for Inactive)
REMARK    1  A    between atoms: C_1  and  C_2
REMARK    2  A    between atoms: N_4  and  C_5
REMARK    3  A    between atoms: C_5  and  C_6
REMARK    4  A    between atoms: C_10  and  C_11
REMARK    5  A    between atoms: N_15  and  C_16
REMARK                            x       y       z     vdW  Elec       q    Type
REMARK                         _______ _______ _______ _____ _____    ______ ____
ROOT
ATOM      1  C   UNL     1       1.848   8.599  18.787  0.00  0.00    +0.000 A 
ATOM      2  C   UNL     1       1.526   8.420  20.126  0.00  0.00    +0.000 A 
ATOM      3  N   UNL     1       1.660   7.233  20.762  0.00  0.00    +0.000 NA
ATOM      4  C   UNL     1       2.118   6.216  19.995  0.00  0.00    +0.000 A 
ATOM      5  C   UNL     1       2.447   6.367  18.651  0.00  0.00    +0.000 A 
ATOM      6  N   UNL     1       2.335   7.576  18.036  0.00  0.00    +0.000 NA
ENDROOT
BRANCH   5   7
ATOM      7  C   UNL     1       2.893   5.160  17.852  0.00  0.00    +0.000 C 
ATOM      8  C   UNL     1       2.878   3.827  18.597  0.00  0.00    +0.000 C 
ATOM      9  C   UNL     1       3.686   2.905  17.708  0.00  0.00    +0.000 C 
ATOM     10  C   UNL     1       4.522   3.823  16.820  0.00  0.00    +0.000 C 
ATOM     11  N   UNL     1       4.231   5.216  17.198  0.00  0.00    +0.000 NA
BRANCH  11  12
ATOM     12  C   UNL     1       5.325   5.897  17.941  0.00  0.00    +0.000 C 
ATOM     13  C   UNL     1       6.145   6.811  16.999  0.00  0.00    +0.000 C 
ATOM     14  C   UNL     1       7.330   7.439  17.717  0.00  0.00    +0.000 C 
ATOM     15  O   UNL     1       8.140   6.428  18.311  0.00  0.00    +0.000 OA
ATOM     16  C   UNL     1       7.440   5.742  19.342  0.00  0.00    +0.000 C 
ATOM     17  C   UNL     1       6.241   4.993  18.780  0.00  0.00    +0.000 C 
ENDBRANCH  11  12
ENDBRANCH   5   7
BRANCH   1  18
ATOM     18  C   UNL     1       1.650   9.938  18.128  0.00  0.00    +0.000 C 
BRANCH  18  22
ATOM     19  C   UNL     1      -0.613  12.495  19.741  0.00  0.00    +0.000 C 
ATOM     20  C   UNL     1       0.640  11.940  19.117  0.00  0.00    +0.000 C 
ATOM     21  O   UNL     1       1.665  12.603  19.003  0.00  0.00    +0.000 OA
ATOM     22  N   UNL     1       0.509  10.649  18.664  0.00  0.00    +0.000 N 
ATOM     23  H   UNL     1      -0.283  10.099  18.972  0.00  0.00    +0.000 HD
ENDBRANCH  18  22
ENDBRANCH   1  18
TORSDOF 4
ENDMDL
