MODEL 1
REMARK VINA RESULT:      -7.6      0.000      0.000
REMARK  Name = 
REMARK  12 active torsions:
REMARK  status: ('A' for Active; 'I' for Inactive)
REMARK    1  A    between atoms: C_1  and  O_2
REMARK    2  A    between atoms: O_2  and  C_3
REMARK    3  A    between atoms: C_6  and  O_7
REMARK    4  A    between atoms: O_7  and  C_8
REMARK    5  A    between atoms: C_9  and  C_10
REMARK    6  A    between atoms: C_10  and  C_11
REMARK    7  A    between atoms: C_10  and  C_12
REMARK    8  A    between atoms: C_12  and  N_13
REMARK    9  A    between atoms: N_25  and  S_26
REMARK   10  A    between atoms: S_26  and  N_29
REMARK   11  A    between atoms: N_29  and  C_30
REMARK   12  A    between atoms: N_29  and  C_31
REMARK                            x       y       z     vdW  Elec       q    Type
REMARK                         _______ _______ _______ _____ _____    ______ ____
ROOT
ATOM      1  N   UNL     1       2.214   7.872  18.900  0.00  0.00    +0.000 N 
ATOM      2  C   UNL     1       2.114   7.443  20.211  0.00  0.00    +0.000 A 
ATOM      3  N   UNL     1       1.355   7.941  21.132  0.00  0.00    +0.000 NA
ATOM      4  C   UNL     1       0.692   9.054  20.745  0.00  0.00    +0.000 A 
ATOM      5  S   UNL     1      -0.330   9.890  21.825  0.00  0.00    +0.000 S 
ATOM      6  C   UNL     1      -0.395  11.230  20.785  0.00  0.00    +0.000 A 
ATOM      7  C   UNL     1       0.192  10.983  19.553  0.00  0.00    +0.000 A 
ATOM      8  C   UNL     1       0.797   9.689  19.527  0.00  0.00    +0.000 A 
ATOM      9  C   UNL     1       1.594   9.054  18.490  0.00  0.00    +0.000 A 
ATOM     10  O   UNL     1       1.708   9.537  17.366  0.00  0.00    +0.000 OA
ATOM     11  C   UNL     1       0.361  12.077  18.536  0.00  0.00    +0.000 C 
ATOM     12  C   UNL     1      -0.252  13.407  19.018  0.00  0.00    +0.000 C 
ATOM     13  N   UNL     1      -0.130  13.625  20.500  0.00  0.00    +0.000 NA
ATOM     14  C   UNL     1      -0.896  12.564  21.238  0.00  0.00    +0.000 C 
ENDROOT
BRANCH  13  15
ATOM     15  S   UNL     1       1.423  13.859  21.141  0.00  0.00    +0.000 S 
ATOM     16  O   UNL     1       1.293  14.635  22.356  0.00  0.00    +0.000 OA
ATOM     17  O   UNL     1       2.154  12.618  21.142  0.00  0.00    +0.000 OA
BRANCH  15  18
ATOM     18  N   UNL     1       2.146  14.863  19.979  0.00  0.00    +0.000 NA
ATOM     19  C   UNL     1       2.161  16.302  20.322  0.00  0.00    +0.000 C 
ATOM     20  C   UNL     1       3.502  14.379  19.613  0.00  0.00    +0.000 C 
ENDBRANCH  15  18
ENDBRANCH  13  15
BRANCH   1  21
ATOM     21  C   UNL     1       2.999   7.099  17.935  0.00  0.00    +0.000 C 
BRANCH  21  22
ATOM     22  C   UNL     1       4.066   6.144  18.550  0.00  0.00    +0.000 C 
ATOM     23  C   UNL     1       5.490   6.516  18.116  0.00  0.00    +0.000 C 
BRANCH  22  28
ATOM     24  C   UNL     1       2.482   2.789  19.450  0.00  0.00    +0.000 A 
ATOM     25  C   UNL     1       2.741   2.022  18.319  0.00  0.00    +0.000 A 
ATOM     26  C   UNL     1       3.458   2.555  17.246  0.00  0.00    +0.000 A 
ATOM     27  C   UNL     1       3.925   3.872  17.282  0.00  0.00    +0.000 A 
ATOM     28  C   UNL     1       3.684   4.665  18.425  0.00  0.00    +0.000 A 
ATOM     29  C   UNL     1       2.955   4.100  19.501  0.00  0.00    +0.000 A 
BRANCH  24  31
ATOM     30  C   UNL     1       1.412   2.901  21.572  0.00  0.00    +0.000 C 
ATOM     31  O   UNL     1       1.757   2.150  20.416  0.00  0.00    +0.000 OA
ENDBRANCH  24  31
BRANCH  27  32
ATOM     32  O   UNL     1       4.588   4.462  16.241  0.00  0.00    +0.000 OA
ATOM     33  C   UNL     1       5.750   3.806  15.742  0.00  0.00    +0.000 C 
ENDBRANCH  27  32
ENDBRANCH  22  28
ENDBRANCH  21  22
ENDBRANCH   1  21
TORSDOF 7
ENDMDL
MODEL 2
REMARK VINA RESULT:      -7.5      1.352      1.457
REMARK  Name = 
REMARK  12 active torsions:
REMARK  status: ('A' for Active; 'I' for Inactive)
REMARK    1  A    between atoms: C_1  and  O_2
REMARK    2  A    between atoms: O_2  and  C_3
REMARK    3  A    between atoms: C_6  and  O_7
REMARK    4  A    between atoms: O_7  and  C_8
REMARK    5  A    between atoms: C_9  and  C_10
REMARK    6  A    between atoms: C_10  and  C_11
REMARK    7  A    between atoms: C_10  and  C_12
REMARK    8  A    between atoms: C_12  and  N_13
REMARK    9  A    between atoms: N_25  and  S_26
REMARK   10  A    between atoms: S_26  and  N_29
REMARK   11  A    between atoms: N_29  and  C_30
REMARK   12  A    between atoms: N_29  and  C_31
REMARK                            x       y       z     vdW  Elec       q    Type
REMARK                         _______ _______ _______ _____ _____    ______ ____
ROOT
ATOM      1  N   UNL     1       1.941   8.229  18.699  0.00  0.00    +0.000 N 
ATOM      2  C   UNL     1       2.068   7.736  19.985  0.00  0.00    +0.000 A 
ATOM      3  N   UNL     1       1.471   8.177  21.045  0.00  0.00    +0.000 NA
ATOM      4  C   UNL     1       0.744   9.296  20.832  0.00  0.00    +0.000 A 
ATOM      5  S   UNL     1      -0.087  10.062  22.109  0.00  0.00    +0.000 S 
ATOM      6  C   UNL     1      -0.339  11.449  21.163  0.00  0.00    +0.000 A 
ATOM      7  C   UNL     1       0.034  11.271  19.839  0.00  0.00    +0.000 A 
ATOM      8  C   UNL     1       0.635   9.990  19.647  0.00  0.00    +0.000 A 
ATOM      9  C   UNL     1       1.251   9.419  18.459  0.00  0.00    +0.000 A 
ATOM     10  O   UNL     1       1.168   9.957  17.358  0.00  0.00    +0.000 OA
ATOM     11  C   UNL     1       0.018  12.416  18.864  0.00  0.00    +0.000 C 
ATOM     12  C   UNL     1      -0.514  13.711  19.509  0.00  0.00    +0.000 C 
ATOM     13  N   UNL     1      -0.145  13.860  20.958  0.00  0.00    +0.000 NA
ATOM     14  C   UNL     1      -0.766  12.751  21.760  0.00  0.00    +0.000 C 
ENDROOT
BRANCH  13  15
ATOM     15  S   UNL     1       1.493  14.088  21.338  0.00  0.00    +0.000 S 
ATOM     16  O   UNL     1       1.564  14.857  22.562  0.00  0.00    +0.000 OA
ATOM     17  O   UNL     1       2.211  12.846  21.214  0.00  0.00    +0.000 OA
BRANCH  15  18
ATOM     18  N   UNL     1       2.018  15.097  20.078  0.00  0.00    +0.000 NA
ATOM     19  C   UNL     1       1.725  16.534  20.269  0.00  0.00    +0.000 C 
ATOM     20  C   UNL     1       3.454  14.873  19.769  0.00  0.00    +0.000 C 
ENDBRANCH  15  18
ENDBRANCH  13  15
BRANCH   1  21
ATOM     21  C   UNL     1       2.557   7.516  17.578  0.00  0.00    +0.000 C 
BRANCH  21  22
ATOM     22  C   UNL     1       3.941   6.865  17.876  0.00  0.00    +0.000 C 
ATOM     23  C   UNL     1       4.951   7.116  16.748  0.00  0.00    +0.000 C 
BRANCH  22  28
ATOM     24  C   UNL     1       2.553   3.327  18.241  0.00  0.00    +0.000 A 
ATOM     25  C   UNL     1       3.516   2.708  19.030  0.00  0.00    +0.000 A 
ATOM     26  C   UNL     1       4.625   3.419  19.491  0.00  0.00    +0.000 A 
ATOM     27  C   UNL     1       4.795   4.768  19.163  0.00  0.00    +0.000 A 
ATOM     28  C   UNL     1       3.825   5.421  18.373  0.00  0.00    +0.000 A 
ATOM     29  C   UNL     1       2.707   4.676  17.920  0.00  0.00    +0.000 A 
BRANCH  24  31
ATOM     30  C   UNL     1       0.645   2.045  18.856  0.00  0.00    +0.000 C 
ATOM     31  O   UNL     1       1.530   2.512  17.847  0.00  0.00    +0.000 OA
ENDBRANCH  24  31
BRANCH  27  32
ATOM     32  O   UNL     1       5.887   5.500  19.544  0.00  0.00    +0.000 OA
ATOM     33  C   UNL     1       7.110   5.271  18.852  0.00  0.00    +0.000 C 
ENDBRANCH  27  32
ENDBRANCH  22  28
ENDBRANCH  21  22
ENDBRANCH   1  21
TORSDOF 7
ENDMDL
MODEL 3
REMARK VINA RESULT:      -7.4      1.483      2.850
REMARK  Name = 
REMARK  12 active torsions:
REMARK  status: ('A' for Active; 'I' for Inactive)
REMARK    1  A    between atoms: C_1  and  O_2
REMARK    2  A    between atoms: O_2  and  C_3
REMARK    3  A    between atoms: C_6  and  O_7
REMARK    4  A    between atoms: O_7  and  C_8
REMARK    5  A    between atoms: C_9  and  C_10
REMARK    6  A    between atoms: C_10  and  C_11
REMARK    7  A    between atoms: C_10  and  C_12
REMARK    8  A    between atoms: C_12  and  N_13
REMARK    9  A    between atoms: N_25  and  S_26
REMARK   10  A    between atoms: S_26  and  N_29
REMARK   11  A    between atoms: N_29  and  C_30
REMARK   12  A    between atoms: N_29  and  C_31
REMARK                            x       y       z     vdW  Elec       q    Type
REMARK                         _______ _______ _______ _____ _____    ______ ____
ROOT
ATOM      1  N   UNL     1       1.700   8.433  19.957  0.00  0.00    +0.000 N 
ATOM      2  C   UNL     1       1.498   8.254  21.314  0.00  0.00    +0.000 A 
ATOM      3  N   UNL     1       0.696   8.931  22.071  0.00  0.00    +0.000 NA
ATOM      4  C   UNL     1       0.102   9.969  21.441  0.00  0.00    +0.000 A 
ATOM      5  S   UNL     1      -0.960  11.012  22.274  0.00  0.00    +0.000 S 
ATOM      6  C   UNL     1      -0.907  12.139  21.005  0.00  0.00    +0.000 A 
ATOM      7  C   UNL     1      -0.248  11.656  19.885  0.00  0.00    +0.000 A 
ATOM      8  C   UNL     1       0.310  10.366  20.139  0.00  0.00    +0.000 A 
ATOM      9  C   UNL     1       1.153   9.533  19.295  0.00  0.00    +0.000 A 
ATOM     10  O   UNL     1       1.358   9.798  18.113  0.00  0.00    +0.000 OA
ATOM     11  C   UNL     1       0.028  12.540  18.700  0.00  0.00    +0.000 C 
ATOM     12  C   UNL     1      -0.567  13.950  18.886  0.00  0.00    +0.000 C 
ATOM     13  N   UNL     1      -0.538  14.434  20.309  0.00  0.00    +0.000 NA
ATOM     14  C   UNL     1      -1.388  13.544  21.170  0.00  0.00    +0.000 C 
ENDROOT
BRANCH  13  15
ATOM     15  S   UNL     1       0.977  14.746  21.008  0.00  0.00    +0.000 S 
ATOM     16  O   UNL     1       0.902  14.394  22.410  0.00  0.00    +0.000 OA
ATOM     17  O   UNL     1       2.028  14.217  20.178  0.00  0.00    +0.000 OA
BRANCH  15  18
ATOM     18  N   UNL     1       1.074  16.439  20.918  0.00  0.00    +0.000 NA
ATOM     19  C   UNL     1       1.736  16.960  19.703  0.00  0.00    +0.000 C 
ATOM     20  C   UNL     1      -0.256  17.069  21.124  0.00  0.00    +0.000 C 
ENDBRANCH  15  18
ENDBRANCH  13  15
BRANCH   1  21
ATOM     21  C   UNL     1       2.519   7.477  19.209  0.00  0.00    +0.000 C 
BRANCH  21  22
ATOM     22  C   UNL     1       2.006   6.005  19.211  0.00  0.00    +0.000 C 
ATOM     23  C   UNL     1       1.755   5.485  20.633  0.00  0.00    +0.000 C 
BRANCH  22  28
ATOM     24  C   UNL     1       5.027   4.619  17.333  0.00  0.00    +0.000 A 
ATOM     25  C   UNL     1       4.519   3.453  16.769  0.00  0.00    +0.000 A 
ATOM     26  C   UNL     1       3.183   3.095  16.953  0.00  0.00    +0.000 A 
ATOM     27  C   UNL     1       2.327   3.898  17.715  0.00  0.00    +0.000 A 
ATOM     28  C   UNL     1       2.817   5.091  18.288  0.00  0.00    +0.000 A 
ATOM     29  C   UNL     1       4.178   5.432  18.084  0.00  0.00    +0.000 A 
BRANCH  24  31
ATOM     30  C   UNL     1       6.832   4.532  15.785  0.00  0.00    +0.000 C 
ATOM     31  O   UNL     1       6.353   4.839  17.087  0.00  0.00    +0.000 OA
ENDBRANCH  24  31
BRANCH  27  32
ATOM     32  O   UNL     1       1.023   3.571  17.970  0.00  0.00    +0.000 OA
ATOM     33  C   UNL     1       0.776   2.425  18.778  0.00  0.00    +0.000 C 
ENDBRANCH  27  32
ENDBRANCH  22  28
ENDBRANCH  21  22
ENDBRANCH   1  21
TORSDOF 7
ENDMDL
MODEL 4
REMARK VINA RESULT:      -7.2      1.424      2.887
REMARK  Name = 
REMARK  12 active torsions:
REMARK  status: ('A' for Active; 'I' for Inactive)
REMARK    1  A    between atoms: C_1  and  O_2
REMARK    2  A    between atoms: O_2  and  C_3
REMARK    3  A    between atoms: C_6  and  O_7
REMARK    4  A    between atoms: O_7  and  C_8
REMARK    5  A    between atoms: C_9  and  C_10
REMARK    6  A    between atoms: C_10  and  C_11
REMARK    7  A    between atoms: C_10  and  C_12
REMARK    8  A    between atoms: C_12  and  N_13
REMARK    9  A    between atoms: N_25  and  S_26
REMARK   10  A    between atoms: S_26  and  N_29
REMARK   11  A    between atoms: N_29  and  C_30
REMARK   12  A    between atoms: N_29  and  C_31
REMARK                            x       y       z     vdW  Elec       q    Type
REMARK                         _______ _______ _______ _____ _____    ______ ____
ROOT
ATOM      1  N   UNL     1       1.861   8.367  19.252  0.00  0.00    +0.000 N 
ATOM      2  C   UNL     1       2.009   7.938  20.559  0.00  0.00    +0.000 A 
ATOM      3  N   UNL     1       1.304   8.307  21.578  0.00  0.00    +0.000 NA
ATOM      4  C   UNL     1       0.416   9.287  21.298  0.00  0.00    +0.000 A 
ATOM      5  S   UNL     1      -0.583   9.945  22.514  0.00  0.00    +0.000 S 
ATOM      6  C   UNL     1      -1.011  11.245  21.511  0.00  0.00    +0.000 A 
ATOM      7  C   UNL     1      -0.557  11.092  20.210  0.00  0.00    +0.000 A 
ATOM      8  C   UNL     1       0.250   9.920  20.086  0.00  0.00    +0.000 A 
ATOM      9  C   UNL     1       1.001   9.422  18.944  0.00  0.00    +0.000 A 
ATOM     10  O   UNL     1       0.882   9.909  17.822  0.00  0.00    +0.000 OA
ATOM     11  C   UNL     1      -0.713  12.191  19.195  0.00  0.00    +0.000 C 
ATOM     12  C   UNL     1      -1.474  13.401  19.772  0.00  0.00    +0.000 C 
ATOM     13  N   UNL     1      -1.198  13.648  21.229  0.00  0.00    +0.000 NA
ATOM     14  C   UNL     1      -1.668  12.477  22.044  0.00  0.00    +0.000 C 
ENDROOT
BRANCH  13  15
ATOM     15  S   UNL     1       0.364  14.149  21.664  0.00  0.00    +0.000 S 
ATOM     16  O   UNL     1       0.264  14.902  22.896  0.00  0.00    +0.000 OA
ATOM     17  O   UNL     1       1.289  13.051  21.553  0.00  0.00    +0.000 OA
BRANCH  15  18
ATOM     18  N   UNL     1       0.746  15.251  20.430  0.00  0.00    +0.000 NA
ATOM     19  C   UNL     1       0.679  16.674  20.825  0.00  0.00    +0.000 C 
ATOM     20  C   UNL     1       2.051  14.924  19.799  0.00  0.00    +0.000 C 
ENDBRANCH  15  18
ENDBRANCH  13  15
BRANCH   1  21
ATOM     21  C   UNL     1       2.632   7.731  18.182  0.00  0.00    +0.000 C 
BRANCH  21  22
ATOM     22  C   UNL     1       2.617   6.173  18.178  0.00  0.00    +0.000 C 
ATOM     23  C   UNL     1       2.321   5.595  19.568  0.00  0.00    +0.000 C 
BRANCH  22  28
ATOM     24  C   UNL     1       6.149   5.882  16.756  0.00  0.00    +0.000 A 
ATOM     25  C   UNL     1       6.165   4.584  16.258  0.00  0.00    +0.000 A 
ATOM     26  C   UNL     1       5.030   3.775  16.339  0.00  0.00    +0.000 A 
ATOM     27  C   UNL     1       3.855   4.250  16.930  0.00  0.00    +0.000 A 
ATOM     28  C   UNL     1       3.812   5.568  17.433  0.00  0.00    +0.000 A 
ATOM     29  C   UNL     1       4.977   6.369  17.336  0.00  0.00    +0.000 A 
BRANCH  24  31
ATOM     30  C   UNL     1       7.597   7.588  17.567  0.00  0.00    +0.000 C 
ATOM     31  O   UNL     1       7.330   6.556  16.626  0.00  0.00    +0.000 OA
ENDBRANCH  24  31
BRANCH  27  32
ATOM     32  O   UNL     1       2.730   3.486  17.082  0.00  0.00    +0.000 OA
ATOM     33  C   UNL     1       2.852   2.272  17.817  0.00  0.00    +0.000 C 
ENDBRANCH  27  32
ENDBRANCH  22  28
ENDBRANCH  21  22
ENDBRANCH   1  21
TORSDOF 7
ENDMDL
MODEL 5
REMARK VINA RESULT:      -7.2      1.082      1.232
REMARK  Name = 
REMARK  12 active torsions:
REMARK  status: ('A' for Active; 'I' for Inactive)
REMARK    1  A    between atoms: C_1  and  O_2
REMARK    2  A    between atoms: O_2  and  C_3
REMARK    3  A    between atoms: C_6  and  O_7
REMARK    4  A    between atoms: O_7  and  C_8
REMARK    5  A    between atoms: C_9  and  C_10
REMARK    6  A    between atoms: C_10  and  C_11
REMARK    7  A    between atoms: C_10  and  C_12
REMARK    8  A    between atoms: C_12  and  N_13
REMARK    9  A    between atoms: N_25  and  S_26
REMARK   10  A    between atoms: S_26  and  N_29
REMARK   11  A    between atoms: N_29  and  C_30
REMARK   12  A    between atoms: N_29  and  C_31
REMARK                            x       y       z     vdW  Elec       q    Type
REMARK                         _______ _______ _______ _____ _____    ______ ____
ROOT
ATOM      1  N   UNL     1       1.948   8.035  18.952  0.00  0.00    +0.000 N 
ATOM      2  C   UNL     1       1.863   7.772  20.308  0.00  0.00    +0.000 A 
ATOM      3  N   UNL     1       1.314   8.522  21.207  0.00  0.00    +0.000 NA
ATOM      4  C   UNL     1       0.888   9.714  20.733  0.00  0.00    +0.000 A 
ATOM      5  S   UNL     1       0.172  10.867  21.767  0.00  0.00    +0.000 S 
ATOM      6  C   UNL     1       0.322  12.075  20.584  0.00  0.00    +0.000 A 
ATOM      7  C   UNL     1       0.735  11.578  19.357  0.00  0.00    +0.000 A 
ATOM      8  C   UNL     1       1.030  10.183  19.446  0.00  0.00    +0.000 A 
ATOM      9  C   UNL     1       1.577   9.281  18.445  0.00  0.00    +0.000 A 
ATOM     10  O   UNL     1       1.702   9.611  17.268  0.00  0.00    +0.000 OA
ATOM     11  C   UNL     1       1.060  12.497  18.213  0.00  0.00    +0.000 C 
ATOM     12  C   UNL     1       0.803  13.974  18.572  0.00  0.00    +0.000 C 
ATOM     13  N   UNL     1       1.093  14.304  20.010  0.00  0.00    +0.000 NA
ATOM     14  C   UNL     1       0.173  13.527  20.908  0.00  0.00    +0.000 C 
ENDROOT
BRANCH  13  15
ATOM     15  S   UNL     1       2.707  14.233  20.528  0.00  0.00    +0.000 S 
ATOM     16  O   UNL     1       2.784  13.286  21.620  0.00  0.00    +0.000 OA
ATOM     17  O   UNL     1       3.589  14.116  19.397  0.00  0.00    +0.000 OA
BRANCH  15  18
ATOM     18  N   UNL     1       2.942  15.780  21.187  0.00  0.00    +0.000 NA
ATOM     19  C   UNL     1       4.314  16.050  21.666  0.00  0.00    +0.000 C 
ATOM     20  C   UNL     1       2.474  16.841  20.258  0.00  0.00    +0.000 C 
ENDBRANCH  15  18
ENDBRANCH  13  15
BRANCH   1  21
ATOM     21  C   UNL     1       2.456   7.008  18.039  0.00  0.00    +0.000 C 
BRANCH  21  22
ATOM     22  C   UNL     1       3.858   6.427  18.396  0.00  0.00    +0.000 C 
ATOM     23  C   UNL     1       4.959   6.973  17.478  0.00  0.00    +0.000 C 
BRANCH  22  28
ATOM     24  C   UNL     1       3.281   3.078  20.136  0.00  0.00    +0.000 A 
ATOM     25  C   UNL     1       3.567   2.163  19.128  0.00  0.00    +0.000 A 
ATOM     26  C   UNL     1       3.981   2.598  17.868  0.00  0.00    +0.000 A 
ATOM     27  C   UNL     1       4.111   3.963  17.590  0.00  0.00    +0.000 A 
ATOM     28  C   UNL     1       3.837   4.909  18.601  0.00  0.00    +0.000 A 
ATOM     29  C   UNL     1       3.420   4.441  19.873  0.00  0.00    +0.000 A 
BRANCH  24  31
ATOM     30  C   UNL     1       1.509   2.691  21.676  0.00  0.00    +0.000 C 
ATOM     31  O   UNL     1       2.872   2.517  21.313  0.00  0.00    +0.000 OA
ENDBRANCH  24  31
BRANCH  27  32
ATOM     32  O   UNL     1       4.463   4.448  16.360  0.00  0.00    +0.000 OA
ATOM     33  C   UNL     1       5.605   3.877  15.728  0.00  0.00    +0.000 C 
ENDBRANCH  27  32
ENDBRANCH  22  28
ENDBRANCH  21  22
ENDBRANCH   1  21
TORSDOF 7
ENDMDL
MODEL 6
REMARK VINA RESULT:      -7.2      2.611      4.511
REMARK  Name = 
REMARK  12 active torsions:
REMARK  status: ('A' for Active; 'I' for Inactive)
REMARK    1  A    between atoms: C_1  and  O_2
REMARK    2  A    between atoms: O_2  and  C_3
REMARK    3  A    between atoms: C_6  and  O_7
REMARK    4  A    between atoms: O_7  and  C_8
REMARK    5  A    between atoms: C_9  and  C_10
REMARK    6  A    between atoms: C_10  and  C_11
REMARK    7  A    between atoms: C_10  and  C_12
REMARK    8  A    between atoms: C_12  and  N_13
REMARK    9  A    between atoms: N_25  and  S_26
REMARK   10  A    between atoms: S_26  and  N_29
REMARK   11  A    between atoms: N_29  and  C_30
REMARK   12  A    between atoms: N_29  and  C_31
REMARK                            x       y       z     vdW  Elec       q    Type
REMARK                         _______ _______ _______ _____ _____    ______ ____
ROOT
ATOM      1  N   UNL     1       1.659   8.391  19.385  0.00  0.00    +0.000 N 
ATOM      2  C   UNL     1       1.778   8.998  18.148  0.00  0.00    +0.000 A 
ATOM      3  N   UNL     1       1.679  10.262  17.896  0.00  0.00    +0.000 NA
ATOM      4  C   UNL     1       1.322  11.004  18.968  0.00  0.00    +0.000 A 
ATOM      5  S   UNL     1       1.097  12.690  18.837  0.00  0.00    +0.000 S 
ATOM      6  C   UNL     1       0.333  12.742  20.352  0.00  0.00    +0.000 A 
ATOM      7  C   UNL     1       0.410  11.538  21.035  0.00  0.00    +0.000 A 
ATOM      8  C   UNL     1       1.025  10.533  20.228  0.00  0.00    +0.000 A 
ATOM      9  C   UNL     1       1.228   9.118  20.496  0.00  0.00    +0.000 A 
ATOM     10  O   UNL     1       1.022   8.628  21.603  0.00  0.00    +0.000 OA
ATOM     11  C   UNL     1      -0.316  11.331  22.335  0.00  0.00    +0.000 C 
ATOM     12  C   UNL     1      -1.047  12.609  22.793  0.00  0.00    +0.000 C 
ATOM     13  N   UNL     1      -1.592  13.432  21.660  0.00  0.00    +0.000 NA
ATOM     14  C   UNL     1      -0.464  13.926  20.799  0.00  0.00    +0.000 C 
ENDROOT
BRANCH  13  15
ATOM     15  S   UNL     1      -2.860  12.775  20.743  0.00  0.00    +0.000 S 
ATOM     16  O   UNL     1      -2.345  12.467  19.425  0.00  0.00    +0.000 OA
ATOM     17  O   UNL     1      -3.560  11.774  21.505  0.00  0.00    +0.000 OA
BRANCH  15  18
ATOM     18  N   UNL     1      -3.908  14.100  20.576  0.00  0.00    +0.000 NA
ATOM     19  C   UNL     1      -5.297  13.752  20.207  0.00  0.00    +0.000 C 
ATOM     20  C   UNL     1      -3.869  14.975  21.777  0.00  0.00    +0.000 C 
ENDBRANCH  15  18
ENDBRANCH  13  15
BRANCH   1  21
ATOM     21  C   UNL     1       1.960   6.965  19.532  0.00  0.00    +0.000 C 
BRANCH  21  22
ATOM     22  C   UNL     1       2.476   6.251  18.245  0.00  0.00    +0.000 C 
ATOM     23  C   UNL     1       1.580   5.073  17.841  0.00  0.00    +0.000 C 
BRANCH  22  28
ATOM     24  C   UNL     1       6.199   6.733  17.552  0.00  0.00    +0.000 A 
ATOM     25  C   UNL     1       6.781   5.749  18.345  0.00  0.00    +0.000 A 
ATOM     26  C   UNL     1       5.990   4.884  19.102  0.00  0.00    +0.000 A 
ATOM     27  C   UNL     1       4.595   4.992  19.086  0.00  0.00    +0.000 A 
ATOM     28  C   UNL     1       3.982   5.977  18.281  0.00  0.00    +0.000 A 
ATOM     29  C   UNL     1       4.809   6.841  17.520  0.00  0.00    +0.000 A 
BRANCH  24  31
ATOM     30  C   UNL     1       7.798   8.494  17.631  0.00  0.00    +0.000 C 
ATOM     31  O   UNL     1       7.089   7.520  16.877  0.00  0.00    +0.000 OA
ENDBRANCH  24  31
BRANCH  27  32
ATOM     32  O   UNL     1       3.773   4.206  19.846  0.00  0.00    +0.000 OA
ATOM     33  C   UNL     1       4.035   2.806  19.869  0.00  0.00    +0.000 C 
ENDBRANCH  27  32
ENDBRANCH  22  28
ENDBRANCH  21  22
ENDBRANCH   1  21
TORSDOF 7
ENDMDL
MODEL 7
REMARK VINA RESULT:      -7.2      0.896      1.031
REMARK  Name = 
REMARK  12 active torsions:
REMARK  status: ('A' for Active; 'I' for Inactive)
REMARK    1  A    between atoms: C_1  and  O_2
REMARK    2  A    between atoms: O_2  and  C_3
REMARK    3  A    between atoms: C_6  and  O_7
REMARK    4  A    between atoms: O_7  and  C_8
REMARK    5  A    between atoms: C_9  and  C_10
REMARK    6  A    between atoms: C_10  and  C_11
REMARK    7  A    between atoms: C_10  and  C_12
REMARK    8  A    between atoms: C_12  and  N_13
REMARK    9  A    between atoms: N_25  and  S_26
REMARK   10  A    between atoms: S_26  and  N_29
REMARK   11  A    between atoms: N_29  and  C_30
REMARK   12  A    between atoms: N_29  and  C_31
REMARK                            x       y       z     vdW  Elec       q    Type
REMARK                         _______ _______ _______ _____ _____    ______ ____
ROOT
ATOM      1  N   UNL     1       2.349   7.824  18.813  0.00  0.00    +0.000 N 
ATOM      2  C   UNL     1       2.253   7.510  20.156  0.00  0.00    +0.000 A 
ATOM      3  N   UNL     1       1.466   8.060  21.023  0.00  0.00    +0.000 NA
ATOM      4  C   UNL     1       0.766   9.108  20.534  0.00  0.00    +0.000 A 
ATOM      5  S   UNL     1      -0.298   9.997  21.527  0.00  0.00    +0.000 S 
ATOM      6  C   UNL     1      -0.403  11.235  20.370  0.00  0.00    +0.000 A 
ATOM      7  C   UNL     1       0.206  10.901  19.170  0.00  0.00    +0.000 A 
ATOM      8  C   UNL     1       0.859   9.634  19.264  0.00  0.00    +0.000 A 
ATOM      9  C   UNL     1       1.690   8.940  18.293  0.00  0.00    +0.000 A 
ATOM     10  O   UNL     1       1.796   9.324  17.132  0.00  0.00    +0.000 OA
ATOM     11  C   UNL     1       0.343  11.905  18.059  0.00  0.00    +0.000 C 
ATOM     12  C   UNL     1      -0.324  13.249  18.416  0.00  0.00    +0.000 C 
ATOM     13  N   UNL     1      -0.225  13.604  19.873  0.00  0.00    +0.000 NA
ATOM     14  C   UNL     1      -0.957  12.584  20.698  0.00  0.00    +0.000 C 
ENDROOT
BRANCH  13  15
ATOM     15  S   UNL     1       1.312  13.953  20.500  0.00  0.00    +0.000 S 
ATOM     16  O   UNL     1       1.533  13.094  21.645  0.00  0.00    +0.000 OA
ATOM     17  O   UNL     1       2.282  14.017  19.438  0.00  0.00    +0.000 OA
BRANCH  15  18
ATOM     18  N   UNL     1       1.111  15.533  21.089  0.00  0.00    +0.000 NA
ATOM     19  C   UNL     1       0.443  16.464  20.154  0.00  0.00    +0.000 C 
ATOM     20  C   UNL     1       0.451  15.534  22.420  0.00  0.00    +0.000 C 
ENDBRANCH  15  18
ENDBRANCH  13  15
BRANCH   1  21
ATOM     21  C   UNL     1       3.172   6.998  17.926  0.00  0.00    +0.000 C 
BRANCH  21  22
ATOM     22  C   UNL     1       4.147   6.013  18.640  0.00  0.00    +0.000 C 
ATOM     23  C   UNL     1       5.615   6.318  18.313  0.00  0.00    +0.000 C 
BRANCH  22  28
ATOM     24  C   UNL     1       2.484   2.700  19.553  0.00  0.00    +0.000 A 
ATOM     25  C   UNL     1       2.684   1.939  18.407  0.00  0.00    +0.000 A 
ATOM     26  C   UNL     1       3.385   2.460  17.318  0.00  0.00    +0.000 A 
ATOM     27  C   UNL     1       3.896   3.762  17.354  0.00  0.00    +0.000 A 
ATOM     28  C   UNL     1       3.714   4.549  18.511  0.00  0.00    +0.000 A 
ATOM     29  C   UNL     1       3.000   3.995  19.603  0.00  0.00    +0.000 A 
BRANCH  24  31
ATOM     30  C   UNL     1       1.401   2.850  21.667  0.00  0.00    +0.000 C 
ATOM     31  O   UNL     1       1.769   2.074  20.534  0.00  0.00    +0.000 OA
ENDBRANCH  24  31
BRANCH  27  32
ATOM     32  O   UNL     1       4.546   4.342  16.299  0.00  0.00    +0.000 OA
ATOM     33  C   UNL     1       5.754   3.734  15.854  0.00  0.00    +0.000 C 
ENDBRANCH  27  32
ENDBRANCH  22  28
ENDBRANCH  21  22
ENDBRANCH   1  21
TORSDOF 7
ENDMDL
MODEL 8
REMARK VINA RESULT:      -7.1      1.451      1.595
REMARK  Name = 
REMARK  12 active torsions:
REMARK  status: ('A' for Active; 'I' for Inactive)
REMARK    1  A    between atoms: C_1  and  O_2
REMARK    2  A    between atoms: O_2  and  C_3
REMARK    3  A    between atoms: C_6  and  O_7
REMARK    4  A    between atoms: O_7  and  C_8
REMARK    5  A    between atoms: C_9  and  C_10
REMARK    6  A    between atoms: C_10  and  C_11
REMARK    7  A    between atoms: C_10  and  C_12
REMARK    8  A    between atoms: C_12  and  N_13
REMARK    9  A    between atoms: N_25  and  S_26
REMARK   10  A    between atoms: S_26  and  N_29
REMARK   11  A    between atoms: N_29  and  C_30
REMARK   12  A    between atoms: N_29  and  C_31
REMARK                            x       y       z     vdW  Elec       q    Type
REMARK                         _______ _______ _______ _____ _____    ______ ____
ROOT
ATOM      1  N   UNL     1       1.714   8.331  19.090  0.00  0.00    +0.000 N 
ATOM      2  C   UNL     1       1.645   8.060  20.444  0.00  0.00    +0.000 A 
ATOM      3  N   UNL     1       1.122   8.813  21.357  0.00  0.00    +0.000 NA
ATOM      4  C   UNL     1       0.711  10.016  20.898  0.00  0.00    +0.000 A 
ATOM      5  S   UNL     1       0.031  11.174  21.949  0.00  0.00    +0.000 S 
ATOM      6  C   UNL     1       0.186  12.388  20.773  0.00  0.00    +0.000 A 
ATOM      7  C   UNL     1       0.572  11.892  19.537  0.00  0.00    +0.000 A 
ATOM      8  C   UNL     1       0.843  10.492  19.612  0.00  0.00    +0.000 A 
ATOM      9  C   UNL     1       1.359   9.587  18.596  0.00  0.00    +0.000 A 
ATOM     10  O   UNL     1       1.473   9.923  17.420  0.00  0.00    +0.000 OA
ATOM     11  C   UNL     1       0.897  12.814  18.394  0.00  0.00    +0.000 C 
ATOM     12  C   UNL     1       0.672  14.292  18.768  0.00  0.00    +0.000 C 
ATOM     13  N   UNL     1       0.988  14.606  20.203  0.00  0.00    +0.000 NA
ATOM     14  C   UNL     1       0.067  13.840  21.109  0.00  0.00    +0.000 C 
ENDROOT
BRANCH  13  15
ATOM     15  S   UNL     1       2.608  14.503  20.698  0.00  0.00    +0.000 S 
ATOM     16  O   UNL     1       2.628  14.031  22.066  0.00  0.00    +0.000 OA
ATOM     17  O   UNL     1       3.397  13.847  19.688  0.00  0.00    +0.000 OA
BRANCH  15  18
ATOM     18  N   UNL     1       3.082  16.133  20.721  0.00  0.00    +0.000 NA
ATOM     19  C   UNL     1       3.395  16.710  19.396  0.00  0.00    +0.000 C 
ATOM     20  C   UNL     1       2.102  16.972  21.459  0.00  0.00    +0.000 C 
ENDBRANCH  15  18
ENDBRANCH  13  15
BRANCH   1  21
ATOM     21  C   UNL     1       2.191   7.302  18.162  0.00  0.00    +0.000 C 
BRANCH  21  22
ATOM     22  C   UNL     1       3.687   6.894  18.323  0.00  0.00    +0.000 C 
ATOM     23  C   UNL     1       4.511   7.218  17.070  0.00  0.00    +0.000 C 
BRANCH  22  28
ATOM     24  C   UNL     1       2.719   3.492  19.760  0.00  0.00    +0.000 A 
ATOM     25  C   UNL     1       3.945   2.839  19.834  0.00  0.00    +0.000 A 
ATOM     26  C   UNL     1       5.121   3.485  19.450  0.00  0.00    +0.000 A 
ATOM     27  C   UNL     1       5.092   4.801  18.977  0.00  0.00    +0.000 A 
ATOM     28  C   UNL     1       3.861   5.487  18.904  0.00  0.00    +0.000 A 
ATOM     29  C   UNL     1       2.682   4.809  19.301  0.00  0.00    +0.000 A 
BRANCH  24  31
ATOM     30  C   UNL     1       1.417   2.613  21.548  0.00  0.00    +0.000 C 
ATOM     31  O   UNL     1       1.649   2.739  20.151  0.00  0.00    +0.000 OA
ENDBRANCH  24  31
BRANCH  27  32
ATOM     32  O   UNL     1       6.205   5.465  18.540  0.00  0.00    +0.000 OA
ATOM     33  C   UNL     1       7.180   4.717  17.819  0.00  0.00    +0.000 C 
ENDBRANCH  27  32
ENDBRANCH  22  28
ENDBRANCH  21  22
ENDBRANCH   1  21
TORSDOF 7
ENDMDL
MODEL 9
REMARK VINA RESULT:      -7.1      1.947      3.658
REMARK  Name = 
REMARK  12 active torsions:
REMARK  status: ('A' for Active; 'I' for Inactive)
REMARK    1  A    between atoms: C_1  and  O_2
REMARK    2  A    between atoms: O_2  and  C_3
REMARK    3  A    between atoms: C_6  and  O_7
REMARK    4  A    between atoms: O_7  and  C_8
REMARK    5  A    between atoms: C_9  and  C_10
REMARK    6  A    between atoms: C_10  and  C_11
REMARK    7  A    between atoms: C_10  and  C_12
REMARK    8  A    between atoms: C_12  and  N_13
REMARK    9  A    between atoms: N_25  and  S_26
REMARK   10  A    between atoms: S_26  and  N_29
REMARK   11  A    between atoms: N_29  and  C_30
REMARK   12  A    between atoms: N_29  and  C_31
REMARK                            x       y       z     vdW  Elec       q    Type
REMARK                         _______ _______ _______ _____ _____    ______ ____
ROOT
ATOM      1  N   UNL     1       1.342   9.902  18.397  0.00  0.00    +0.000 N 
ATOM      2  C   UNL     1       0.133   9.537  18.962  0.00  0.00    +0.000 A 
ATOM      3  N   UNL     1      -0.824  10.330  19.319  0.00  0.00    +0.000 NA
ATOM      4  C   UNL     1      -0.515  11.641  19.202  0.00  0.00    +0.000 A 
ATOM      5  S   UNL     1      -1.625  12.852  19.660  0.00  0.00    +0.000 S 
ATOM      6  C   UNL     1      -0.412  14.038  19.601  0.00  0.00    +0.000 A 
ATOM      7  C   UNL     1       0.775  13.566  19.061  0.00  0.00    +0.000 A 
ATOM      8  C   UNL     1       0.693  12.165  18.797  0.00  0.00    +0.000 A 
ATOM      9  C   UNL     1       1.715  11.245  18.323  0.00  0.00    +0.000 A 
ATOM     10  O   UNL     1       2.805  11.636  17.911  0.00  0.00    +0.000 OA
ATOM     11  C   UNL     1       2.015  14.417  19.042  0.00  0.00    +0.000 C 
ATOM     12  C   UNL     1       1.752  15.826  19.608  0.00  0.00    +0.000 C 
ATOM     13  N   UNL     1       0.746  15.850  20.725  0.00  0.00    +0.000 NA
ATOM     14  C   UNL     1      -0.590  15.388  20.218  0.00  0.00    +0.000 C 
ENDROOT
BRANCH  13  15
ATOM     15  S   UNL     1       1.171  15.106  22.189  0.00  0.00    +0.000 S 
ATOM     16  O   UNL     1      -0.027  14.528  22.760  0.00  0.00    +0.000 OA
ATOM     17  O   UNL     1       2.356  14.306  22.017  0.00  0.00    +0.000 OA
BRANCH  15  18
ATOM     18  N   UNL     1       1.600  16.433  23.157  0.00  0.00    +0.000 NA
ATOM     19  C   UNL     1       3.027  16.818  23.088  0.00  0.00    +0.000 C 
ATOM     20  C   UNL     1       0.712  17.597  22.904  0.00  0.00    +0.000 C 
ENDBRANCH  15  18
ENDBRANCH  13  15
BRANCH   1  21
ATOM     21  C   UNL     1       2.255   8.873  17.896  0.00  0.00    +0.000 C 
BRANCH  21  22
ATOM     22  C   UNL     1       2.124   7.473  18.568  0.00  0.00    +0.000 C 
ATOM     23  C   UNL     1       2.200   7.559  20.098  0.00  0.00    +0.000 C 
BRANCH  22  28
ATOM     24  C   UNL     1       5.089   5.975  16.686  0.00  0.00    +0.000 A 
ATOM     25  C   UNL     1       4.838   4.609  16.770  0.00  0.00    +0.000 A 
ATOM     26  C   UNL     1       3.692   4.133  17.410  0.00  0.00    +0.000 A 
ATOM     27  C   UNL     1       2.775   5.019  17.986  0.00  0.00    +0.000 A 
ATOM     28  C   UNL     1       3.004   6.409  17.904  0.00  0.00    +0.000 A 
ATOM     29  C   UNL     1       4.174   6.866  17.247  0.00  0.00    +0.000 A 
BRANCH  24  31
ATOM     30  C   UNL     1       6.921   5.262  15.346  0.00  0.00    +0.000 C 
ATOM     31  O   UNL     1       6.252   6.300  16.049  0.00  0.00    +0.000 OA
ENDBRANCH  24  31
BRANCH  27  32
ATOM     32  O   UNL     1       1.663   4.608  18.669  0.00  0.00    +0.000 OA
ATOM     33  C   UNL     1       1.158   3.307  18.385  0.00  0.00    +0.000 C 
ENDBRANCH  27  32
ENDBRANCH  22  28
ENDBRANCH  21  22
ENDBRANCH   1  21
TORSDOF 7
ENDMDL
