MODEL 1
REMARK VINA RESULT:      -6.5      0.000      0.000
REMARK  Name = 
REMARK  10 active torsions:
REMARK  status: ('A' for Active; 'I' for Inactive)
REMARK    1  A    between atoms: C_1  and  O_2
REMARK    2  A    between atoms: O_2  and  C_3
REMARK    3  A    between atoms: C_6  and  C_7
REMARK    4  A    between atoms: C_11  and  C_12
REMARK    5  A    between atoms: N_19  and  C_20
REMARK    6  A    between atoms: C_20  and  C_21
REMARK    7  A    between atoms: C_21  and  N_22
REMARK    8  A    between atoms: N_22  and  C_23
REMARK    9  A    between atoms: N_22  and  C_24
REMARK   10  A    between atoms: C_27  and  C_28
REMARK                            x       y       z     vdW  Elec       q    Type
REMARK                         _______ _______ _______ _____ _____    ______ ____
ROOT
ATOM      1  C   UNL     1       3.678   5.152  17.215  0.00  0.00    +0.000 C 
ATOM      2  C   UNL     1       2.994   6.593  17.201  0.00  0.00    +0.000 C 
ATOM      3  C   UNL     1       2.395   7.392  18.361  0.00  0.00    +0.000 A 
ATOM      4  C   UNL     1       2.095   8.756  18.134  0.00  0.00    +0.000 A 
ATOM      5  C   UNL     1       1.534   9.579  19.137  0.00  0.00    +0.000 A 
ATOM      6  C   UNL     1       1.226   9.023  20.383  0.00  0.00    +0.000 A 
ATOM      7  C   UNL     1       1.464   7.680  20.616  0.00  0.00    +0.000 A 
ATOM      8  C   UNL     1       2.043   6.884  19.620  0.00  0.00    +0.000 A 
ATOM      9  N   UNL     1       2.365   5.571  19.985  0.00  0.00    +0.000 N 
ATOM     10  C   UNL     1       3.677   5.243  19.695  0.00  0.00    +0.000 C 
ATOM     11  O   UNL     1       4.639   5.824  20.201  0.00  0.00    +0.000 OA
ATOM     12  C   UNL     1       3.838   4.322  18.527  0.00  0.00    +0.000 C 
ATOM     13  C   UNL     1       5.093   3.470  18.753  0.00  0.00    +0.000 C 
ENDROOT
BRANCH   1  17
ATOM     14  C   UNL     1       7.225   5.356  14.718  0.00  0.00    +0.000 A 
ATOM     15  C   UNL     1       6.175   4.504  14.376  0.00  0.00    +0.000 A 
ATOM     16  C   UNL     1       5.047   4.401  15.194  0.00  0.00    +0.000 A 
ATOM     17  C   UNL     1       4.958   5.146  16.377  0.00  0.00    +0.000 A 
ATOM     18  C   UNL     1       6.046   5.956  16.742  0.00  0.00    +0.000 A 
ATOM     19  C   UNL     1       7.173   6.055  15.916  0.00  0.00    +0.000 A 
BRANCH  14  21
ATOM     20  C   UNL     1       7.863   5.279  12.447  0.00  0.00    +0.000 C 
ATOM     21  O   UNL     1       8.246   5.428  13.812  0.00  0.00    +0.000 OA
ENDBRANCH  14  21
ENDBRANCH   1  17
BRANCH   5  22
ATOM     22  C   UNL     1       1.281  11.050  18.923  0.00  0.00    +0.000 C 
ATOM     23  F   UNL     1       2.190  11.654  18.111  0.00  0.00    +0.000 F 
ATOM     24  F   UNL     1       0.062  11.291  18.362  0.00  0.00    +0.000 F 
ATOM     25  F   UNL     1       1.294  11.751  20.091  0.00  0.00    +0.000 F 
ENDBRANCH   5  22
BRANCH   9  26
ATOM     26  C   UNL     1       1.240   4.615  19.929  0.00  0.00    +0.000 C 
BRANCH  26  27
ATOM     27  C   UNL     1       1.254   3.697  21.167  0.00  0.00    +0.000 C 
BRANCH  27  28
ATOM     28  N   UNL     1       1.670   2.303  20.932  0.00  0.00    +0.000 NA
ATOM     29  C   UNL     1       1.656   1.944  19.513  0.00  0.00    +0.000 C 
ATOM     30  C   UNL     1       3.027   2.125  21.470  0.00  0.00    +0.000 C 
ENDBRANCH  27  28
ENDBRANCH  26  27
ENDBRANCH   9  26
TORSDOF 6
ENDMDL
MODEL 2
REMARK VINA RESULT:      -6.3      3.898      6.743
REMARK  Name = 
REMARK  10 active torsions:
REMARK  status: ('A' for Active; 'I' for Inactive)
REMARK    1  A    between atoms: C_1  and  O_2
REMARK    2  A    between atoms: O_2  and  C_3
REMARK    3  A    between atoms: C_6  and  C_7
REMARK    4  A    between atoms: C_11  and  C_12
REMARK    5  A    between atoms: N_19  and  C_20
REMARK    6  A    between atoms: C_20  and  C_21
REMARK    7  A    between atoms: C_21  and  N_22
REMARK    8  A    between atoms: N_22  and  C_23
REMARK    9  A    between atoms: N_22  and  C_24
REMARK   10  A    between atoms: C_27  and  C_28
REMARK                            x       y       z     vdW  Elec       q    Type
REMARK                         _______ _______ _______ _____ _____    ______ ____
ROOT
ATOM      1  C   UNL     1       0.976   9.483  18.910  0.00  0.00    +0.000 C 
ATOM      2  C   UNL     1       1.731  10.716  18.236  0.00  0.00    +0.000 C 
ATOM      3  C   UNL     1       1.732  12.191  18.645  0.00  0.00    +0.000 A 
ATOM      4  C   UNL     1       2.695  13.038  18.046  0.00  0.00    +0.000 A 
ATOM      5  C   UNL     1       2.777  14.416  18.351  0.00  0.00    +0.000 A 
ATOM      6  C   UNL     1       1.853  14.974  19.240  0.00  0.00    +0.000 A 
ATOM      7  C   UNL     1       0.870  14.179  19.802  0.00  0.00    +0.000 A 
ATOM      8  C   UNL     1       0.818  12.811  19.510  0.00  0.00    +0.000 A 
ATOM      9  N   UNL     1      -0.127  12.060  20.220  0.00  0.00    +0.000 N 
ATOM     10  C   UNL     1       0.426  10.950  20.834  0.00  0.00    +0.000 C 
ATOM     11  O   UNL     1       1.297  11.031  21.702  0.00  0.00    +0.000 OA
ATOM     12  C   UNL     1       0.084   9.650  20.179  0.00  0.00    +0.000 C 
ATOM     13  C   UNL     1       0.061   8.558  21.256  0.00  0.00    +0.000 C 
ENDROOT
BRANCH   1  17
ATOM     14  C   UNL     1       3.423   5.900  19.084  0.00  0.00    +0.000 A 
ATOM     15  C   UNL     1       2.630   6.261  20.174  0.00  0.00    +0.000 A 
ATOM     16  C   UNL     1       1.870   7.433  20.143  0.00  0.00    +0.000 A 
ATOM     17  C   UNL     1       1.902   8.270  19.020  0.00  0.00    +0.000 A 
ATOM     18  C   UNL     1       2.748   7.927  17.953  0.00  0.00    +0.000 A 
ATOM     19  C   UNL     1       3.507   6.750  17.990  0.00  0.00    +0.000 A 
BRANCH  14  21
ATOM     20  C   UNL     1       5.261   4.574  18.424  0.00  0.00    +0.000 C 
ATOM     21  O   UNL     1       4.070   4.701  19.197  0.00  0.00    +0.000 OA
ENDBRANCH  14  21
ENDBRANCH   1  17
BRANCH   5  22
ATOM     22  C   UNL     1       3.847  15.307  17.772  0.00  0.00    +0.000 C 
ATOM     23  F   UNL     1       3.498  15.895  16.595  0.00  0.00    +0.000 F 
ATOM     24  F   UNL     1       4.184  16.326  18.612  0.00  0.00    +0.000 F 
ATOM     25  F   UNL     1       5.004  14.631  17.528  0.00  0.00    +0.000 F 
ENDBRANCH   5  22
BRANCH   9  26
ATOM     26  C   UNL     1      -1.499  12.108  19.673  0.00  0.00    +0.000 C 
BRANCH  26  27
ATOM     27  C   UNL     1      -1.460  12.224  18.137  0.00  0.00    +0.000 C 
BRANCH  27  28
ATOM     28  N   UNL     1      -2.511  11.492  17.408  0.00  0.00    +0.000 NA
ATOM     29  C   UNL     1      -2.130  10.109  17.114  0.00  0.00    +0.000 C 
ATOM     30  C   UNL     1      -3.735  11.501  18.221  0.00  0.00    +0.000 C 
ENDBRANCH  27  28
ENDBRANCH  26  27
ENDBRANCH   9  26
TORSDOF 6
ENDMDL
MODEL 3
REMARK VINA RESULT:      -6.3      0.275      1.141
REMARK  Name = 
REMARK  10 active torsions:
REMARK  status: ('A' for Active; 'I' for Inactive)
REMARK    1  A    between atoms: C_1  and  O_2
REMARK    2  A    between atoms: O_2  and  C_3
REMARK    3  A    between atoms: C_6  and  C_7
REMARK    4  A    between atoms: C_11  and  C_12
REMARK    5  A    between atoms: N_19  and  C_20
REMARK    6  A    between atoms: C_20  and  C_21
REMARK    7  A    between atoms: C_21  and  N_22
REMARK    8  A    between atoms: N_22  and  C_23
REMARK    9  A    between atoms: N_22  and  C_24
REMARK   10  A    between atoms: C_27  and  C_28
REMARK                            x       y       z     vdW  Elec       q    Type
REMARK                         _______ _______ _______ _____ _____    ______ ____
ROOT
ATOM      1  C   UNL     1       3.508   5.247  17.238  0.00  0.00    +0.000 C 
ATOM      2  C   UNL     1       2.783   6.666  17.302  0.00  0.00    +0.000 C 
ATOM      3  C   UNL     1       2.251   7.428  18.518  0.00  0.00    +0.000 A 
ATOM      4  C   UNL     1       1.894   8.785  18.340  0.00  0.00    +0.000 A 
ATOM      5  C   UNL     1       1.388   9.574  19.398  0.00  0.00    +0.000 A 
ATOM      6  C   UNL     1       1.191   8.988  20.653  0.00  0.00    +0.000 A 
ATOM      7  C   UNL     1       1.485   7.650  20.842  0.00  0.00    +0.000 A 
ATOM      8  C   UNL     1       2.010   6.888  19.791  0.00  0.00    +0.000 A 
ATOM      9  N   UNL     1       2.397   5.580  20.106  0.00  0.00    +0.000 N 
ATOM     10  C   UNL     1       3.693   5.297  19.712  0.00  0.00    +0.000 C 
ATOM     11  O   UNL     1       4.672   5.898  20.155  0.00  0.00    +0.000 OA
ATOM     12  C   UNL     1       3.791   4.401  18.518  0.00  0.00    +0.000 C 
ATOM     13  C   UNL     1       5.084   3.584  18.633  0.00  0.00    +0.000 C 
ENDROOT
BRANCH   1  17
ATOM     14  C   UNL     1       7.058   5.187  14.737  0.00  0.00    +0.000 A 
ATOM     15  C   UNL     1       6.922   6.149  15.738  0.00  0.00    +0.000 A 
ATOM     16  C   UNL     1       5.766   6.202  16.521  0.00  0.00    +0.000 A 
ATOM     17  C   UNL     1       4.720   5.294  16.306  0.00  0.00    +0.000 A 
ATOM     18  C   UNL     1       4.844   4.368  15.257  0.00  0.00    +0.000 A 
ATOM     19  C   UNL     1       6.006   4.319  14.477  0.00  0.00    +0.000 A 
BRANCH  14  21
ATOM     20  C   UNL     1       8.201   5.566  12.707  0.00  0.00    +0.000 C 
ATOM     21  O   UNL     1       8.256   5.185  14.079  0.00  0.00    +0.000 OA
ENDBRANCH  14  21
ENDBRANCH   1  17
BRANCH   5  22
ATOM     22  C   UNL     1       1.076  11.040  19.232  0.00  0.00    +0.000 C 
ATOM     23  F   UNL     1       1.113  11.747  20.394  0.00  0.00    +0.000 F 
ATOM     24  F   UNL     1       1.947  11.663  18.388  0.00  0.00    +0.000 F 
ATOM     25  F   UNL     1      -0.162  11.247  18.703  0.00  0.00    +0.000 F 
ENDBRANCH   5  22
BRANCH   9  26
ATOM     26  C   UNL     1       1.299   4.591  20.116  0.00  0.00    +0.000 C 
BRANCH  26  27
ATOM     27  C   UNL     1       1.456   3.628  21.310  0.00  0.00    +0.000 C 
BRANCH  27  28
ATOM     28  N   UNL     1       1.843   2.246  20.978  0.00  0.00    +0.000 NA
ATOM     29  C   UNL     1       1.667   1.939  19.557  0.00  0.00    +0.000 C 
ATOM     30  C   UNL     1       3.252   2.054  21.350  0.00  0.00    +0.000 C 
ENDBRANCH  27  28
ENDBRANCH  26  27
ENDBRANCH   9  26
TORSDOF 6
ENDMDL
MODEL 4
REMARK VINA RESULT:      -6.2      4.083      7.119
REMARK  Name = 
REMARK  10 active torsions:
REMARK  status: ('A' for Active; 'I' for Inactive)
REMARK    1  A    between atoms: C_1  and  O_2
REMARK    2  A    between atoms: O_2  and  C_3
REMARK    3  A    between atoms: C_6  and  C_7
REMARK    4  A    between atoms: C_11  and  C_12
REMARK    5  A    between atoms: N_19  and  C_20
REMARK    6  A    between atoms: C_20  and  C_21
REMARK    7  A    between atoms: C_21  and  N_22
REMARK    8  A    between atoms: N_22  and  C_23
REMARK    9  A    between atoms: N_22  and  C_24
REMARK   10  A    between atoms: C_27  and  C_28
REMARK                            x       y       z     vdW  Elec       q    Type
REMARK                         _______ _______ _______ _____ _____    ______ ____
ROOT
ATOM      1  C   UNL     1       0.919   9.636  18.874  0.00  0.00    +0.000 C 
ATOM      2  C   UNL     1       1.647  10.882  18.195  0.00  0.00    +0.000 C 
ATOM      3  C   UNL     1       1.655  12.351  18.625  0.00  0.00    +0.000 A 
ATOM      4  C   UNL     1       2.595  13.211  18.009  0.00  0.00    +0.000 A 
ATOM      5  C   UNL     1       2.681  14.584  18.332  0.00  0.00    +0.000 A 
ATOM      6  C   UNL     1       1.783  15.125  19.257  0.00  0.00    +0.000 A 
ATOM      7  C   UNL     1       0.822  14.318  19.839  0.00  0.00    +0.000 A 
ATOM      8  C   UNL     1       0.767  12.953  19.528  0.00  0.00    +0.000 A 
ATOM      9  N   UNL     1      -0.152  12.188  20.256  0.00  0.00    +0.000 N 
ATOM     10  C   UNL     1       0.424  11.072  20.836  0.00  0.00    +0.000 C 
ATOM     11  O   UNL     1       1.321  11.144  21.677  0.00  0.00    +0.000 OA
ATOM     12  C   UNL     1       0.066   9.780  20.173  0.00  0.00    +0.000 C 
ATOM     13  C   UNL     1       0.082   8.672  21.234  0.00  0.00    +0.000 C 
ENDROOT
BRANCH   1  17
ATOM     14  C   UNL     1       3.387   6.063  18.913  0.00  0.00    +0.000 A 
ATOM     15  C   UNL     1       2.610   6.390  20.024  0.00  0.00    +0.000 A 
ATOM     16  C   UNL     1       1.843   7.558  20.038  0.00  0.00    +0.000 A 
ATOM     17  C   UNL     1       1.852   8.425  18.936  0.00  0.00    +0.000 A 
ATOM     18  C   UNL     1       2.684   8.116  17.848  0.00  0.00    +0.000 A 
ATOM     19  C   UNL     1       3.449   6.943  17.841  0.00  0.00    +0.000 A 
BRANCH  14  21
ATOM     20  C   UNL     1       5.446   4.949  19.214  0.00  0.00    +0.000 C 
ATOM     21  O   UNL     1       4.042   4.865  18.983  0.00  0.00    +0.000 OA
ENDBRANCH  14  21
ENDBRANCH   1  17
BRANCH   5  22
ATOM     22  C   UNL     1       3.729  15.488  17.733  0.00  0.00    +0.000 C 
ATOM     23  F   UNL     1       4.060  16.547  18.521  0.00  0.00    +0.000 F 
ATOM     24  F   UNL     1       4.896  14.833  17.479  0.00  0.00    +0.000 F 
ATOM     25  F   UNL     1       3.334  16.015  16.540  0.00  0.00    +0.000 F 
ENDBRANCH   5  22
BRANCH   9  26
ATOM     26  C   UNL     1      -1.541  12.238  19.754  0.00  0.00    +0.000 C 
BRANCH  26  27
ATOM     27  C   UNL     1      -2.486  12.782  20.843  0.00  0.00    +0.000 C 
BRANCH  27  28
ATOM     28  N   UNL     1      -3.881  13.015  20.430  0.00  0.00    +0.000 NA
ATOM     29  C   UNL     1      -4.271  12.196  19.281  0.00  0.00    +0.000 C 
ATOM     30  C   UNL     1      -4.761  12.713  21.569  0.00  0.00    +0.000 C 
ENDBRANCH  27  28
ENDBRANCH  26  27
ENDBRANCH   9  26
TORSDOF 6
ENDMDL
MODEL 5
REMARK VINA RESULT:      -6.2      3.950      7.044
REMARK  Name = 
REMARK  10 active torsions:
REMARK  status: ('A' for Active; 'I' for Inactive)
REMARK    1  A    between atoms: C_1  and  O_2
REMARK    2  A    between atoms: O_2  and  C_3
REMARK    3  A    between atoms: C_6  and  C_7
REMARK    4  A    between atoms: C_11  and  C_12
REMARK    5  A    between atoms: N_19  and  C_20
REMARK    6  A    between atoms: C_20  and  C_21
REMARK    7  A    between atoms: C_21  and  N_22
REMARK    8  A    between atoms: N_22  and  C_23
REMARK    9  A    between atoms: N_22  and  C_24
REMARK   10  A    between atoms: C_27  and  C_28
REMARK                            x       y       z     vdW  Elec       q    Type
REMARK                         _______ _______ _______ _____ _____    ______ ____
ROOT
ATOM      1  C   UNL     1       0.973   9.529  18.891  0.00  0.00    +0.000 C 
ATOM      2  C   UNL     1       1.699  10.776  18.212  0.00  0.00    +0.000 C 
ATOM      3  C   UNL     1       1.704  12.245  18.641  0.00  0.00    +0.000 A 
ATOM      4  C   UNL     1       2.643  13.107  18.027  0.00  0.00    +0.000 A 
ATOM      5  C   UNL     1       2.725  14.481  18.348  0.00  0.00    +0.000 A 
ATOM      6  C   UNL     1       1.824  15.020  19.272  0.00  0.00    +0.000 A 
ATOM      7  C   UNL     1       0.863  14.211  19.852  0.00  0.00    +0.000 A 
ATOM      8  C   UNL     1       0.812  12.846  19.542  0.00  0.00    +0.000 A 
ATOM      9  N   UNL     1      -0.107  12.079  20.269  0.00  0.00    +0.000 N 
ATOM     10  C   UNL     1       0.471  10.965  20.851  0.00  0.00    +0.000 C 
ATOM     11  O   UNL     1       1.367  11.039  21.693  0.00  0.00    +0.000 OA
ATOM     12  C   UNL     1       0.118   9.671  20.188  0.00  0.00    +0.000 C 
ATOM     13  C   UNL     1       0.134   8.564  21.249  0.00  0.00    +0.000 C 
ENDROOT
BRANCH   1  17
ATOM     14  C   UNL     1       3.452   5.963  18.932  0.00  0.00    +0.000 A 
ATOM     15  C   UNL     1       2.653   6.274  20.032  0.00  0.00    +0.000 A 
ATOM     16  C   UNL     1       1.883   7.439  20.045  0.00  0.00    +0.000 A 
ATOM     17  C   UNL     1       1.909   8.320  18.955  0.00  0.00    +0.000 A 
ATOM     18  C   UNL     1       2.762   8.027  17.879  0.00  0.00    +0.000 A 
ATOM     19  C   UNL     1       3.531   6.856  17.871  0.00  0.00    +0.000 A 
BRANCH  14  21
ATOM     20  C   UNL     1       3.438   3.740  19.724  0.00  0.00    +0.000 C 
ATOM     21  O   UNL     1       4.110   4.767  18.999  0.00  0.00    +0.000 OA
ENDBRANCH  14  21
ENDBRANCH   1  17
BRANCH   5  22
ATOM     22  C   UNL     1       3.771  15.387  17.751  0.00  0.00    +0.000 C 
ATOM     23  F   UNL     1       3.404  15.949  16.567  0.00  0.00    +0.000 F 
ATOM     24  F   UNL     1       4.090  16.426  18.574  0.00  0.00    +0.000 F 
ATOM     25  F   UNL     1       4.942  14.734  17.510  0.00  0.00    +0.000 F 
ENDBRANCH   5  22
BRANCH   9  26
ATOM     26  C   UNL     1      -1.495  12.125  19.764  0.00  0.00    +0.000 C 
BRANCH  26  27
ATOM     27  C   UNL     1      -2.433  12.723  20.830  0.00  0.00    +0.000 C 
BRANCH  27  28
ATOM     28  N   UNL     1      -1.833  12.972  22.153  0.00  0.00    +0.000 NA
ATOM     29  C   UNL     1      -2.056  14.340  22.622  0.00  0.00    +0.000 C 
ATOM     30  C   UNL     1      -2.414  12.023  23.114  0.00  0.00    +0.000 C 
ENDBRANCH  27  28
ENDBRANCH  26  27
ENDBRANCH   9  26
TORSDOF 6
ENDMDL
MODEL 6
REMARK VINA RESULT:      -6.2      3.991      6.880
REMARK  Name = 
REMARK  10 active torsions:
REMARK  status: ('A' for Active; 'I' for Inactive)
REMARK    1  A    between atoms: C_1  and  O_2
REMARK    2  A    between atoms: O_2  and  C_3
REMARK    3  A    between atoms: C_6  and  C_7
REMARK    4  A    between atoms: C_11  and  C_12
REMARK    5  A    between atoms: N_19  and  C_20
REMARK    6  A    between atoms: C_20  and  C_21
REMARK    7  A    between atoms: C_21  and  N_22
REMARK    8  A    between atoms: N_22  and  C_23
REMARK    9  A    between atoms: N_22  and  C_24
REMARK   10  A    between atoms: C_27  and  C_28
REMARK                            x       y       z     vdW  Elec       q    Type
REMARK                         _______ _______ _______ _____ _____    ______ ____
ROOT
ATOM      1  C   UNL     1       0.897   9.563  18.924  0.00  0.00    +0.000 C 
ATOM      2  C   UNL     1       1.629  10.798  18.229  0.00  0.00    +0.000 C 
ATOM      3  C   UNL     1       1.639  12.273  18.640  0.00  0.00    +0.000 A 
ATOM      4  C   UNL     1       2.583  13.122  18.015  0.00  0.00    +0.000 A 
ATOM      5  C   UNL     1       2.670  14.500  18.319  0.00  0.00    +0.000 A 
ATOM      6  C   UNL     1       1.770  15.055  19.234  0.00  0.00    +0.000 A 
ATOM      7  C   UNL     1       0.805  14.257  19.823  0.00  0.00    +0.000 A 
ATOM      8  C   UNL     1       0.748  12.889  19.531  0.00  0.00    +0.000 A 
ATOM      9  N   UNL     1      -0.175  12.136  20.266  0.00  0.00    +0.000 N 
ATOM     10  C   UNL     1       0.397  11.026  20.864  0.00  0.00    +0.000 C 
ATOM     11  O   UNL     1       1.292  11.109  21.706  0.00  0.00    +0.000 OA
ATOM     12  C   UNL     1       0.040   9.726  20.217  0.00  0.00    +0.000 C 
ATOM     13  C   UNL     1       0.050   8.633  21.293  0.00  0.00    +0.000 C 
ENDROOT
BRANCH   1  17
ATOM     14  C   UNL     1       3.358   5.986  19.021  0.00  0.00    +0.000 A 
ATOM     15  C   UNL     1       2.579   6.331  20.125  0.00  0.00    +0.000 A 
ATOM     16  C   UNL     1       1.815   7.500  20.120  0.00  0.00    +0.000 A 
ATOM     17  C   UNL     1       1.828   8.351  19.006  0.00  0.00    +0.000 A 
ATOM     18  C   UNL     1       2.661   8.025  17.924  0.00  0.00    +0.000 A 
ATOM     19  C   UNL     1       3.424   6.850  17.936  0.00  0.00    +0.000 A 
BRANCH  14  21
ATOM     20  C   UNL     1       3.243   3.712  19.643  0.00  0.00    +0.000 C 
ATOM     21  O   UNL     1       4.011   4.788  19.110  0.00  0.00    +0.000 OA
ENDBRANCH  14  21
ENDBRANCH   1  17
BRANCH   5  22
ATOM     22  C   UNL     1       3.721  15.394  17.711  0.00  0.00    +0.000 C 
ATOM     23  F   UNL     1       4.915  14.775  17.498  0.00  0.00    +0.000 F 
ATOM     24  F   UNL     1       3.340  15.895  16.502  0.00  0.00    +0.000 F 
ATOM     25  F   UNL     1       3.992  16.476  18.492  0.00  0.00    +0.000 F 
ENDBRANCH   5  22
BRANCH   9  26
ATOM     26  C   UNL     1      -1.562  12.180  19.758  0.00  0.00    +0.000 C 
BRANCH  26  27
ATOM     27  C   UNL     1      -1.579  11.997  18.228  0.00  0.00    +0.000 C 
BRANCH  27  28
ATOM     28  N   UNL     1      -2.563  11.033  17.704  0.00  0.00    +0.000 NA
ATOM     29  C   UNL     1      -3.930  11.340  18.129  0.00  0.00    +0.000 C 
ATOM     30  C   UNL     1      -2.491  11.045  16.236  0.00  0.00    +0.000 C 
ENDBRANCH  27  28
ENDBRANCH  26  27
ENDBRANCH   9  26
TORSDOF 6
ENDMDL
MODEL 7
REMARK VINA RESULT:      -6.1      8.709      9.884
REMARK  Name = 
REMARK  10 active torsions:
REMARK  status: ('A' for Active; 'I' for Inactive)
REMARK    1  A    between atoms: C_1  and  O_2
REMARK    2  A    between atoms: O_2  and  C_3
REMARK    3  A    between atoms: C_6  and  C_7
REMARK    4  A    between atoms: C_11  and  C_12
REMARK    5  A    between atoms: N_19  and  C_20
REMARK    6  A    between atoms: C_20  and  C_21
REMARK    7  A    between atoms: C_21  and  N_22
REMARK    8  A    between atoms: N_22  and  C_23
REMARK    9  A    between atoms: N_22  and  C_24
REMARK   10  A    between atoms: C_27  and  C_28
REMARK                            x       y       z     vdW  Elec       q    Type
REMARK                         _______ _______ _______ _____ _____    ______ ____
ROOT
ATOM      1  C   UNL     1       0.902  13.527  20.425  0.00  0.00    +0.000 C 
ATOM      2  C   UNL     1       0.239  12.597  19.311  0.00  0.00    +0.000 C 
ATOM      3  C   UNL     1      -1.240  12.296  19.058  0.00  0.00    +0.000 A 
ATOM      4  C   UNL     1      -1.582  11.657  17.843  0.00  0.00    +0.000 A 
ATOM      5  C   UNL     1      -2.918  11.329  17.516  0.00  0.00    +0.000 A 
ATOM      6  C   UNL     1      -3.933  11.606  18.437  0.00  0.00    +0.000 A 
ATOM      7  C   UNL     1      -3.621  12.186  19.654  0.00  0.00    +0.000 A 
ATOM      8  C   UNL     1      -2.296  12.527  19.952  0.00  0.00    +0.000 A 
ATOM      9  N   UNL     1      -2.090  13.223  21.149  0.00  0.00    +0.000 N 
ATOM     10  C   UNL     1      -1.360  14.386  20.971  0.00  0.00    +0.000 C 
ATOM     11  O   UNL     1      -1.753  15.320  20.271  0.00  0.00    +0.000 OA
ATOM     12  C   UNL     1       0.048  14.310  21.469  0.00  0.00    +0.000 C 
ATOM     13  C   UNL     1       0.476  15.712  21.921  0.00  0.00    +0.000 C 
ENDROOT
BRANCH   1  17
ATOM     14  C   UNL     1       3.982  16.182  18.900  0.00  0.00    +0.000 A 
ATOM     15  C   UNL     1       2.733  16.128  18.281  0.00  0.00    +0.000 A 
ATOM     16  C   UNL     1       1.749  15.249  18.739  0.00  0.00    +0.000 A 
ATOM     17  C   UNL     1       2.007  14.398  19.823  0.00  0.00    +0.000 A 
ATOM     18  C   UNL     1       3.286  14.418  20.400  0.00  0.00    +0.000 A 
ATOM     19  C   UNL     1       4.268  15.303  19.937  0.00  0.00    +0.000 A 
BRANCH  14  21
ATOM     20  C   UNL     1       6.182  17.037  18.892  0.00  0.00    +0.000 C 
ATOM     21  O   UNL     1       4.843  17.125  18.413  0.00  0.00    +0.000 OA
ENDBRANCH  14  21
ENDBRANCH   1  17
BRANCH   5  22
ATOM     22  C   UNL     1      -3.296  10.716  16.191  0.00  0.00    +0.000 C 
ATOM     23  F   UNL     1      -3.105   9.369  16.133  0.00  0.00    +0.000 F 
ATOM     24  F   UNL     1      -4.607  10.920  15.880  0.00  0.00    +0.000 F 
ATOM     25  F   UNL     1      -2.583  11.243  15.157  0.00  0.00    +0.000 F 
ENDBRANCH   5  22
BRANCH   9  26
ATOM     26  C   UNL     1      -2.019  12.378  22.359  0.00  0.00    +0.000 C 
BRANCH  26  27
ATOM     27  C   UNL     1      -2.912  12.959  23.472  0.00  0.00    +0.000 C 
BRANCH  27  28
ATOM     28  N   UNL     1      -4.307  12.485  23.494  0.00  0.00    +0.000 NA
ATOM     29  C   UNL     1      -4.807  12.274  24.854  0.00  0.00    +0.000 C 
ATOM     30  C   UNL     1      -5.147  13.480  22.812  0.00  0.00    +0.000 C 
ENDBRANCH  27  28
ENDBRANCH  26  27
ENDBRANCH   9  26
TORSDOF 6
ENDMDL
MODEL 8
REMARK VINA RESULT:      -6.0      3.836      6.821
REMARK  Name = 
REMARK  10 active torsions:
REMARK  status: ('A' for Active; 'I' for Inactive)
REMARK    1  A    between atoms: C_1  and  O_2
REMARK    2  A    between atoms: O_2  and  C_3
REMARK    3  A    between atoms: C_6  and  C_7
REMARK    4  A    between atoms: C_11  and  C_12
REMARK    5  A    between atoms: N_19  and  C_20
REMARK    6  A    between atoms: C_20  and  C_21
REMARK    7  A    between atoms: C_21  and  N_22
REMARK    8  A    between atoms: N_22  and  C_23
REMARK    9  A    between atoms: N_22  and  C_24
REMARK   10  A    between atoms: C_27  and  C_28
REMARK                            x       y       z     vdW  Elec       q    Type
REMARK                         _______ _______ _______ _____ _____    ______ ____
ROOT
ATOM      1  C   UNL     1       0.989   9.454  18.875  0.00  0.00    +0.000 C 
ATOM      2  C   UNL     1       1.702  10.713  18.204  0.00  0.00    +0.000 C 
ATOM      3  C   UNL     1       1.787  12.158  18.702  0.00  0.00    +0.000 A 
ATOM      4  C   UNL     1       2.705  13.022  18.060  0.00  0.00    +0.000 A 
ATOM      5  C   UNL     1       2.856  14.375  18.440  0.00  0.00    +0.000 A 
ATOM      6  C   UNL     1       2.044  14.893  19.455  0.00  0.00    +0.000 A 
ATOM      7  C   UNL     1       1.104  14.083  20.067  0.00  0.00    +0.000 A 
ATOM      8  C   UNL     1       0.985  12.738  19.696  0.00  0.00    +0.000 A 
ATOM      9  N   UNL     1       0.098  11.963  20.453  0.00  0.00    +0.000 N 
ATOM     10  C   UNL     1       0.681  10.804  20.935  0.00  0.00    +0.000 C 
ATOM     11  O   UNL     1       1.639  10.810  21.709  0.00  0.00    +0.000 OA
ATOM     12  C   UNL     1       0.237   9.556  20.239  0.00  0.00    +0.000 C 
ATOM     13  C   UNL     1       0.296   8.397  21.242  0.00  0.00    +0.000 C 
ENDROOT
BRANCH   1  17
ATOM     14  C   UNL     1       3.717   6.076  18.835  0.00  0.00    +0.000 A 
ATOM     15  C   UNL     1       3.650   6.936  17.738  0.00  0.00    +0.000 A 
ATOM     16  C   UNL     1       2.747   8.002  17.725  0.00  0.00    +0.000 A 
ATOM     17  C   UNL     1       1.887   8.217  18.810  0.00  0.00    +0.000 A 
ATOM     18  C   UNL     1       1.923   7.312  19.883  0.00  0.00    +0.000 A 
ATOM     19  C   UNL     1       2.831   6.245  19.890  0.00  0.00    +0.000 A 
BRANCH  14  21
ATOM     20  C   UNL     1       4.349   3.967  17.986  0.00  0.00    +0.000 C 
ATOM     21  O   UNL     1       4.682   5.110  18.769  0.00  0.00    +0.000 OA
ENDBRANCH  14  21
ENDBRANCH   1  17
BRANCH   5  22
ATOM     22  C   UNL     1       3.884  15.279  17.809  0.00  0.00    +0.000 C 
ATOM     23  F   UNL     1       4.201  16.366  18.565  0.00  0.00    +0.000 F 
ATOM     24  F   UNL     1       5.062  14.637  17.568  0.00  0.00    +0.000 F 
ATOM     25  F   UNL     1       3.474  15.764  16.604  0.00  0.00    +0.000 F 
ENDBRANCH   5  22
BRANCH   9  26
ATOM     26  C   UNL     1      -1.321  12.074  20.058  0.00  0.00    +0.000 C 
BRANCH  26  27
ATOM     27  C   UNL     1      -2.121  12.828  21.138  0.00  0.00    +0.000 C 
BRANCH  27  28
ATOM     28  N   UNL     1      -1.697  12.601  22.531  0.00  0.00    +0.000 NA
ATOM     29  C   UNL     1      -1.187  13.817  23.168  0.00  0.00    +0.000 C 
ATOM     30  C   UNL     1      -2.849  12.096  23.292  0.00  0.00    +0.000 C 
ENDBRANCH  27  28
ENDBRANCH  26  27
ENDBRANCH   9  26
TORSDOF 6
ENDMDL
MODEL 9
REMARK VINA RESULT:      -5.9      3.909      6.655
REMARK  Name = 
REMARK  10 active torsions:
REMARK  status: ('A' for Active; 'I' for Inactive)
REMARK    1  A    between atoms: C_1  and  O_2
REMARK    2  A    between atoms: O_2  and  C_3
REMARK    3  A    between atoms: C_6  and  C_7
REMARK    4  A    between atoms: C_11  and  C_12
REMARK    5  A    between atoms: N_19  and  C_20
REMARK    6  A    between atoms: C_20  and  C_21
REMARK    7  A    between atoms: C_21  and  N_22
REMARK    8  A    between atoms: N_22  and  C_23
REMARK    9  A    between atoms: N_22  and  C_24
REMARK   10  A    between atoms: C_27  and  C_28
REMARK                            x       y       z     vdW  Elec       q    Type
REMARK                         _______ _______ _______ _____ _____    ______ ____
ROOT
ATOM      1  C   UNL     1       0.938   9.397  18.927  0.00  0.00    +0.000 C 
ATOM      2  C   UNL     1       1.664  10.642  18.244  0.00  0.00    +0.000 C 
ATOM      3  C   UNL     1       1.746  12.095  18.720  0.00  0.00    +0.000 A 
ATOM      4  C   UNL     1       2.675  12.946  18.076  0.00  0.00    +0.000 A 
ATOM      5  C   UNL     1       2.824  14.305  18.436  0.00  0.00    +0.000 A 
ATOM      6  C   UNL     1       2.000  14.842  19.430  0.00  0.00    +0.000 A 
ATOM      7  C   UNL     1       1.048  14.044  20.042  0.00  0.00    +0.000 A 
ATOM      8  C   UNL     1       0.931  12.694  19.692  0.00  0.00    +0.000 A 
ATOM      9  N   UNL     1       0.032  11.933  20.449  0.00  0.00    +0.000 N 
ATOM     10  C   UNL     1       0.605  10.781  20.959  0.00  0.00    +0.000 C 
ATOM     11  O   UNL     1       1.552  10.798  21.746  0.00  0.00    +0.000 OA
ATOM     12  C   UNL     1       0.168   9.523  20.278  0.00  0.00    +0.000 C 
ATOM     13  C   UNL     1       0.210   8.381  21.300  0.00  0.00    +0.000 C 
ENDROOT
BRANCH   1  17
ATOM     14  C   UNL     1       3.660   6.013  18.978  0.00  0.00    +0.000 A 
ATOM     15  C   UNL     1       3.598   6.846  17.861  0.00  0.00    +0.000 A 
ATOM     16  C   UNL     1       2.697   7.913  17.818  0.00  0.00    +0.000 A 
ATOM     17  C   UNL     1       1.834   8.157  18.895  0.00  0.00    +0.000 A 
ATOM     18  C   UNL     1       1.864   7.277  19.989  0.00  0.00    +0.000 A 
ATOM     19  C   UNL     1       2.770   6.210  20.026  0.00  0.00    +0.000 A 
BRANCH  14  21
ATOM     20  C   UNL     1       5.966   5.518  18.912  0.00  0.00    +0.000 C 
ATOM     21  O   UNL     1       4.623   5.043  18.939  0.00  0.00    +0.000 OA
ENDBRANCH  14  21
ENDBRANCH   1  17
BRANCH   5  22
ATOM     22  C   UNL     1       3.863  15.196  17.804  0.00  0.00    +0.000 C 
ATOM     23  F   UNL     1       4.215  16.263  18.572  0.00  0.00    +0.000 F 
ATOM     24  F   UNL     1       5.023  14.532  17.536  0.00  0.00    +0.000 F 
ATOM     25  F   UNL     1       3.447  15.709  16.613  0.00  0.00    +0.000 F 
ENDBRANCH   5  22
BRANCH   9  26
ATOM     26  C   UNL     1      -1.381  12.041  20.033  0.00  0.00    +0.000 C 
BRANCH  26  27
ATOM     27  C   UNL     1      -1.492  11.997  18.496  0.00  0.00    +0.000 C 
BRANCH  27  28
ATOM     28  N   UNL     1      -2.526  11.101  17.949  0.00  0.00    +0.000 NA
ATOM     29  C   UNL     1      -3.883  11.584  18.211  0.00  0.00    +0.000 C 
ATOM     30  C   UNL     1      -2.319  10.982  16.498  0.00  0.00    +0.000 C 
ENDBRANCH  27  28
ENDBRANCH  26  27
ENDBRANCH   9  26
TORSDOF 6
ENDMDL
