MODEL 1
REMARK VINA RESULT:      -7.6      0.000      0.000
REMARK  Name = 
REMARK  6 active torsions:
REMARK  status: ('A' for Active; 'I' for Inactive)
REMARK    1  A    between atoms: C_1  and  O_2
REMARK    2  A    between atoms: O_2  and  C_3
REMARK    3  A    between atoms: C_3  and  C_4
REMARK    4  A    between atoms: C_4  and  N_5
REMARK    5  A    between atoms: C_12  and  C_13
REMARK    6  A    between atoms: C_17  and  C_18
REMARK                            x       y       z     vdW  Elec       q    Type
REMARK                         _______ _______ _______ _____ _____    ______ ____
ROOT
ATOM      1  N   UNL     1       4.956   4.427  18.035  0.00  0.00    +0.000 NA
ATOM      2  C   UNL     1       4.164   3.625  18.930  0.00  0.00    +0.000 C 
ATOM      3  N   UNL     1       3.416   4.326  19.955  0.00  0.00    +0.000 NA
ATOM      4  C   UNL     1       3.069   5.528  19.700  0.00  0.00    +0.000 C 
ATOM      5  N   UNL     1       2.287   6.248  20.542  0.00  0.00    +0.000 N 
ATOM      6  C   UNL     1       1.721   7.495  20.352  0.00  0.00    +0.000 A 
ATOM      7  N   UNL     1       1.934   8.145  19.192  0.00  0.00    +0.000 NA
ATOM      8  C   UNL     1       1.366   9.363  19.035  0.00  0.00    +0.000 A 
ATOM      9  C   UNL     1       1.638  10.034  17.720  0.00  0.00    +0.000 C 
ATOM     10  C   UNL     1       0.596   9.965  20.032  0.00  0.00    +0.000 A 
ATOM     11  C   UNL     1       0.006  11.248  19.928  0.00  0.00    +0.000 A 
ATOM     12  C   UNL     1      -0.725  11.781  20.988  0.00  0.00    +0.000 A 
ATOM     13  C   UNL     1      -0.881  11.044  22.158  0.00  0.00    +0.000 A 
ATOM     14  C   UNL     1      -1.620  11.619  23.331  0.00  0.00    +0.000 C 
ATOM     15  C   UNL     1      -0.297   9.768  22.243  0.00  0.00    +0.000 A 
ATOM     16  C   UNL     1       0.439   9.210  21.199  0.00  0.00    +0.000 A 
ATOM     17  N   UNL     1       0.979   7.989  21.348  0.00  0.00    +0.000 NA
ATOM     18  N   UNL     1       3.475   6.187  18.535  0.00  0.00    +0.000 N 
ATOM     19  C   UNL     1       4.242   5.546  17.511  0.00  0.00    +0.000 C 
ATOM     20  H   UNL     1       1.977   5.799  21.388  0.00  0.00    +0.000 HD
ATOM     21  H   UNL     1       3.122   7.128  18.386  0.00  0.00    +0.000 HD
ENDROOT
BRANCH   1  22
ATOM     22  C   UNL     1       6.345   4.675  18.421  0.00  0.00    +0.000 C 
BRANCH  22  23
ATOM     23  C   UNL     1       7.328   4.616  17.229  0.00  0.00    +0.000 C 
BRANCH  23  25
ATOM     24  C   UNL     1       7.698   6.847  17.922  0.00  0.00    +0.000 C 
ATOM     25  O   UNL     1       7.680   5.942  16.825  0.00  0.00    +0.000 OA
ENDBRANCH  23  25
ENDBRANCH  22  23
ENDBRANCH   1  22
TORSDOF 3
ENDMDL
MODEL 2
REMARK VINA RESULT:      -7.2      1.019      1.102
REMARK  Name = 
REMARK  6 active torsions:
REMARK  status: ('A' for Active; 'I' for Inactive)
REMARK    1  A    between atoms: C_1  and  O_2
REMARK    2  A    between atoms: O_2  and  C_3
REMARK    3  A    between atoms: C_3  and  C_4
REMARK    4  A    between atoms: C_4  and  N_5
REMARK    5  A    between atoms: C_12  and  C_13
REMARK    6  A    between atoms: C_17  and  C_18
REMARK                            x       y       z     vdW  Elec       q    Type
REMARK                         _______ _______ _______ _____ _____    ______ ____
ROOT
ATOM      1  N   UNL     1       5.612   4.516  17.104  0.00  0.00    +0.000 NA
ATOM      2  C   UNL     1       4.912   3.572  17.934  0.00  0.00    +0.000 C 
ATOM      3  N   UNL     1       4.162   4.108  19.053  0.00  0.00    +0.000 NA
ATOM      4  C   UNL     1       3.727   5.303  18.940  0.00  0.00    +0.000 C 
ATOM      5  N   UNL     1       2.934   5.875  19.880  0.00  0.00    +0.000 N 
ATOM      6  C   UNL     1       2.281   7.092  19.844  0.00  0.00    +0.000 A 
ATOM      7  N   UNL     1       2.403   7.874  18.754  0.00  0.00    +0.000 NA
ATOM      8  C   UNL     1       1.750   9.058  18.747  0.00  0.00    +0.000 A 
ATOM      9  C   UNL     1       1.923   9.881  17.503  0.00  0.00    +0.000 C 
ATOM     10  C   UNL     1       0.984   9.498  19.828  0.00  0.00    +0.000 A 
ATOM     11  C   UNL     1       0.306  10.741  19.882  0.00  0.00    +0.000 A 
ATOM     12  C   UNL     1      -0.413  11.108  21.017  0.00  0.00    +0.000 A 
ATOM     13  C   UNL     1      -0.472  10.243  22.106  0.00  0.00    +0.000 A 
ATOM     14  C   UNL     1      -1.200  10.640  23.358  0.00  0.00    +0.000 C 
ATOM     15  C   UNL     1       0.197   9.009  22.034  0.00  0.00    +0.000 A 
ATOM     16  C   UNL     1       0.925   8.616  20.912  0.00  0.00    +0.000 A 
ATOM     17  N   UNL     1       1.549   7.427  20.912  0.00  0.00    +0.000 NA
ATOM     18  N   UNL     1       4.040   6.106  17.839  0.00  0.00    +0.000 N 
ATOM     19  C   UNL     1       4.805   5.631  16.727  0.00  0.00    +0.000 C 
ATOM     20  H   UNL     1       2.689   5.320  20.683  0.00  0.00    +0.000 HD
ATOM     21  H   UNL     1       3.620   7.031  17.803  0.00  0.00    +0.000 HD
ENDROOT
BRANCH   1  22
ATOM     22  C   UNL     1       6.997   4.819  17.466  0.00  0.00    +0.000 C 
BRANCH  22  23
ATOM     23  C   UNL     1       7.320   6.330  17.430  0.00  0.00    +0.000 C 
BRANCH  23  25
ATOM     24  C   UNL     1       7.735   5.804  19.698  0.00  0.00    +0.000 C 
ATOM     25  O   UNL     1       7.992   6.711  18.633  0.00  0.00    +0.000 OA
ENDBRANCH  23  25
ENDBRANCH  22  23
ENDBRANCH   1  22
TORSDOF 3
ENDMDL
MODEL 3
REMARK VINA RESULT:      -6.9      3.187      8.404
REMARK  Name = 
REMARK  6 active torsions:
REMARK  status: ('A' for Active; 'I' for Inactive)
REMARK    1  A    between atoms: C_1  and  O_2
REMARK    2  A    between atoms: O_2  and  C_3
REMARK    3  A    between atoms: C_3  and  C_4
REMARK    4  A    between atoms: C_4  and  N_5
REMARK    5  A    between atoms: C_12  and  C_13
REMARK    6  A    between atoms: C_17  and  C_18
REMARK                            x       y       z     vdW  Elec       q    Type
REMARK                         _______ _______ _______ _____ _____    ______ ____
ROOT
ATOM      1  N   UNL     1      -0.709  10.974  20.841  0.00  0.00    +0.000 NA
ATOM      2  C   UNL     1      -0.767  11.389  19.464  0.00  0.00    +0.000 C 
ATOM      3  N   UNL     1       0.316  10.958  18.601  0.00  0.00    +0.000 NA
ATOM      4  C   UNL     1       0.912   9.874  18.915  0.00  0.00    +0.000 C 
ATOM      5  N   UNL     1       1.873   9.325  18.132  0.00  0.00    +0.000 N 
ATOM      6  C   UNL     1       2.510   8.106  18.263  0.00  0.00    +0.000 A 
ATOM      7  N   UNL     1       2.182   7.296  19.287  0.00  0.00    +0.000 NA
ATOM      8  C   UNL     1       2.820   6.108  19.387  0.00  0.00    +0.000 A 
ATOM      9  C   UNL     1       2.407   5.251  20.548  0.00  0.00    +0.000 C 
ATOM     10  C   UNL     1       3.811   5.712  18.487  0.00  0.00    +0.000 A 
ATOM     11  C   UNL     1       4.530   4.494  18.565  0.00  0.00    +0.000 A 
ATOM     12  C   UNL     1       5.523   4.195  17.635  0.00  0.00    +0.000 A 
ATOM     13  C   UNL     1       5.809   5.100  16.616  0.00  0.00    +0.000 A 
ATOM     14  C   UNL     1       6.909   4.821  15.633  0.00  0.00    +0.000 C 
ATOM     15  C   UNL     1       5.080   6.300  16.545  0.00  0.00    +0.000 A 
ATOM     16  C   UNL     1       4.082   6.625  17.462  0.00  0.00    +0.000 A 
ATOM     17  N   UNL     1       3.430   7.794  17.343  0.00  0.00    +0.000 NA
ATOM     18  N   UNL     1       0.617   9.179  20.092  0.00  0.00    +0.000 N 
ATOM     19  C   UNL     1      -0.420   9.585  20.992  0.00  0.00    +0.000 C 
ATOM     20  H   UNL     1       2.105   9.802  17.277  0.00  0.00    +0.000 HD
ATOM     21  H   UNL     1       1.106   8.302  20.250  0.00  0.00    +0.000 HD
ENDROOT
BRANCH   1  22
ATOM     22  C   UNL     1      -0.038  11.875  21.778  0.00  0.00    +0.000 C 
BRANCH  22  23
ATOM     23  C   UNL     1      -1.018  12.627  22.708  0.00  0.00    +0.000 C 
BRANCH  23  25
ATOM     24  C   UNL     1      -3.178  12.360  23.635  0.00  0.00    +0.000 C 
ATOM     25  O   UNL     1      -1.974  11.710  23.246  0.00  0.00    +0.000 OA
ENDBRANCH  23  25
ENDBRANCH  22  23
ENDBRANCH   1  22
TORSDOF 3
ENDMDL
MODEL 4
REMARK VINA RESULT:      -6.8      2.760      7.872
REMARK  Name = 
REMARK  6 active torsions:
REMARK  status: ('A' for Active; 'I' for Inactive)
REMARK    1  A    between atoms: C_1  and  O_2
REMARK    2  A    between atoms: O_2  and  C_3
REMARK    3  A    between atoms: C_3  and  C_4
REMARK    4  A    between atoms: C_4  and  N_5
REMARK    5  A    between atoms: C_12  and  C_13
REMARK    6  A    between atoms: C_17  and  C_18
REMARK                            x       y       z     vdW  Elec       q    Type
REMARK                         _______ _______ _______ _____ _____    ______ ____
ROOT
ATOM      1  N   UNL     1      -0.664  11.051  20.819  0.00  0.00    +0.000 NA
ATOM      2  C   UNL     1      -0.716  11.484  19.447  0.00  0.00    +0.000 C 
ATOM      3  N   UNL     1       0.360  11.050  18.578  0.00  0.00    +0.000 NA
ATOM      4  C   UNL     1       0.942   9.955  18.878  0.00  0.00    +0.000 C 
ATOM      5  N   UNL     1       1.896   9.403  18.088  0.00  0.00    +0.000 N 
ATOM      6  C   UNL     1       2.517   8.174  18.202  0.00  0.00    +0.000 A 
ATOM      7  N   UNL     1       2.178   7.356  19.216  0.00  0.00    +0.000 NA
ATOM      8  C   UNL     1       2.801   6.158  19.301  0.00  0.00    +0.000 A 
ATOM      9  C   UNL     1       2.377   5.292  20.451  0.00  0.00    +0.000 C 
ATOM     10  C   UNL     1       3.786   5.761  18.395  0.00  0.00    +0.000 A 
ATOM     11  C   UNL     1       4.488   4.532  18.457  0.00  0.00    +0.000 A 
ATOM     12  C   UNL     1       5.478   4.232  17.523  0.00  0.00    +0.000 A 
ATOM     13  C   UNL     1       5.775   5.146  16.515  0.00  0.00    +0.000 A 
ATOM     14  C   UNL     1       6.871   4.865  15.529  0.00  0.00    +0.000 C 
ATOM     15  C   UNL     1       5.062   6.356  16.460  0.00  0.00    +0.000 A 
ATOM     16  C   UNL     1       4.068   6.683  17.382  0.00  0.00    +0.000 A 
ATOM     17  N   UNL     1       3.432   7.862  17.278  0.00  0.00    +0.000 NA
ATOM     18  N   UNL     1       0.638   9.248  20.047  0.00  0.00    +0.000 N 
ATOM     19  C   UNL     1      -0.393   9.656  20.952  0.00  0.00    +0.000 C 
ATOM     20  H   UNL     1       2.134   9.888  17.238  0.00  0.00    +0.000 HD
ATOM     21  H   UNL     1       1.116   8.363  20.192  0.00  0.00    +0.000 HD
ENDROOT
BRANCH   1  22
ATOM     22  C   UNL     1       0.019  11.931  21.767  0.00  0.00    +0.000 C 
BRANCH  22  23
ATOM     23  C   UNL     1       0.638  13.181  21.100  0.00  0.00    +0.000 C 
BRANCH  23  25
ATOM     24  C   UNL     1       2.647  13.704  19.966  0.00  0.00    +0.000 C 
ATOM     25  O   UNL     1       2.064  13.073  21.100  0.00  0.00    +0.000 OA
ENDBRANCH  23  25
ENDBRANCH  22  23
ENDBRANCH   1  22
TORSDOF 3
ENDMDL
MODEL 5
REMARK VINA RESULT:      -6.7      3.225      8.270
REMARK  Name = 
REMARK  6 active torsions:
REMARK  status: ('A' for Active; 'I' for Inactive)
REMARK    1  A    between atoms: C_1  and  O_2
REMARK    2  A    between atoms: O_2  and  C_3
REMARK    3  A    between atoms: C_3  and  C_4
REMARK    4  A    between atoms: C_4  and  N_5
REMARK    5  A    between atoms: C_12  and  C_13
REMARK    6  A    between atoms: C_17  and  C_18
REMARK                            x       y       z     vdW  Elec       q    Type
REMARK                         _______ _______ _______ _____ _____    ______ ____
ROOT
ATOM      1  N   UNL     1      -0.684  11.127  20.840  0.00  0.00    +0.000 NA
ATOM      2  C   UNL     1      -0.719  11.544  19.463  0.00  0.00    +0.000 C 
ATOM      3  N   UNL     1       0.357  11.083  18.608  0.00  0.00    +0.000 NA
ATOM      4  C   UNL     1       0.920   9.983  18.925  0.00  0.00    +0.000 C 
ATOM      5  N   UNL     1       1.871   9.407  18.149  0.00  0.00    +0.000 N 
ATOM      6  C   UNL     1       2.472   8.169  18.283  0.00  0.00    +0.000 A 
ATOM      7  N   UNL     1       2.112   7.369  19.305  0.00  0.00    +0.000 NA
ATOM      8  C   UNL     1       2.716   6.163  19.408  0.00  0.00    +0.000 A 
ATOM      9  C   UNL     1       2.268   5.317  20.565  0.00  0.00    +0.000 C 
ATOM     10  C   UNL     1       3.702   5.740  18.515  0.00  0.00    +0.000 A 
ATOM     11  C   UNL     1       4.384   4.501  18.598  0.00  0.00    +0.000 A 
ATOM     12  C   UNL     1       5.376   4.175  17.675  0.00  0.00    +0.000 A 
ATOM     13  C   UNL     1       5.695   5.072  16.659  0.00  0.00    +0.000 A 
ATOM     14  C   UNL     1       6.795   4.762  15.685  0.00  0.00    +0.000 C 
ATOM     15  C   UNL     1       5.002   6.292  16.584  0.00  0.00    +0.000 A 
ATOM     16  C   UNL     1       4.006   6.645  17.494  0.00  0.00    +0.000 A 
ATOM     17  N   UNL     1       3.389   7.832  17.371  0.00  0.00    +0.000 NA
ATOM     18  N   UNL     1       0.595   9.295  20.100  0.00  0.00    +0.000 N 
ATOM     19  C   UNL     1      -0.437   9.729  20.991  0.00  0.00    +0.000 C 
ATOM     20  H   UNL     1       2.123   9.878  17.297  0.00  0.00    +0.000 HD
ATOM     21  H   UNL     1       1.058   8.405  20.260  0.00  0.00    +0.000 HD
ENDROOT
BRANCH   1  22
ATOM     22  C   UNL     1       0.005  12.007  21.783  0.00  0.00    +0.000 C 
BRANCH  22  23
ATOM     23  C   UNL     1      -0.958  12.751  22.736  0.00  0.00    +0.000 C 
BRANCH  23  25
ATOM     24  C   UNL     1       0.467  14.511  22.053  0.00  0.00    +0.000 C 
ATOM     25  O   UNL     1      -0.424  14.038  23.056  0.00  0.00    +0.000 OA
ENDBRANCH  23  25
ENDBRANCH  22  23
ENDBRANCH   1  22
TORSDOF 3
ENDMDL
MODEL 6
REMARK VINA RESULT:      -6.6      2.380      4.029
REMARK  Name = 
REMARK  6 active torsions:
REMARK  status: ('A' for Active; 'I' for Inactive)
REMARK    1  A    between atoms: C_1  and  O_2
REMARK    2  A    between atoms: O_2  and  C_3
REMARK    3  A    between atoms: C_3  and  C_4
REMARK    4  A    between atoms: C_4  and  N_5
REMARK    5  A    between atoms: C_12  and  C_13
REMARK    6  A    between atoms: C_17  and  C_18
REMARK                            x       y       z     vdW  Elec       q    Type
REMARK                         _______ _______ _______ _____ _____    ______ ____
ROOT
ATOM      1  N   UNL     1       2.988   5.774  18.660  0.00  0.00    +0.000 NA
ATOM      2  C   UNL     1       3.495   6.765  17.748  0.00  0.00    +0.000 C 
ATOM      3  N   UNL     1       2.744   8.000  17.633  0.00  0.00    +0.000 NA
ATOM      4  C   UNL     1       2.061   8.360  18.650  0.00  0.00    +0.000 C 
ATOM      5  N   UNL     1       1.397   9.541  18.693  0.00  0.00    +0.000 N 
ATOM      6  C   UNL     1       0.733  10.128  19.753  0.00  0.00    +0.000 A 
ATOM      7  N   UNL     1       0.700   9.496  20.941  0.00  0.00    +0.000 NA
ATOM      8  C   UNL     1       0.045  10.097  21.961  0.00  0.00    +0.000 A 
ATOM      9  C   UNL     1       0.047   9.343  23.260  0.00  0.00    +0.000 C 
ATOM     10  C   UNL     1      -0.607  11.323  21.814  0.00  0.00    +0.000 A 
ATOM     11  C   UNL     1      -1.330  11.978  22.841  0.00  0.00    +0.000 A 
ATOM     12  C   UNL     1      -1.974  13.189  22.593  0.00  0.00    +0.000 A 
ATOM     13  C   UNL     1      -1.900  13.764  21.328  0.00  0.00    +0.000 A 
ATOM     14  C   UNL     1      -2.627  15.042  21.026  0.00  0.00    +0.000 C 
ATOM     15  C   UNL     1      -1.170  13.107  20.322  0.00  0.00    +0.000 A 
ATOM     16  C   UNL     1      -0.517  11.894  20.541  0.00  0.00    +0.000 A 
ATOM     17  N   UNL     1       0.156  11.314  19.533  0.00  0.00    +0.000 NA
ATOM     18  N   UNL     1       1.949   7.558  19.790  0.00  0.00    +0.000 N 
ATOM     19  C   UNL     1       2.644   6.316  19.935  0.00  0.00    +0.000 C 
ATOM     20  H   UNL     1       1.462  10.141  17.887  0.00  0.00    +0.000 HD
ATOM     21  H   UNL     1       1.422   7.934  20.573  0.00  0.00    +0.000 HD
ENDROOT
BRANCH   1  22
ATOM     22  C   UNL     1       2.064   4.780  18.114  0.00  0.00    +0.000 C 
BRANCH  22  23
ATOM     23  C   UNL     1       2.778   3.631  17.367  0.00  0.00    +0.000 C 
BRANCH  23  25
ATOM     24  C   UNL     1       1.207   2.422  18.659  0.00  0.00    +0.000 C 
ATOM     25  O   UNL     1       2.014   2.427  17.488  0.00  0.00    +0.000 OA
ENDBRANCH  23  25
ENDBRANCH  22  23
ENDBRANCH   1  22
TORSDOF 3
ENDMDL
MODEL 7
REMARK VINA RESULT:      -6.6      2.906      7.613
REMARK  Name = 
REMARK  6 active torsions:
REMARK  status: ('A' for Active; 'I' for Inactive)
REMARK    1  A    between atoms: C_1  and  O_2
REMARK    2  A    between atoms: O_2  and  C_3
REMARK    3  A    between atoms: C_3  and  C_4
REMARK    4  A    between atoms: C_4  and  N_5
REMARK    5  A    between atoms: C_12  and  C_13
REMARK    6  A    between atoms: C_17  and  C_18
REMARK                            x       y       z     vdW  Elec       q    Type
REMARK                         _______ _______ _______ _____ _____    ______ ____
ROOT
ATOM      1  N   UNL     1      -0.208  11.472  21.084  0.00  0.00    +0.000 NA
ATOM      2  C   UNL     1      -0.172  10.767  22.337  0.00  0.00    +0.000 C 
ATOM      3  N   UNL     1       0.010   9.330  22.279  0.00  0.00    +0.000 NA
ATOM      4  C   UNL     1       0.637   8.865  21.269  0.00  0.00    +0.000 C 
ATOM      5  N   UNL     1       0.950   7.551  21.154  0.00  0.00    +0.000 N 
ATOM      6  C   UNL     1       1.730   6.922  20.202  0.00  0.00    +0.000 A 
ATOM      7  N   UNL     1       2.290   7.653  19.220  0.00  0.00    +0.000 NA
ATOM      8  C   UNL     1       3.049   7.010  18.304  0.00  0.00    +0.000 A 
ATOM      9  C   UNL     1       3.647   7.882  17.238  0.00  0.00    +0.000 C 
ATOM     10  C   UNL     1       3.248   5.629  18.334  0.00  0.00    +0.000 A 
ATOM     11  C   UNL     1       4.009   4.905  17.383  0.00  0.00    +0.000 A 
ATOM     12  C   UNL     1       4.130   3.520  17.477  0.00  0.00    +0.000 A 
ATOM     13  C   UNL     1       3.502   2.842  18.518  0.00  0.00    +0.000 A 
ATOM     14  C   UNL     1       3.578   1.345  18.609  0.00  0.00    +0.000 C 
ATOM     15  C   UNL     1       2.760   3.575  19.460  0.00  0.00    +0.000 A 
ATOM     16  C   UNL     1       2.621   4.960  19.390  0.00  0.00    +0.000 A 
ATOM     17  N   UNL     1       1.889   5.599  20.317  0.00  0.00    +0.000 NA
ATOM     18  N   UNL     1       1.042   9.681  20.207  0.00  0.00    +0.000 N 
ATOM     19  C   UNL     1       0.853  11.100  20.205  0.00  0.00    +0.000 C 
ATOM     20  H   UNL     1       0.674   6.940  21.905  0.00  0.00    +0.000 HD
ATOM     21  H   UNL     1       1.573   9.242  19.460  0.00  0.00    +0.000 HD
ENDROOT
BRANCH   1  22
ATOM     22  C   UNL     1      -1.520  11.658  20.464  0.00  0.00    +0.000 C 
BRANCH  22  23
ATOM     23  C   UNL     1      -1.499  11.480  18.929  0.00  0.00    +0.000 C 
BRANCH  23  25
ATOM     24  C   UNL     1      -2.793   9.981  17.634  0.00  0.00    +0.000 C 
ATOM     25  O   UNL     1      -1.753  10.113  18.596  0.00  0.00    +0.000 OA
ENDBRANCH  23  25
ENDBRANCH  22  23
ENDBRANCH   1  22
TORSDOF 3
ENDMDL
MODEL 8
REMARK VINA RESULT:      -6.6      3.990      8.559
REMARK  Name = 
REMARK  6 active torsions:
REMARK  status: ('A' for Active; 'I' for Inactive)
REMARK    1  A    between atoms: C_1  and  O_2
REMARK    2  A    between atoms: O_2  and  C_3
REMARK    3  A    between atoms: C_3  and  C_4
REMARK    4  A    between atoms: C_4  and  N_5
REMARK    5  A    between atoms: C_12  and  C_13
REMARK    6  A    between atoms: C_17  and  C_18
REMARK                            x       y       z     vdW  Elec       q    Type
REMARK                         _______ _______ _______ _____ _____    ______ ____
ROOT
ATOM      1  N   UNL     1      -1.441  12.891  21.676  0.00  0.00    +0.000 NA
ATOM      2  C   UNL     1      -1.159  12.362  22.985  0.00  0.00    +0.000 C 
ATOM      3  N   UNL     1      -0.826  10.954  23.068  0.00  0.00    +0.000 NA
ATOM      4  C   UNL     1      -0.292  10.422  22.038  0.00  0.00    +0.000 C 
ATOM      5  N   UNL     1       0.149   9.140  22.033  0.00  0.00    +0.000 N 
ATOM      6  C   UNL     1       0.860   8.467  21.058  0.00  0.00    +0.000 A 
ATOM      7  N   UNL     1       1.198   9.113  19.926  0.00  0.00    +0.000 NA
ATOM      8  C   UNL     1       1.896   8.430  18.990  0.00  0.00    +0.000 A 
ATOM      9  C   UNL     1       2.245   9.206  17.753  0.00  0.00    +0.000 C 
ATOM     10  C   UNL     1       2.251   7.089  19.151  0.00  0.00    +0.000 A 
ATOM     11  C   UNL     1       2.954   6.322  18.190  0.00  0.00    +0.000 A 
ATOM     12  C   UNL     1       3.241   4.979  18.426  0.00  0.00    +0.000 A 
ATOM     13  C   UNL     1       2.838   4.387  19.620  0.00  0.00    +0.000 A 
ATOM     14  C   UNL     1       3.092   2.929  19.874  0.00  0.00    +0.000 C 
ATOM     15  C   UNL     1       2.150   5.164  20.568  0.00  0.00    +0.000 A 
ATOM     16  C   UNL     1       1.849   6.509  20.358  0.00  0.00    +0.000 A 
ATOM     17  N   UNL     1       1.180   7.192  21.302  0.00  0.00    +0.000 NA
ATOM     18  N   UNL     1      -0.126  11.126  20.841  0.00  0.00    +0.000 N 
ATOM     19  C   UNL     1      -0.471  12.508  20.701  0.00  0.00    +0.000 C 
ATOM     20  H   UNL     1       0.045   8.609  22.882  0.00  0.00    +0.000 HD
ATOM     21  H   UNL     1       0.346  10.645  20.081  0.00  0.00    +0.000 HD
ENDROOT
BRANCH   1  22
ATOM     22  C   UNL     1      -2.836  12.868  21.237  0.00  0.00    +0.000 C 
BRANCH  22  23
ATOM     23  C   UNL     1      -3.824  13.346  22.326  0.00  0.00    +0.000 C 
BRANCH  23  25
ATOM     24  C   UNL     1      -5.964  12.528  21.736  0.00  0.00    +0.000 C 
ATOM     25  O   UNL     1      -4.816  12.342  22.554  0.00  0.00    +0.000 OA
ENDBRANCH  23  25
ENDBRANCH  22  23
ENDBRANCH   1  22
TORSDOF 3
ENDMDL
MODEL 9
REMARK VINA RESULT:      -6.5      2.357      3.896
REMARK  Name = 
REMARK  6 active torsions:
REMARK  status: ('A' for Active; 'I' for Inactive)
REMARK    1  A    between atoms: C_1  and  O_2
REMARK    2  A    between atoms: O_2  and  C_3
REMARK    3  A    between atoms: C_3  and  C_4
REMARK    4  A    between atoms: C_4  and  N_5
REMARK    5  A    between atoms: C_12  and  C_13
REMARK    6  A    between atoms: C_17  and  C_18
REMARK                            x       y       z     vdW  Elec       q    Type
REMARK                         _______ _______ _______ _____ _____    ______ ____
ROOT
ATOM      1  N   UNL     1       2.517   4.623  19.678  0.00  0.00    +0.000 NA
ATOM      2  C   UNL     1       3.362   5.315  18.741  0.00  0.00    +0.000 C 
ATOM      3  N   UNL     1       2.955   6.651  18.349  0.00  0.00    +0.000 NA
ATOM      4  C   UNL     1       2.258   7.314  19.188  0.00  0.00    +0.000 C 
ATOM      5  N   UNL     1       1.901   8.604  18.971  0.00  0.00    +0.000 N 
ATOM      6  C   UNL     1       1.272   9.488  19.826  0.00  0.00    +0.000 A 
ATOM      7  N   UNL     1       0.934   9.080  21.064  0.00  0.00    +0.000 NA
ATOM      8  C   UNL     1       0.321   9.969  21.879  0.00  0.00    +0.000 A 
ATOM      9  C   UNL     1      -0.026   9.455  23.247  0.00  0.00    +0.000 C 
ATOM     10  C   UNL     1       0.012  11.269  21.474  0.00  0.00    +0.000 A 
ATOM     11  C   UNL     1      -0.655  12.226  22.277  0.00  0.00    +0.000 A 
ATOM     12  C   UNL     1      -0.946  13.493  21.777  0.00  0.00    +0.000 A 
ATOM     13  C   UNL     1      -0.574  13.824  20.477  0.00  0.00    +0.000 A 
ATOM     14  C   UNL     1      -0.923  15.165  19.901  0.00  0.00    +0.000 C 
ATOM     15  C   UNL     1       0.096  12.867  19.695  0.00  0.00    +0.000 A 
ATOM     16  C   UNL     1       0.400  11.592  20.169  0.00  0.00    +0.000 A 
ATOM     17  N   UNL     1       1.034  10.721  19.366  0.00  0.00    +0.000 NA
ATOM     18  N   UNL     1       1.809   6.753  20.388  0.00  0.00    +0.000 N 
ATOM     19  C   UNL     1       2.156   5.427  20.800  0.00  0.00    +0.000 C 
ATOM     20  H   UNL     1       2.213   9.035  18.117  0.00  0.00    +0.000 HD
ATOM     21  H   UNL     1       1.294   7.359  21.020  0.00  0.00    +0.000 HD
ENDROOT
BRANCH   1  22
ATOM     22  C   UNL     1       1.456   3.785  19.120  0.00  0.00    +0.000 C 
BRANCH  22  23
ATOM     23  C   UNL     1       1.670   2.277  19.382  0.00  0.00    +0.000 C 
BRANCH  23  25
ATOM     24  C   UNL     1       3.649   1.453  18.381  0.00  0.00    +0.000 C 
ATOM     25  O   UNL     1       3.064   2.008  19.553  0.00  0.00    +0.000 OA
ENDBRANCH  23  25
ENDBRANCH  22  23
ENDBRANCH   1  22
TORSDOF 3
ENDMDL
