MODEL 1
REMARK VINA RESULT:      -8.8      0.000      0.000
REMARK  Name = 
REMARK  1 active torsions:
REMARK  status: ('A' for Active; 'I' for Inactive)
REMARK    1  A    between atoms: C_4  and  C_5
REMARK                            x       y       z     vdW  Elec       q    Type
REMARK                         _______ _______ _______ _____ _____    ______ ____
ROOT
ATOM      1  N   UNL     1       7.292   5.472  19.362  0.00  0.00    +0.000 N 
ATOM      2  C   UNL     1       6.371   4.998  18.466  0.00  0.00    +0.000 A 
ATOM      3  N   UNL     1       6.723   4.911  17.205  0.00  0.00    +0.000 NA
ATOM      4  C   UNL     1       5.813   4.423  16.269  0.00  0.00    +0.000 A 
ATOM      5  C   UNL     1       4.572   4.012  16.608  0.00  0.00    +0.000 A 
ATOM      6  N   UNL     1       4.176   4.118  17.927  0.00  0.00    +0.000 N 
ATOM      7  C   UNL     1       5.036   4.614  18.868  0.00  0.00    +0.000 A 
ATOM      8  N   UNL     1       4.500   4.703  20.067  0.00  0.00    +0.000 NA
ATOM      9  C   UNL     1       3.229   4.201  19.897  0.00  0.00    +0.000 A 
ATOM     10  C   UNL     1       2.209   4.040  20.846  0.00  0.00    +0.000 A 
ATOM     11  C   UNL     1       0.987   3.492  20.438  0.00  0.00    +0.000 A 
ATOM     12  C   UNL     1       0.779   3.117  19.109  0.00  0.00    +0.000 A 
ATOM     13  C   UNL     1       1.779   3.277  18.143  0.00  0.00    +0.000 A 
ATOM     14  C   UNL     1       2.997   3.821  18.572  0.00  0.00    +0.000 A 
ATOM     15  H   UNL     1       8.018   6.031  18.935  0.00  0.00    +0.000 HD
ATOM     16  H   UNL     1       6.889   5.855  20.210  0.00  0.00    +0.000 HD
ENDROOT
BRANCH   4  17
ATOM     17  C   UNL     1       6.275   4.350  14.857  0.00  0.00    +0.000 A 
ATOM     18  C   UNL     1       7.357   5.144  14.439  0.00  0.00    +0.000 A 
ATOM     19  C   UNL     1       7.794   5.133  13.111  0.00  0.00    +0.000 A 
ATOM     20  C   UNL     1       7.151   4.330  12.173  0.00  0.00    +0.000 A 
ATOM     21  C   UNL     1       6.072   3.545  12.571  0.00  0.00    +0.000 A 
ATOM     22 BR   UNL     1       5.185   2.462  11.299  0.00  0.00    +0.000 Br
ATOM     23  C   UNL     1       5.631   3.554  13.897  0.00  0.00    +0.000 A 
ENDBRANCH   4  17
TORSDOF 1
ENDMDL
MODEL 2
REMARK VINA RESULT:      -8.4      2.768      6.664
REMARK  Name = 
REMARK  1 active torsions:
REMARK  status: ('A' for Active; 'I' for Inactive)
REMARK    1  A    between atoms: C_4  and  C_5
REMARK                            x       y       z     vdW  Elec       q    Type
REMARK                         _______ _______ _______ _____ _____    ______ ____
ROOT
ATOM      1  N   UNL     1       7.943   7.000  17.626  0.00  0.00    +0.000 N 
ATOM      2  C   UNL     1       6.838   6.278  17.262  0.00  0.00    +0.000 A 
ATOM      3  N   UNL     1       5.852   6.183  18.121  0.00  0.00    +0.000 NA
ATOM      4  C   UNL     1       4.707   5.464  17.778  0.00  0.00    +0.000 A 
ATOM      5  C   UNL     1       4.557   4.868  16.575  0.00  0.00    +0.000 A 
ATOM      6  N   UNL     1       5.596   4.939  15.666  0.00  0.00    +0.000 N 
ATOM      7  C   UNL     1       6.742   5.616  15.980  0.00  0.00    +0.000 A 
ATOM      8  N   UNL     1       7.658   5.551  15.037  0.00  0.00    +0.000 NA
ATOM      9  C   UNL     1       7.054   4.818  14.041  0.00  0.00    +0.000 A 
ATOM     10  C   UNL     1       7.560   4.447  12.786  0.00  0.00    +0.000 A 
ATOM     11  C   UNL     1       6.748   3.699  11.925  0.00  0.00    +0.000 A 
ATOM     12  C   UNL     1       5.459   3.320  12.306  0.00  0.00    +0.000 A 
ATOM     13  C   UNL     1       4.936   3.671  13.555  0.00  0.00    +0.000 A 
ATOM     14  C   UNL     1       5.761   4.425  14.400  0.00  0.00    +0.000 A 
ATOM     15  H   UNL     1       8.051   7.094  18.627  0.00  0.00    +0.000 HD
ATOM     16  H   UNL     1       8.787   6.755  17.119  0.00  0.00    +0.000 HD
ENDROOT
BRANCH   4  17
ATOM     17  C   UNL     1       3.626   5.394  18.797  0.00  0.00    +0.000 A 
ATOM     18  C   UNL     1       2.904   6.555  19.125  0.00  0.00    +0.000 A 
ATOM     19  C   UNL     1       1.910   6.538  20.106  0.00  0.00    +0.000 A 
ATOM     20  C   UNL     1       1.621   5.356  20.784  0.00  0.00    +0.000 A 
ATOM     21  C   UNL     1       2.333   4.201  20.477  0.00  0.00    +0.000 A 
ATOM     22 BR   UNL     1       1.956   2.596  21.404  0.00  0.00    +0.000 Br
ATOM     23  C   UNL     1       3.330   4.214  19.497  0.00  0.00    +0.000 A 
ENDBRANCH   4  17
TORSDOF 1
ENDMDL
MODEL 3
REMARK VINA RESULT:      -8.2      2.954      6.797
REMARK  Name = 
REMARK  1 active torsions:
REMARK  status: ('A' for Active; 'I' for Inactive)
REMARK    1  A    between atoms: C_4  and  C_5
REMARK                            x       y       z     vdW  Elec       q    Type
REMARK                         _______ _______ _______ _____ _____    ______ ____
ROOT
ATOM      1  N   UNL     1       7.859   6.914  17.631  0.00  0.00    +0.000 N 
ATOM      2  C   UNL     1       6.777   6.179  17.226  0.00  0.00    +0.000 A 
ATOM      3  N   UNL     1       5.774   6.042  18.060  0.00  0.00    +0.000 NA
ATOM      4  C   UNL     1       4.653   5.310  17.674  0.00  0.00    +0.000 A 
ATOM      5  C   UNL     1       4.542   4.740  16.454  0.00  0.00    +0.000 A 
ATOM      6  N   UNL     1       5.598   4.854  15.571  0.00  0.00    +0.000 N 
ATOM      7  C   UNL     1       6.723   5.547  15.926  0.00  0.00    +0.000 A 
ATOM      8  N   UNL     1       7.661   5.523  15.003  0.00  0.00    +0.000 NA
ATOM      9  C   UNL     1       7.094   4.802  13.977  0.00  0.00    +0.000 A 
ATOM     10  C   UNL     1       7.635   4.472  12.724  0.00  0.00    +0.000 A 
ATOM     11  C   UNL     1       6.858   3.729  11.828  0.00  0.00    +0.000 A 
ATOM     12  C   UNL     1       5.569   3.315  12.170  0.00  0.00    +0.000 A 
ATOM     13  C   UNL     1       5.012   3.625  13.416  0.00  0.00    +0.000 A 
ATOM     14  C   UNL     1       5.802   4.375  14.297  0.00  0.00    +0.000 A 
ATOM     15  H   UNL     1       7.943   6.985  18.637  0.00  0.00    +0.000 HD
ATOM     16  H   UNL     1       8.718   6.698  17.138  0.00  0.00    +0.000 HD
ENDROOT
BRANCH   4  17
ATOM     17  C   UNL     1       3.551   5.193  18.667  0.00  0.00    +0.000 A 
ATOM     18  C   UNL     1       2.971   3.938  18.917  0.00  0.00    +0.000 A 
ATOM     19  C   UNL     1       1.908   3.795  19.811  0.00  0.00    +0.000 A 
ATOM     20  C   UNL     1       1.399   4.911  20.472  0.00  0.00    +0.000 A 
ATOM     21  C   UNL     1       1.957   6.162  20.228  0.00  0.00    +0.000 A 
ATOM     22 BR   UNL     1       1.263   7.684  21.110  0.00  0.00    +0.000 Br
ATOM     23  C   UNL     1       3.021   6.309  19.332  0.00  0.00    +0.000 A 
ENDBRANCH   4  17
TORSDOF 1
ENDMDL
MODEL 4
REMARK VINA RESULT:      -8.2      2.669      6.742
REMARK  Name = 
REMARK  1 active torsions:
REMARK  status: ('A' for Active; 'I' for Inactive)
REMARK    1  A    between atoms: C_4  and  C_5
REMARK                            x       y       z     vdW  Elec       q    Type
REMARK                         _______ _______ _______ _____ _____    ______ ____
ROOT
ATOM      1  N   UNL     1       7.098   6.454  18.220  0.00  0.00    +0.000 N 
ATOM      2  C   UNL     1       6.240   5.643  17.527  0.00  0.00    +0.000 A 
ATOM      3  N   UNL     1       5.184   5.181  18.152  0.00  0.00    +0.000 NA
ATOM      4  C   UNL     1       4.285   4.361  17.472  0.00  0.00    +0.000 A 
ATOM      5  C   UNL     1       4.443   4.030  16.173  0.00  0.00    +0.000 A 
ATOM      6  N   UNL     1       5.563   4.488  15.504  0.00  0.00    +0.000 N 
ATOM      7  C   UNL     1       6.477   5.276  16.148  0.00  0.00    +0.000 A 
ATOM      8  N   UNL     1       7.512   5.589  15.398  0.00  0.00    +0.000 NA
ATOM      9  C   UNL     1       7.232   4.999  14.187  0.00  0.00    +0.000 A 
ATOM     10  C   UNL     1       7.983   5.014  13.002  0.00  0.00    +0.000 A 
ATOM     11  C   UNL     1       7.486   4.341  11.879  0.00  0.00    +0.000 A 
ATOM     12  C   UNL     1       6.269   3.660  11.933  0.00  0.00    +0.000 A 
ATOM     13  C   UNL     1       5.507   3.623  13.106  0.00  0.00    +0.000 A 
ATOM     14  C   UNL     1       6.017   4.308  14.217  0.00  0.00    +0.000 A 
ATOM     15  H   UNL     1       7.036   6.341  19.223  0.00  0.00    +0.000 HD
ATOM     16  H   UNL     1       8.039   6.485  17.843  0.00  0.00    +0.000 HD
ENDROOT
BRANCH   4  17
ATOM     17  C   UNL     1       3.108   3.872  18.240  0.00  0.00    +0.000 A 
ATOM     18  C   UNL     1       1.858   3.771  17.605  0.00  0.00    +0.000 A 
ATOM     19  C   UNL     1       0.721   3.355  18.303  0.00  0.00    +0.000 A 
ATOM     20  C   UNL     1       0.814   3.034  19.655  0.00  0.00    +0.000 A 
ATOM     21  C   UNL     1       2.043   3.137  20.299  0.00  0.00    +0.000 A 
ATOM     22 BR   UNL     1       2.173   2.717  22.139  0.00  0.00    +0.000 Br
ATOM     23  C   UNL     1       3.182   3.555  19.605  0.00  0.00    +0.000 A 
ENDBRANCH   4  17
TORSDOF 1
ENDMDL
MODEL 5
REMARK VINA RESULT:      -8.0      4.618      7.427
REMARK  Name = 
REMARK  1 active torsions:
REMARK  status: ('A' for Active; 'I' for Inactive)
REMARK    1  A    between atoms: C_4  and  C_5
REMARK                            x       y       z     vdW  Elec       q    Type
REMARK                         _______ _______ _______ _____ _____    ______ ____
ROOT
ATOM      1  N   UNL     1       2.675   3.538  20.516  0.00  0.00    +0.000 N 
ATOM      2  C   UNL     1       2.860   4.636  19.718  0.00  0.00    +0.000 A 
ATOM      3  N   UNL     1       2.247   5.748  20.045  0.00  0.00    +0.000 NA
ATOM      4  C   UNL     1       2.423   6.887  19.260  0.00  0.00    +0.000 A 
ATOM      5  C   UNL     1       3.223   6.903  18.172  0.00  0.00    +0.000 A 
ATOM      6  N   UNL     1       3.858   5.734  17.800  0.00  0.00    +0.000 N 
ATOM      7  C   UNL     1       3.689   4.592  18.534  0.00  0.00    +0.000 A 
ATOM      8  N   UNL     1       4.314   3.551  18.027  0.00  0.00    +0.000 NA
ATOM      9  C   UNL     1       4.953   4.059  16.919  0.00  0.00    +0.000 A 
ATOM     10  C   UNL     1       5.783   3.400  15.999  0.00  0.00    +0.000 A 
ATOM     11  C   UNL     1       6.336   4.134  14.942  0.00  0.00    +0.000 A 
ATOM     12  C   UNL     1       6.064   5.496  14.798  0.00  0.00    +0.000 A 
ATOM     13  C   UNL     1       5.233   6.172  15.698  0.00  0.00    +0.000 A 
ATOM     14  C   UNL     1       4.694   5.422  16.752  0.00  0.00    +0.000 A 
ATOM     15  H   UNL     1       1.827   3.579  21.066  0.00  0.00    +0.000 HD
ATOM     16  H   UNL     1       2.851   2.653  20.054  0.00  0.00    +0.000 HD
ENDROOT
BRANCH   4  17
ATOM     17  C   UNL     1       1.700   8.115  19.686  0.00  0.00    +0.000 A 
ATOM     18  C   UNL     1       1.564   9.188  18.787  0.00  0.00    +0.000 A 
ATOM     19  C   UNL     1       0.927  10.373  19.164  0.00  0.00    +0.000 A 
ATOM     20  C   UNL     1       0.417  10.510  20.452  0.00  0.00    +0.000 A 
ATOM     21  C   UNL     1       0.552   9.460  21.356  0.00  0.00    +0.000 A 
ATOM     22 BR   UNL     1      -0.126   9.645  23.112  0.00  0.00    +0.000 Br
ATOM     23  C   UNL     1       1.189   8.273  20.984  0.00  0.00    +0.000 A 
ENDBRANCH   4  17
TORSDOF 1
ENDMDL
MODEL 6
REMARK VINA RESULT:      -7.9      2.379      2.664
REMARK  Name = 
REMARK  1 active torsions:
REMARK  status: ('A' for Active; 'I' for Inactive)
REMARK    1  A    between atoms: C_4  and  C_5
REMARK                            x       y       z     vdW  Elec       q    Type
REMARK                         _______ _______ _______ _____ _____    ______ ____
ROOT
ATOM      1  N   UNL     1       4.911   2.955  19.370  0.00  0.00    +0.000 N 
ATOM      2  C   UNL     1       4.752   3.953  18.445  0.00  0.00    +0.000 A 
ATOM      3  N   UNL     1       5.359   3.827  17.289  0.00  0.00    +0.000 NA
ATOM      4  C   UNL     1       5.209   4.820  16.322  0.00  0.00    +0.000 A 
ATOM      5  C   UNL     1       4.440   5.913  16.516  0.00  0.00    +0.000 A 
ATOM      6  N   UNL     1       3.811   6.073  17.736  0.00  0.00    +0.000 N 
ATOM      7  C   UNL     1       3.956   5.130  18.716  0.00  0.00    +0.000 A 
ATOM      8  N   UNL     1       3.342   5.446  19.836  0.00  0.00    +0.000 NA
ATOM      9  C   UNL     1       2.736   6.649  19.551  0.00  0.00    +0.000 A 
ATOM     10  C   UNL     1       1.930   7.449  20.375  0.00  0.00    +0.000 A 
ATOM     11  C   UNL     1       1.410   8.641  19.857  0.00  0.00    +0.000 A 
ATOM     12  C   UNL     1       1.690   9.036  18.547  0.00  0.00    +0.000 A 
ATOM     13  C   UNL     1       2.498   8.258  17.710  0.00  0.00    +0.000 A 
ATOM     14  C   UNL     1       3.004   7.066  18.244  0.00  0.00    +0.000 A 
ATOM     15  H   UNL     1       5.743   2.399  19.223  0.00  0.00    +0.000 HD
ATOM     16  H   UNL     1       4.745   3.245  20.328  0.00  0.00    +0.000 HD
ENDROOT
BRANCH   4  17
ATOM     17  C   UNL     1       5.924   4.616  15.034  0.00  0.00    +0.000 A 
ATOM     18  C   UNL     1       7.087   5.357  14.761  0.00  0.00    +0.000 A 
ATOM     19  C   UNL     1       7.763   5.223  13.545  0.00  0.00    +0.000 A 
ATOM     20  C   UNL     1       7.284   4.348  12.574  0.00  0.00    +0.000 A 
ATOM     21  C   UNL     1       6.128   3.614  12.827  0.00  0.00    +0.000 A 
ATOM     22 BR   UNL     1       5.464   2.433  11.508  0.00  0.00    +0.000 Br
ATOM     23  C   UNL     1       5.448   3.745  14.041  0.00  0.00    +0.000 A 
ENDBRANCH   4  17
TORSDOF 1
ENDMDL
MODEL 7
REMARK VINA RESULT:      -7.9      4.786      7.838
REMARK  Name = 
REMARK  1 active torsions:
REMARK  status: ('A' for Active; 'I' for Inactive)
REMARK    1  A    between atoms: C_4  and  C_5
REMARK                            x       y       z     vdW  Elec       q    Type
REMARK                         _______ _______ _______ _____ _____    ______ ____
ROOT
ATOM      1  N   UNL     1       1.838   3.949  21.208  0.00  0.00    +0.000 N 
ATOM      2  C   UNL     1       2.097   5.073  20.471  0.00  0.00    +0.000 A 
ATOM      3  N   UNL     1       1.554   6.203  20.855  0.00  0.00    +0.000 NA
ATOM      4  C   UNL     1       1.807   7.369  20.133  0.00  0.00    +0.000 A 
ATOM      5  C   UNL     1       2.613   7.391  19.049  0.00  0.00    +0.000 A 
ATOM      6  N   UNL     1       3.176   6.205  18.616  0.00  0.00    +0.000 N 
ATOM      7  C   UNL     1       2.930   5.040  19.289  0.00  0.00    +0.000 A 
ATOM      8  N   UNL     1       3.490   3.989  18.728  0.00  0.00    +0.000 NA
ATOM      9  C   UNL     1       4.167   4.513  17.651  0.00  0.00    +0.000 A 
ATOM     10  C   UNL     1       4.960   3.853  16.699  0.00  0.00    +0.000 A 
ATOM     11  C   UNL     1       5.565   4.605  15.685  0.00  0.00    +0.000 A 
ATOM     12  C   UNL     1       5.381   5.988  15.613  0.00  0.00    +0.000 A 
ATOM     13  C   UNL     1       4.588   6.666  16.545  0.00  0.00    +0.000 A 
ATOM     14  C   UNL     1       3.996   5.897  17.556  0.00  0.00    +0.000 A 
ATOM     15  H   UNL     1       0.991   4.014  21.758  0.00  0.00    +0.000 HD
ATOM     16  H   UNL     1       1.961   3.080  20.700  0.00  0.00    +0.000 HD
ENDROOT
BRANCH   4  17
ATOM     17  C   UNL     1       1.160   8.616  20.621  0.00  0.00    +0.000 A 
ATOM     18  C   UNL     1       0.843   8.746  21.984  0.00  0.00    +0.000 A 
ATOM     19  C   UNL     1       0.199   9.885  22.473  0.00  0.00    +0.000 A 
ATOM     20  C   UNL     1      -0.147  10.917  21.604  0.00  0.00    +0.000 A 
ATOM     21  C   UNL     1       0.153  10.799  20.250  0.00  0.00    +0.000 A 
ATOM     22 BR   UNL     1      -0.326  12.190  19.062  0.00  0.00    +0.000 Br
ATOM     23  C   UNL     1       0.796   9.660  19.756  0.00  0.00    +0.000 A 
ENDBRANCH   4  17
TORSDOF 1
ENDMDL
MODEL 8
REMARK VINA RESULT:      -7.8      1.196      1.591
REMARK  Name = 
REMARK  1 active torsions:
REMARK  status: ('A' for Active; 'I' for Inactive)
REMARK    1  A    between atoms: C_4  and  C_5
REMARK                            x       y       z     vdW  Elec       q    Type
REMARK                         _______ _______ _______ _____ _____    ______ ____
ROOT
ATOM      1  N   UNL     1       7.162   5.397  19.383  0.00  0.00    +0.000 N 
ATOM      2  C   UNL     1       6.233   4.911  18.502  0.00  0.00    +0.000 A 
ATOM      3  N   UNL     1       6.552   4.864  17.230  0.00  0.00    +0.000 NA
ATOM      4  C   UNL     1       5.633   4.364  16.309  0.00  0.00    +0.000 A 
ATOM      5  C   UNL     1       4.418   3.901  16.672  0.00  0.00    +0.000 A 
ATOM      6  N   UNL     1       4.056   3.964  18.005  0.00  0.00    +0.000 N 
ATOM      7  C   UNL     1       4.924   4.470  18.932  0.00  0.00    +0.000 A 
ATOM      8  N   UNL     1       4.420   4.513  20.147  0.00  0.00    +0.000 NA
ATOM      9  C   UNL     1       3.164   3.970  20.001  0.00  0.00    +0.000 A 
ATOM     10  C   UNL     1       2.177   3.750  20.975  0.00  0.00    +0.000 A 
ATOM     11  C   UNL     1       0.964   3.168  20.588  0.00  0.00    +0.000 A 
ATOM     12  C   UNL     1       0.732   2.815  19.257  0.00  0.00    +0.000 A 
ATOM     13  C   UNL     1       1.698   3.032  18.267  0.00  0.00    +0.000 A 
ATOM     14  C   UNL     1       2.907   3.610  18.675  0.00  0.00    +0.000 A 
ATOM     15  H   UNL     1       7.855   5.992  18.949  0.00  0.00    +0.000 HD
ATOM     16  H   UNL     1       6.770   5.747  20.250  0.00  0.00    +0.000 HD
ENDROOT
BRANCH   4  17
ATOM     17  C   UNL     1       6.057   4.339  14.883  0.00  0.00    +0.000 A 
ATOM     18  C   UNL     1       5.419   3.467  13.984  0.00  0.00    +0.000 A 
ATOM     19  C   UNL     1       5.817   3.385  12.647  0.00  0.00    +0.000 A 
ATOM     20  C   UNL     1       6.867   4.174  12.184  0.00  0.00    +0.000 A 
ATOM     21  C   UNL     1       7.513   5.036  13.064  0.00  0.00    +0.000 A 
ATOM     22 BR   UNL     1       8.950   6.100  12.445  0.00  0.00    +0.000 Br
ATOM     23  C   UNL     1       7.120   5.120  14.403  0.00  0.00    +0.000 A 
ENDBRANCH   4  17
TORSDOF 1
ENDMDL
MODEL 9
REMARK VINA RESULT:      -7.7      5.869      6.920
REMARK  Name = 
REMARK  1 active torsions:
REMARK  status: ('A' for Active; 'I' for Inactive)
REMARK    1  A    between atoms: C_4  and  C_5
REMARK                            x       y       z     vdW  Elec       q    Type
REMARK                         _______ _______ _______ _____ _____    ______ ____
ROOT
ATOM      1  N   UNL     1       2.380  11.558  17.307  0.00  0.00    +0.000 N 
ATOM      2  C   UNL     1       2.100  10.488  18.115  0.00  0.00    +0.000 A 
ATOM      3  N   UNL     1       2.562   9.312  17.765  0.00  0.00    +0.000 NA
ATOM      4  C   UNL     1       2.304   8.204  18.571  0.00  0.00    +0.000 A 
ATOM      5  C   UNL     1       1.604   8.291  19.723  0.00  0.00    +0.000 A 
ATOM      6  N   UNL     1       1.090   9.518  20.095  0.00  0.00    +0.000 N 
ATOM      7  C   UNL     1       1.305  10.622  19.316  0.00  0.00    +0.000 A 
ATOM      8  N   UNL     1       0.711  11.703  19.772  0.00  0.00    +0.000 NA
ATOM      9  C   UNL     1       0.105  11.282  20.934  0.00  0.00    +0.000 A 
ATOM     10  C   UNL     1      -0.660  12.019  21.850  0.00  0.00    +0.000 A 
ATOM     11  C   UNL     1      -1.173  11.370  22.979  0.00  0.00    +0.000 A 
ATOM     12  C   UNL     1      -0.934  10.011  23.193  0.00  0.00    +0.000 A 
ATOM     13  C   UNL     1      -0.181   9.253  22.289  0.00  0.00    +0.000 A 
ATOM     14  C   UNL     1       0.328   9.922  21.168  0.00  0.00    +0.000 A 
ATOM     15  H   UNL     1       2.608  11.297  16.357  0.00  0.00    +0.000 HD
ATOM     16  H   UNL     1       1.733  12.333  17.402  0.00  0.00    +0.000 HD
ENDROOT
BRANCH   4  17
ATOM     17  C   UNL     1       2.856   6.899  18.118  0.00  0.00    +0.000 A 
ATOM     18  C   UNL     1       4.058   6.869  17.390  0.00  0.00    +0.000 A 
ATOM     19  C   UNL     1       4.587   5.668  16.912  0.00  0.00    +0.000 A 
ATOM     20  C   UNL     1       3.918   4.469  17.150  0.00  0.00    +0.000 A 
ATOM     21  C   UNL     1       2.722   4.484  17.862  0.00  0.00    +0.000 A 
ATOM     22 BR   UNL     1       1.801   2.863  18.176  0.00  0.00    +0.000 Br
ATOM     23  C   UNL     1       2.189   5.685  18.340  0.00  0.00    +0.000 A 
ENDBRANCH   4  17
TORSDOF 1
ENDMDL
