MODEL 1
REMARK VINA RESULT:      -8.0      0.000      0.000
REMARK  Name = 
REMARK  4 active torsions:
REMARK  status: ('A' for Active; 'I' for Inactive)
REMARK    1  A    between atoms: C_2  and  C_4
REMARK    2  A    between atoms: C_6  and  C_7
REMARK    3  A    between atoms: N_9  and  C_10
REMARK    4  A    between atoms: C_13  and  C_14
REMARK                            x       y       z     vdW  Elec       q    Type
REMARK                         _______ _______ _______ _____ _____    ______ ____
ROOT
ATOM      1  C   UNL     1       0.998   9.073  20.672  0.00  0.00    +0.000 C 
ATOM      2  O   UNL     1       1.586   8.765  21.705  0.00  0.00    +0.000 OA
ATOM      3  N   UNL     1       1.221   8.551  19.414  0.00  0.00    +0.000 N 
ATOM      4  H   UNL     1       0.824   9.042  18.623  0.00  0.00    +0.000 HD
ENDROOT
BRANCH   1   7
ATOM      5  C   UNL     1      -1.600  11.530  19.662  0.00  0.00    +0.000 A 
ATOM      6  C   UNL     1      -0.734  10.454  19.624  0.00  0.00    +0.000 A 
ATOM      7  C   UNL     1       0.006  10.166  20.769  0.00  0.00    +0.000 A 
ATOM      8  C   UNL     1      -0.150  10.943  21.914  0.00  0.00    +0.000 A 
ATOM      9  C   UNL     1      -1.051  11.991  21.841  0.00  0.00    +0.000 A 
ATOM     10 CL   UNL     1      -1.297  13.023  23.190  0.00  0.00    +0.000 Cl
ATOM     11  N   UNL     1      -1.783  12.313  20.756  0.00  0.00    +0.000 NA
BRANCH   5  13
ATOM     12  N   UNL     1      -1.613  12.313  17.363  0.00  0.00    +0.000 N 
ATOM     13  C   UNL     1      -2.361  11.887  18.425  0.00  0.00    +0.000 C 
ATOM     14  O   UNL     1      -3.579  11.794  18.355  0.00  0.00    +0.000 OA
ATOM     15  H   UNL     1      -2.080  12.502  16.487  0.00  0.00    +0.000 HD
ATOM     16  H   UNL     1      -0.602  12.317  17.417  0.00  0.00    +0.000 HD
ENDBRANCH   5  13
ENDBRANCH   1   7
BRANCH   3  17
ATOM     17  C   UNL     1       2.197   7.575  19.114  0.00  0.00    +0.000 A 
ATOM     18  C   UNL     1       3.034   7.629  17.999  0.00  0.00    +0.000 A 
ATOM     19  C   UNL     1       3.904   6.572  17.708  0.00  0.00    +0.000 A 
ATOM     20  C   UNL     1       3.932   5.414  18.502  0.00  0.00    +0.000 A 
ATOM     21  C   UNL     1       3.146   5.422  19.655  0.00  0.00    +0.000 A 
ATOM     22  F   UNL     1       3.150   4.385  20.503  0.00  0.00    +0.000 F 
ATOM     23  C   UNL     1       2.300   6.484  19.972  0.00  0.00    +0.000 A 
BRANCH  20  24
ATOM     24  C   UNL     1       4.816   4.235  18.115  0.00  0.00    +0.000 C 
ATOM     25  C   UNL     1       5.351   4.179  16.654  0.00  0.00    +0.000 C 
ATOM     26  N   UNL     1       6.347   5.230  16.349  0.00  0.00    +0.000 NA
ATOM     27  C   UNL     1       7.442   5.115  17.328  0.00  0.00    +0.000 C 
ATOM     28  C   UNL     1       6.941   5.124  18.778  0.00  0.00    +0.000 C 
ATOM     29  O   UNL     1       5.945   4.116  19.017  0.00  0.00    +0.000 OA
ATOM     30  H   UNL     1       5.895   6.138  16.468  0.00  0.00    +0.000 HD
ENDBRANCH  20  24
ENDBRANCH   3  17
TORSDOF 4
ENDMDL
MODEL 2
REMARK VINA RESULT:      -8.0      3.697      9.181
REMARK  Name = 
REMARK  4 active torsions:
REMARK  status: ('A' for Active; 'I' for Inactive)
REMARK    1  A    between atoms: C_2  and  C_4
REMARK    2  A    between atoms: C_6  and  C_7
REMARK    3  A    between atoms: N_9  and  C_10
REMARK    4  A    between atoms: C_13  and  C_14
REMARK                            x       y       z     vdW  Elec       q    Type
REMARK                         _______ _______ _______ _____ _____    ______ ____
ROOT
ATOM      1  C   UNL     1       3.239   5.964  17.831  0.00  0.00    +0.000 C 
ATOM      2  O   UNL     1       2.237   5.263  17.938  0.00  0.00    +0.000 OA
ATOM      3  N   UNL     1       3.332   7.312  18.114  0.00  0.00    +0.000 N 
ATOM      4  H   UNL     1       4.147   7.809  17.779  0.00  0.00    +0.000 HD
ENDROOT
BRANCH   1   7
ATOM      5  C   UNL     1       6.740   4.749  17.559  0.00  0.00    +0.000 A 
ATOM      6  C   UNL     1       5.572   5.260  18.091  0.00  0.00    +0.000 A 
ATOM      7  C   UNL     1       4.448   5.322  17.271  0.00  0.00    +0.000 A 
ATOM      8  C   UNL     1       4.516   4.860  15.959  0.00  0.00    +0.000 A 
ATOM      9  C   UNL     1       5.735   4.360  15.534  0.00  0.00    +0.000 A 
ATOM     10 CL   UNL     1       5.930   3.791  13.926  0.00  0.00    +0.000 Cl
ATOM     11  N   UNL     1       6.851   4.287  16.287  0.00  0.00    +0.000 NA
BRANCH   5  13
ATOM     12  N   UNL     1       7.973   5.571  19.482  0.00  0.00    +0.000 N 
ATOM     13  C   UNL     1       7.971   4.727  18.408  0.00  0.00    +0.000 C 
ATOM     14  O   UNL     1       8.918   3.989  18.169  0.00  0.00    +0.000 OA
ATOM     15  H   UNL     1       8.757   5.542  20.121  0.00  0.00    +0.000 HD
ATOM     16  H   UNL     1       7.153   6.122  19.704  0.00  0.00    +0.000 HD
ENDBRANCH   5  13
ENDBRANCH   1   7
BRANCH   3  17
ATOM     17  C   UNL     1       2.256   8.112  18.559  0.00  0.00    +0.000 A 
ATOM     18  C   UNL     1       1.533   8.974  17.734  0.00  0.00    +0.000 A 
ATOM     19  C   UNL     1       0.550   9.816  18.268  0.00  0.00    +0.000 A 
ATOM     20  C   UNL     1       0.290   9.846  19.648  0.00  0.00    +0.000 A 
ATOM     21  C   UNL     1       0.968   8.916  20.437  0.00  0.00    +0.000 A 
ATOM     22  F   UNL     1       0.746   8.834  21.755  0.00  0.00    +0.000 F 
ATOM     23  C   UNL     1       1.927   8.051  19.910  0.00  0.00    +0.000 A 
BRANCH  20  24
ATOM     24  C   UNL     1      -0.715  10.837  20.221  0.00  0.00    +0.000 C 
ATOM     25  C   UNL     1      -0.377  11.509  21.584  0.00  0.00    +0.000 C 
ATOM     26  N   UNL     1       0.755  12.459  21.509  0.00  0.00    +0.000 NA
ATOM     27  C   UNL     1       0.437  13.462  20.478  0.00  0.00    +0.000 C 
ATOM     28  C   UNL     1       0.058  12.829  19.134  0.00  0.00    +0.000 C 
ATOM     29  O   UNL     1      -1.016  11.882  19.261  0.00  0.00    +0.000 OA
ATOM     30  H   UNL     1       1.585  11.940  21.216  0.00  0.00    +0.000 HD
ENDBRANCH  20  24
ENDBRANCH   3  17
TORSDOF 4
ENDMDL
MODEL 3
REMARK VINA RESULT:      -7.9      3.637      8.928
REMARK  Name = 
REMARK  4 active torsions:
REMARK  status: ('A' for Active; 'I' for Inactive)
REMARK    1  A    between atoms: C_2  and  C_4
REMARK    2  A    between atoms: C_6  and  C_7
REMARK    3  A    between atoms: N_9  and  C_10
REMARK    4  A    between atoms: C_13  and  C_14
REMARK                            x       y       z     vdW  Elec       q    Type
REMARK                         _______ _______ _______ _____ _____    ______ ____
ROOT
ATOM      1  C   UNL     1       2.577   7.329  18.632  0.00  0.00    +0.000 C 
ATOM      2  O   UNL     1       2.278   7.353  19.822  0.00  0.00    +0.000 OA
ATOM      3  N   UNL     1       2.317   8.314  17.701  0.00  0.00    +0.000 N 
ATOM      4  H   UNL     1       2.420   8.077  16.722  0.00  0.00    +0.000 HD
ENDROOT
BRANCH   1   7
ATOM      5  C   UNL     1       5.047   5.085  16.998  0.00  0.00    +0.000 A 
ATOM      6  C   UNL     1       4.476   6.210  17.561  0.00  0.00    +0.000 A 
ATOM      7  C   UNL     1       3.209   6.091  18.126  0.00  0.00    +0.000 A 
ATOM      8  C   UNL     1       2.559   4.859  18.129  0.00  0.00    +0.000 A 
ATOM      9  C   UNL     1       3.228   3.798  17.545  0.00  0.00    +0.000 A 
ATOM     10 CL   UNL     1       2.503   2.244  17.473  0.00  0.00    +0.000 Cl
ATOM     11  N   UNL     1       4.451   3.865  16.979  0.00  0.00    +0.000 NA
BRANCH   5  13
ATOM     12  N   UNL     1       7.386   4.447  16.869  0.00  0.00    +0.000 N 
ATOM     13  C   UNL     1       6.383   5.208  16.338  0.00  0.00    +0.000 C 
ATOM     14  O   UNL     1       6.572   5.933  15.370  0.00  0.00    +0.000 OA
ATOM     15  H   UNL     1       8.289   4.448  16.413  0.00  0.00    +0.000 HD
ATOM     16  H   UNL     1       7.195   3.800  17.625  0.00  0.00    +0.000 HD
ENDBRANCH   5  13
ENDBRANCH   1   7
BRANCH   3  17
ATOM     17  C   UNL     1       1.633   9.518  17.979  0.00  0.00    +0.000 A 
ATOM     18  C   UNL     1       2.268  10.735  18.226  0.00  0.00    +0.000 A 
ATOM     19  C   UNL     1       1.529  11.864  18.600  0.00  0.00    +0.000 A 
ATOM     20  C   UNL     1       0.137  11.795  18.777  0.00  0.00    +0.000 A 
ATOM     21  C   UNL     1      -0.481  10.589  18.443  0.00  0.00    +0.000 A 
ATOM     22  F   UNL     1      -1.810  10.446  18.528  0.00  0.00    +0.000 F 
ATOM     23  C   UNL     1       0.243   9.468  18.039  0.00  0.00    +0.000 A 
BRANCH  20  24
ATOM     24  C   UNL     1      -0.637  13.008  19.277  0.00  0.00    +0.000 C 
ATOM     25  C   UNL     1      -1.899  12.754  20.153  0.00  0.00    +0.000 C 
ATOM     26  N   UNL     1      -1.587  12.203  21.490  0.00  0.00    +0.000 NA
ATOM     27  C   UNL     1      -0.648  13.125  22.153  0.00  0.00    +0.000 C 
ATOM     28  C   UNL     1       0.587  13.428  21.295  0.00  0.00    +0.000 C 
ATOM     29  O   UNL     1       0.236  13.920  19.991  0.00  0.00    +0.000 OA
ATOM     30  H   UNL     1      -1.125  11.301  21.361  0.00  0.00    +0.000 HD
ENDBRANCH  20  24
ENDBRANCH   3  17
TORSDOF 4
ENDMDL
MODEL 4
REMARK VINA RESULT:      -7.9      3.704      9.065
REMARK  Name = 
REMARK  4 active torsions:
REMARK  status: ('A' for Active; 'I' for Inactive)
REMARK    1  A    between atoms: C_2  and  C_4
REMARK    2  A    between atoms: C_6  and  C_7
REMARK    3  A    between atoms: N_9  and  C_10
REMARK    4  A    between atoms: C_13  and  C_14
REMARK                            x       y       z     vdW  Elec       q    Type
REMARK                         _______ _______ _______ _____ _____    ______ ____
ROOT
ATOM      1  C   UNL     1       2.207   6.060  20.135  0.00  0.00    +0.000 C 
ATOM      2  O   UNL     1       1.206   5.602  20.678  0.00  0.00    +0.000 OA
ATOM      3  N   UNL     1       2.473   7.393  19.896  0.00  0.00    +0.000 N 
ATOM      4  H   UNL     1       3.223   7.617  19.254  0.00  0.00    +0.000 HD
ENDROOT
BRANCH   1   7
ATOM      5  C   UNL     1       5.355   4.705  18.700  0.00  0.00    +0.000 A 
ATOM      6  C   UNL     1       4.450   5.577  19.273  0.00  0.00    +0.000 A 
ATOM      7  C   UNL     1       3.192   5.086  19.616  0.00  0.00    +0.000 A 
ATOM      8  C   UNL     1       2.881   3.747  19.394  0.00  0.00    +0.000 A 
ATOM      9  C   UNL     1       3.867   2.962  18.821  0.00  0.00    +0.000 A 
ATOM     10 CL   UNL     1       3.574   1.305  18.483  0.00  0.00    +0.000 Cl
ATOM     11  N   UNL     1       5.094   3.392  18.466  0.00  0.00    +0.000 NA
BRANCH   5  13
ATOM     12  N   UNL     1       7.672   4.292  18.104  0.00  0.00    +0.000 N 
ATOM     13  C   UNL     1       6.690   5.227  18.274  0.00  0.00    +0.000 C 
ATOM     14  O   UNL     1       6.895   6.417  18.076  0.00  0.00    +0.000 OA
ATOM     15  H   UNL     1       8.572   4.593  17.754  0.00  0.00    +0.000 HD
ATOM     16  H   UNL     1       7.466   3.306  18.205  0.00  0.00    +0.000 HD
ENDBRANCH   5  13
ENDBRANCH   1   7
BRANCH   3  17
ATOM     17  C   UNL     1       1.603   8.455  20.229  0.00  0.00    +0.000 A 
ATOM     18  C   UNL     1       1.191   8.746  21.529  0.00  0.00    +0.000 A 
ATOM     19  C   UNL     1       0.242   9.747  21.770  0.00  0.00    +0.000 A 
ATOM     20  C   UNL     1      -0.349  10.459  20.713  0.00  0.00    +0.000 A 
ATOM     21  C   UNL     1       0.142  10.205  19.432  0.00  0.00    +0.000 A 
ATOM     22  F   UNL     1      -0.323  10.873  18.368  0.00  0.00    +0.000 F 
ATOM     23  C   UNL     1       1.109   9.232  19.184  0.00  0.00    +0.000 A 
BRANCH  20  24
ATOM     24  C   UNL     1      -1.448  11.477  20.990  0.00  0.00    +0.000 C 
ATOM     25  C   UNL     1      -1.766  11.817  22.476  0.00  0.00    +0.000 C 
ATOM     26  N   UNL     1      -0.683  12.564  23.154  0.00  0.00    +0.000 NA
ATOM     27  C   UNL     1      -0.412  13.781  22.370  0.00  0.00    +0.000 C 
ATOM     28  C   UNL     1      -0.137  13.481  20.891  0.00  0.00    +0.000 C 
ATOM     29  O   UNL     1      -1.192  12.718  20.284  0.00  0.00    +0.000 OA
ATOM     30  H   UNL     1       0.154  11.979  23.153  0.00  0.00    +0.000 HD
ENDBRANCH  20  24
ENDBRANCH   3  17
TORSDOF 4
ENDMDL
MODEL 5
REMARK VINA RESULT:      -7.9      3.655      9.187
REMARK  Name = 
REMARK  4 active torsions:
REMARK  status: ('A' for Active; 'I' for Inactive)
REMARK    1  A    between atoms: C_2  and  C_4
REMARK    2  A    between atoms: C_6  and  C_7
REMARK    3  A    between atoms: N_9  and  C_10
REMARK    4  A    between atoms: C_13  and  C_14
REMARK                            x       y       z     vdW  Elec       q    Type
REMARK                         _______ _______ _______ _____ _____    ______ ____
ROOT
ATOM      1  C   UNL     1       2.312   6.546  19.482  0.00  0.00    +0.000 C 
ATOM      2  O   UNL     1       1.726   6.135  20.479  0.00  0.00    +0.000 OA
ATOM      3  N   UNL     1       2.217   7.811  18.937  0.00  0.00    +0.000 N 
ATOM      4  H   UNL     1       2.579   7.950  18.002  0.00  0.00    +0.000 HD
ENDROOT
BRANCH   1   7
ATOM      5  C   UNL     1       4.177   3.426  18.710  0.00  0.00    +0.000 A 
ATOM      6  C   UNL     1       3.331   4.322  19.335  0.00  0.00    +0.000 A 
ATOM      7  C   UNL     1       3.142   5.569  18.744  0.00  0.00    +0.000 A 
ATOM      8  C   UNL     1       3.786   5.879  17.548  0.00  0.00    +0.000 A 
ATOM      9  C   UNL     1       4.604   4.903  17.007  0.00  0.00    +0.000 A 
ATOM     10 CL   UNL     1       5.462   5.195  15.549  0.00  0.00    +0.000 Cl
ATOM     11  N   UNL     1       4.824   3.686  17.545  0.00  0.00    +0.000 NA
BRANCH   5  13
ATOM     12  N   UNL     1       4.141   1.001  18.608  0.00  0.00    +0.000 N 
ATOM     13  C   UNL     1       4.434   2.104  19.359  0.00  0.00    +0.000 C 
ATOM     14  O   UNL     1       4.893   2.007  20.490  0.00  0.00    +0.000 OA
ATOM     15  H   UNL     1       4.360   0.087  18.982  0.00  0.00    +0.000 HD
ATOM     16  H   UNL     1       3.828   1.100  17.650  0.00  0.00    +0.000 HD
ENDBRANCH   5  13
ENDBRANCH   1   7
BRANCH   3  17
ATOM     17  C   UNL     1       1.396   8.842  19.445  0.00  0.00    +0.000 A 
ATOM     18  C   UNL     1       1.175   9.063  20.805  0.00  0.00    +0.000 A 
ATOM     19  C   UNL     1       0.264  10.036  21.231  0.00  0.00    +0.000 A 
ATOM     20  C   UNL     1      -0.482  10.788  20.308  0.00  0.00    +0.000 A 
ATOM     21  C   UNL     1      -0.182  10.604  18.958  0.00  0.00    +0.000 A 
ATOM     22  F   UNL     1      -0.804  11.314  18.007  0.00  0.00    +0.000 F 
ATOM     23  C   UNL     1       0.748   9.659  18.524  0.00  0.00    +0.000 A 
BRANCH  20  24
ATOM     24  C   UNL     1      -1.538  11.773  20.791  0.00  0.00    +0.000 C 
ATOM     25  C   UNL     1      -1.765  11.899  22.327  0.00  0.00    +0.000 C 
ATOM     26  N   UNL     1      -0.629  12.521  23.042  0.00  0.00    +0.000 NA
ATOM     27  C   UNL     1      -0.370  13.834  22.427  0.00  0.00    +0.000 C 
ATOM     28  C   UNL     1      -0.184  13.748  20.907  0.00  0.00    +0.000 C 
ATOM     29  O   UNL     1      -1.291  13.099  20.259  0.00  0.00    +0.000 OA
ATOM     30  H   UNL     1       0.192  11.928  22.908  0.00  0.00    +0.000 HD
ENDBRANCH  20  24
ENDBRANCH   3  17
TORSDOF 4
ENDMDL
MODEL 6
REMARK VINA RESULT:      -7.9      3.911      8.867
REMARK  Name = 
REMARK  4 active torsions:
REMARK  status: ('A' for Active; 'I' for Inactive)
REMARK    1  A    between atoms: C_2  and  C_4
REMARK    2  A    between atoms: C_6  and  C_7
REMARK    3  A    between atoms: N_9  and  C_10
REMARK    4  A    between atoms: C_13  and  C_14
REMARK                            x       y       z     vdW  Elec       q    Type
REMARK                         _______ _______ _______ _____ _____    ______ ____
ROOT
ATOM      1  C   UNL     1       2.359   7.620  18.585  0.00  0.00    +0.000 C 
ATOM      2  O   UNL     1       2.211   7.647  19.803  0.00  0.00    +0.000 OA
ATOM      3  N   UNL     1       1.965   8.593  17.690  0.00  0.00    +0.000 N 
ATOM      4  H   UNL     1       1.950   8.351  16.706  0.00  0.00    +0.000 HD
ENDROOT
BRANCH   1   7
ATOM      5  C   UNL     1       2.831   4.027  17.763  0.00  0.00    +0.000 A 
ATOM      6  C   UNL     1       2.254   5.200  18.210  0.00  0.00    +0.000 A 
ATOM      7  C   UNL     1       2.949   6.392  18.010  0.00  0.00    +0.000 A 
ATOM      8  C   UNL     1       4.180   6.380  17.360  0.00  0.00    +0.000 A 
ATOM      9  C   UNL     1       4.658   5.149  16.947  0.00  0.00    +0.000 A 
ATOM     10 CL   UNL     1       6.178   5.024  16.159  0.00  0.00    +0.000 Cl
ATOM     11  N   UNL     1       4.028   3.970  17.124  0.00  0.00    +0.000 NA
BRANCH   5  13
ATOM     12  N   UNL     1       2.914   1.619  18.057  0.00  0.00    +0.000 N 
ATOM     13  C   UNL     1       2.125   2.734  18.019  0.00  0.00    +0.000 C 
ATOM     14  O   UNL     1       0.916   2.671  18.199  0.00  0.00    +0.000 OA
ATOM     15  H   UNL     1       2.489   0.732  18.292  0.00  0.00    +0.000 HD
ATOM     16  H   UNL     1       3.920   1.699  17.975  0.00  0.00    +0.000 HD
ENDBRANCH   5  13
ENDBRANCH   1   7
BRANCH   3  17
ATOM     17  C   UNL     1       1.296   9.785  18.046  0.00  0.00    +0.000 A 
ATOM     18  C   UNL     1       1.947  10.969  18.395  0.00  0.00    +0.000 A 
ATOM     19  C   UNL     1       1.219  12.079  18.840  0.00  0.00    +0.000 A 
ATOM     20  C   UNL     1      -0.177  12.023  18.986  0.00  0.00    +0.000 A 
ATOM     21  C   UNL     1      -0.808  10.856  18.552  0.00  0.00    +0.000 A 
ATOM     22  F   UNL     1      -2.141  10.731  18.603  0.00  0.00    +0.000 F 
ATOM     23  C   UNL     1      -0.095   9.756  18.077  0.00  0.00    +0.000 A 
BRANCH  20  24
ATOM     24  C   UNL     1      -0.939  13.208  19.563  0.00  0.00    +0.000 C 
ATOM     25  C   UNL     1      -2.168  12.909  20.471  0.00  0.00    +0.000 C 
ATOM     26  N   UNL     1      -1.807  12.305  21.772  0.00  0.00    +0.000 NA
ATOM     27  C   UNL     1      -0.851  13.206  22.440  0.00  0.00    +0.000 C 
ATOM     28  C   UNL     1       0.352  13.553  21.553  0.00  0.00    +0.000 C 
ATOM     29  O   UNL     1      -0.047  14.096  20.284  0.00  0.00    +0.000 OA
ATOM     30  H   UNL     1      -1.345  11.413  21.590  0.00  0.00    +0.000 HD
ENDBRANCH  20  24
ENDBRANCH   3  17
TORSDOF 4
ENDMDL
MODEL 7
REMARK VINA RESULT:      -7.9      3.539      9.105
REMARK  Name = 
REMARK  4 active torsions:
REMARK  status: ('A' for Active; 'I' for Inactive)
REMARK    1  A    between atoms: C_2  and  C_4
REMARK    2  A    between atoms: C_6  and  C_7
REMARK    3  A    between atoms: N_9  and  C_10
REMARK    4  A    between atoms: C_13  and  C_14
REMARK                            x       y       z     vdW  Elec       q    Type
REMARK                         _______ _______ _______ _____ _____    ______ ____
ROOT
ATOM      1  C   UNL     1       3.077   7.036  18.850  0.00  0.00    +0.000 C 
ATOM      2  O   UNL     1       3.071   7.757  17.857  0.00  0.00    +0.000 OA
ATOM      3  N   UNL     1       2.387   7.254  20.026  0.00  0.00    +0.000 N 
ATOM      4  H   UNL     1       2.647   6.703  20.835  0.00  0.00    +0.000 HD
ENDROOT
BRANCH   1   7
ATOM      5  C   UNL     1       5.946   4.854  17.950  0.00  0.00    +0.000 A 
ATOM      6  C   UNL     1       5.142   5.971  18.072  0.00  0.00    +0.000 A 
ATOM      7  C   UNL     1       3.970   5.858  18.817  0.00  0.00    +0.000 A 
ATOM      8  C   UNL     1       3.645   4.648  19.426  0.00  0.00    +0.000 A 
ATOM      9  C   UNL     1       4.527   3.598  19.243  0.00  0.00    +0.000 A 
ATOM     10 CL   UNL     1       4.205   2.059  19.931  0.00  0.00    +0.000 Cl
ATOM     11  N   UNL     1       5.668   3.657  18.526  0.00  0.00    +0.000 NA
BRANCH   5  13
ATOM     12  N   UNL     1       7.169   5.894  16.127  0.00  0.00    +0.000 N 
ATOM     13  C   UNL     1       7.180   4.942  17.109  0.00  0.00    +0.000 C 
ATOM     14  O   UNL     1       8.150   4.219  17.291  0.00  0.00    +0.000 OA
ATOM     15  H   UNL     1       8.007   6.032  15.578  0.00  0.00    +0.000 HD
ATOM     16  H   UNL     1       6.386   6.529  16.037  0.00  0.00    +0.000 HD
ENDBRANCH   5  13
ENDBRANCH   1   7
BRANCH   3  17
ATOM     17  C   UNL     1       1.567   8.376  20.277  0.00  0.00    +0.000 A 
ATOM     18  C   UNL     1       1.148   8.765  21.549  0.00  0.00    +0.000 A 
ATOM     19  C   UNL     1       0.249   9.826  21.712  0.00  0.00    +0.000 A 
ATOM     20  C   UNL     1      -0.286  10.502  20.602  0.00  0.00    +0.000 A 
ATOM     21  C   UNL     1       0.213  10.147  19.349  0.00  0.00    +0.000 A 
ATOM     22  F   UNL     1      -0.198  10.773  18.238  0.00  0.00    +0.000 F 
ATOM     23  C   UNL     1       1.133   9.113  19.179  0.00  0.00    +0.000 A 
BRANCH  20  24
ATOM     24  C   UNL     1      -1.335  11.589  20.796  0.00  0.00    +0.000 C 
ATOM     25  C   UNL     1      -1.782  11.917  22.251  0.00  0.00    +0.000 C 
ATOM     26  N   UNL     1      -0.728  12.569  23.059  0.00  0.00    +0.000 NA
ATOM     27  C   UNL     1      -0.293  13.781  22.344  0.00  0.00    +0.000 C 
ATOM     28  C   UNL     1       0.114  13.497  20.892  0.00  0.00    +0.000 C 
ATOM     29  O   UNL     1      -0.923  12.825  20.158  0.00  0.00    +0.000 OA
ATOM     30  H   UNL     1       0.063  11.926  23.126  0.00  0.00    +0.000 HD
ENDBRANCH  20  24
ENDBRANCH   3  17
TORSDOF 4
ENDMDL
MODEL 8
REMARK VINA RESULT:      -7.9      3.480      8.930
REMARK  Name = 
REMARK  4 active torsions:
REMARK  status: ('A' for Active; 'I' for Inactive)
REMARK    1  A    between atoms: C_2  and  C_4
REMARK    2  A    between atoms: C_6  and  C_7
REMARK    3  A    between atoms: N_9  and  C_10
REMARK    4  A    between atoms: C_13  and  C_14
REMARK                            x       y       z     vdW  Elec       q    Type
REMARK                         _______ _______ _______ _____ _____    ______ ____
ROOT
ATOM      1  C   UNL     1       2.612   6.921  18.991  0.00  0.00    +0.000 C 
ATOM      2  O   UNL     1       2.223   7.334  17.902  0.00  0.00    +0.000 OA
ATOM      3  N   UNL     1       2.210   7.376  20.231  0.00  0.00    +0.000 N 
ATOM      4  H   UNL     1       2.763   7.105  21.034  0.00  0.00    +0.000 HD
ENDROOT
BRANCH   1   7
ATOM      5  C   UNL     1       5.762   5.165  18.099  0.00  0.00    +0.000 A 
ATOM      6  C   UNL     1       4.801   6.151  18.203  0.00  0.00    +0.000 A 
ATOM      7  C   UNL     1       3.672   5.890  18.976  0.00  0.00    +0.000 A 
ATOM      8  C   UNL     1       3.544   4.669  19.633  0.00  0.00    +0.000 A 
ATOM      9  C   UNL     1       4.571   3.758  19.466  0.00  0.00    +0.000 A 
ATOM     10 CL   UNL     1       4.497   2.214  20.212  0.00  0.00    +0.000 Cl
ATOM     11  N   UNL     1       5.678   3.961  18.722  0.00  0.00    +0.000 NA
BRANCH   5  13
ATOM     12  N   UNL     1       7.850   4.379  17.142  0.00  0.00    +0.000 N 
ATOM     13  C   UNL     1       6.953   5.406  17.228  0.00  0.00    +0.000 C 
ATOM     14  O   UNL     1       7.115   6.454  16.616  0.00  0.00    +0.000 OA
ATOM     15  H   UNL     1       8.636   4.474  16.513  0.00  0.00    +0.000 HD
ATOM     16  H   UNL     1       7.664   3.495  17.600  0.00  0.00    +0.000 HD
ENDBRANCH   5  13
ENDBRANCH   1   7
BRANCH   3  17
ATOM     17  C   UNL     1       1.284   8.423  20.438  0.00  0.00    +0.000 A 
ATOM     18  C   UNL     1       0.953   9.372  19.471  0.00  0.00    +0.000 A 
ATOM     19  C   UNL     1       0.109  10.444  19.783  0.00  0.00    +0.000 A 
ATOM     20  C   UNL     1      -0.396  10.618  21.083  0.00  0.00    +0.000 A 
ATOM     21  C   UNL     1      -0.116   9.611  22.007  0.00  0.00    +0.000 A 
ATOM     22  F   UNL     1      -0.598   9.664  23.255  0.00  0.00    +0.000 F 
ATOM     23  C   UNL     1       0.698   8.522  21.697  0.00  0.00    +0.000 A 
BRANCH  20  24
ATOM     24  C   UNL     1      -1.234  11.843  21.425  0.00  0.00    +0.000 C 
ATOM     25  C   UNL     1      -0.652  12.857  22.453  0.00  0.00    +0.000 C 
ATOM     26  N   UNL     1       0.520  13.605  21.945  0.00  0.00    +0.000 NA
ATOM     27  C   UNL     1       0.123  14.274  20.695  0.00  0.00    +0.000 C 
ATOM     28  C   UNL     1      -0.495  13.307  19.677  0.00  0.00    +0.000 C 
ATOM     29  O   UNL     1      -1.601  12.571  20.226  0.00  0.00    +0.000 OA
ATOM     30  H   UNL     1       1.258  12.931  21.737  0.00  0.00    +0.000 HD
ENDBRANCH  20  24
ENDBRANCH   3  17
TORSDOF 4
ENDMDL
MODEL 9
REMARK VINA RESULT:      -7.8      3.684      9.106
REMARK  Name = 
REMARK  4 active torsions:
REMARK  status: ('A' for Active; 'I' for Inactive)
REMARK    1  A    between atoms: C_2  and  C_4
REMARK    2  A    between atoms: C_6  and  C_7
REMARK    3  A    between atoms: N_9  and  C_10
REMARK    4  A    between atoms: C_13  and  C_14
REMARK                            x       y       z     vdW  Elec       q    Type
REMARK                         _______ _______ _______ _____ _____    ______ ____
ROOT
ATOM      1  C   UNL     1       2.700   7.738  18.072  0.00  0.00    +0.000 C 
ATOM      2  O   UNL     1       2.838   8.648  17.259  0.00  0.00    +0.000 OA
ATOM      3  N   UNL     1       1.943   7.778  19.227  0.00  0.00    +0.000 N 
ATOM      4  H   UNL     1       2.089   7.046  19.911  0.00  0.00    +0.000 HD
ENDROOT
BRANCH   1   7
ATOM      5  C   UNL     1       5.523   5.525  17.107  0.00  0.00    +0.000 A 
ATOM      6  C   UNL     1       4.802   6.660  17.424  0.00  0.00    +0.000 A 
ATOM      7  C   UNL     1       3.480   6.505  17.835  0.00  0.00    +0.000 A 
ATOM      8  C   UNL     1       2.925   5.231  17.934  0.00  0.00    +0.000 A 
ATOM      9  C   UNL     1       3.741   4.165  17.600  0.00  0.00    +0.000 A 
ATOM     10 CL   UNL     1       3.144   2.558  17.663  0.00  0.00    +0.000 Cl
ATOM     11  N   UNL     1       5.022   4.265  17.189  0.00  0.00    +0.000 NA
BRANCH   5  13
ATOM     12  N   UNL     1       7.463   6.928  16.705  0.00  0.00    +0.000 N 
ATOM     13  C   UNL     1       6.925   5.675  16.610  0.00  0.00    +0.000 C 
ATOM     14  O   UNL     1       7.565   4.735  16.158  0.00  0.00    +0.000 OA
ATOM     15  H   UNL     1       8.430   7.062  16.441  0.00  0.00    +0.000 HD
ATOM     16  H   UNL     1       6.944   7.678  17.145  0.00  0.00    +0.000 HD
ENDBRANCH   5  13
ENDBRANCH   1   7
BRANCH   3  17
ATOM     17  C   UNL     1       1.214   8.904  19.668  0.00  0.00    +0.000 A 
ATOM     18  C   UNL     1       1.074   9.265  21.008  0.00  0.00    +0.000 A 
ATOM     19  C   UNL     1       0.247  10.333  21.377  0.00  0.00    +0.000 A 
ATOM     20  C   UNL     1      -0.493  11.045  20.419  0.00  0.00    +0.000 A 
ATOM     21  C   UNL     1      -0.270  10.717  19.081  0.00  0.00    +0.000 A 
ATOM     22  F   UNL     1      -0.889  11.377  18.094  0.00  0.00    +0.000 F 
ATOM     23  C   UNL     1       0.576   9.676  18.700  0.00  0.00    +0.000 A 
BRANCH  20  24
ATOM     24  C   UNL     1      -1.459  12.140  20.850  0.00  0.00    +0.000 C 
ATOM     25  C   UNL     1      -1.638  12.391  22.376  0.00  0.00    +0.000 C 
ATOM     26  N   UNL     1      -0.441  12.973  23.022  0.00  0.00    +0.000 NA
ATOM     27  C   UNL     1      -0.100  14.216  22.309  0.00  0.00    +0.000 C 
ATOM     28  C   UNL     1       0.041  14.009  20.795  0.00  0.00    +0.000 C 
ATOM     29  O   UNL     1      -1.126  13.402  20.218  0.00  0.00    +0.000 OA
ATOM     30  H   UNL     1       0.329  12.311  22.916  0.00  0.00    +0.000 HD
ENDBRANCH  20  24
ENDBRANCH   3  17
TORSDOF 4
ENDMDL
