MODEL 1
REMARK VINA RESULT:      -7.5      0.000      0.000
REMARK  Name = 
REMARK  8 active torsions:
REMARK  status: ('A' for Active; 'I' for Inactive)
REMARK    1  A    between atoms: C_1  and  C_2
REMARK    2  A    between atoms: C_2  and  C_3
REMARK    3  A    between atoms: C_3  and  N_4
REMARK    4  A    between atoms: C_5  and  C_7
REMARK    5  A    between atoms: C_10  and  C_11
REMARK    6  A    between atoms: C_12  and  N_13
REMARK    7  A    between atoms: C_14  and  C_16
REMARK    8  A    between atoms: C_17  and  C_18
REMARK                            x       y       z     vdW  Elec       q    Type
REMARK                         _______ _______ _______ _____ _____    ______ ____
ROOT
ATOM      1  C   UNL     1       6.411   4.156  14.063  0.00  0.00    +0.000 A 
ATOM      2  C   UNL     1       7.486   4.982  14.403  0.00  0.00    +0.000 A 
ATOM      3  C   UNL     1       7.755   5.259  15.748  0.00  0.00    +0.000 A 
ATOM      4  C   UNL     1       6.955   4.722  16.770  0.00  0.00    +0.000 A 
ATOM      5  C   UNL     1       7.246   5.074  18.203  0.00  0.00    +0.000 C 
ATOM      6  C   UNL     1       5.842   3.943  16.414  0.00  0.00    +0.000 A 
ATOM      7  C   UNL     1       5.588   3.645  15.068  0.00  0.00    +0.000 A 
ENDROOT
BRANCH   1   9
ATOM      8  N   UNL     1       4.879   3.272  12.396  0.00  0.00    +0.000 N 
ATOM      9  C   UNL     1       6.148   3.749  12.656  0.00  0.00    +0.000 C 
ATOM     10  O   UNL     1       7.034   3.840  11.814  0.00  0.00    +0.000 OA
ATOM     11  H   UNL     1       4.317   2.965  13.180  0.00  0.00    +0.000 HD
BRANCH   8  12
ATOM     12  C   UNL     1       4.520   2.792  11.076  0.00  0.00    +0.000 C 
BRANCH  12  14
ATOM     13  C   UNL     1       3.060   4.247   9.601  0.00  0.00    +0.000 C 
ATOM     14  C   UNL     1       3.097   3.186  10.692  0.00  0.00    +0.000 C 
ENDBRANCH  12  14
ENDBRANCH   8  12
ENDBRANCH   1   9
BRANCH   6  15
ATOM     15  N   UNL     1       4.972   3.456  17.408  0.00  0.00    +0.000 N 
ATOM     16  C   UNL     1       3.892   4.197  17.866  0.00  0.00    +0.000 C 
ATOM     17  O   UNL     1       3.676   5.349  17.503  0.00  0.00    +0.000 OA
ATOM     18  H   UNL     1       5.297   2.730  18.037  0.00  0.00    +0.000 HD
BRANCH  16  19
ATOM     19  C   UNL     1       3.068   3.522  18.948  0.00  0.00    +0.000 C 
ATOM     20  C   UNL     1       1.720   3.436  18.857  0.00  0.00    +0.000 C 
ATOM     21  C   UNL     1       0.882   3.900  17.693  0.00  0.00    +0.000 C 
ATOM     22  O   UNL     1       0.912   2.809  19.777  0.00  0.00    +0.000 OA
ATOM     23  C   UNL     1       1.269   2.690  21.145  0.00  0.00    +0.000 C 
ATOM     24  C   UNL     1       2.731   2.771  21.553  0.00  0.00    +0.000 C 
ATOM     25  S   UNL     1       3.947   2.741  20.232  0.00  0.00    +0.000 S 
ENDBRANCH  16  19
ENDBRANCH   6  15
TORSDOF 5
ENDMDL
MODEL 2
REMARK VINA RESULT:      -7.4      1.089      1.207
REMARK  Name = 
REMARK  8 active torsions:
REMARK  status: ('A' for Active; 'I' for Inactive)
REMARK    1  A    between atoms: C_1  and  C_2
REMARK    2  A    between atoms: C_2  and  C_3
REMARK    3  A    between atoms: C_3  and  N_4
REMARK    4  A    between atoms: C_5  and  C_7
REMARK    5  A    between atoms: C_10  and  C_11
REMARK    6  A    between atoms: C_12  and  N_13
REMARK    7  A    between atoms: C_14  and  C_16
REMARK    8  A    between atoms: C_17  and  C_18
REMARK                            x       y       z     vdW  Elec       q    Type
REMARK                         _______ _______ _______ _____ _____    ______ ____
ROOT
ATOM      1  C   UNL     1       6.280   4.207  14.117  0.00  0.00    +0.000 A 
ATOM      2  C   UNL     1       7.403   4.956  14.483  0.00  0.00    +0.000 A 
ATOM      3  C   UNL     1       7.613   5.284  15.826  0.00  0.00    +0.000 A 
ATOM      4  C   UNL     1       6.709   4.876  16.820  0.00  0.00    +0.000 A 
ATOM      5  C   UNL     1       6.944   5.283  18.250  0.00  0.00    +0.000 C 
ATOM      6  C   UNL     1       5.554   4.178  16.434  0.00  0.00    +0.000 A 
ATOM      7  C   UNL     1       5.356   3.827  15.091  0.00  0.00    +0.000 A 
ENDROOT
BRANCH   1   9
ATOM      8  N   UNL     1       4.774   3.382  12.396  0.00  0.00    +0.000 N 
ATOM      9  C   UNL     1       6.066   3.745  12.718  0.00  0.00    +0.000 C 
ATOM     10  O   UNL     1       7.008   3.698  11.935  0.00  0.00    +0.000 OA
ATOM     11  H   UNL     1       4.135   3.180  13.155  0.00  0.00    +0.000 HD
BRANCH   8  12
ATOM     12  C   UNL     1       4.452   2.863  11.082  0.00  0.00    +0.000 C 
BRANCH  12  14
ATOM     13  C   UNL     1       2.986   4.223   9.525  0.00  0.00    +0.000 C 
ATOM     14  C   UNL     1       3.027   3.212  10.663  0.00  0.00    +0.000 C 
ENDBRANCH  12  14
ENDBRANCH   8  12
ENDBRANCH   1   9
BRANCH   6  15
ATOM     15  N   UNL     1       4.585   3.825  17.393  0.00  0.00    +0.000 N 
ATOM     16  C   UNL     1       3.535   4.670  17.722  0.00  0.00    +0.000 C 
ATOM     17  O   UNL     1       3.429   5.805  17.267  0.00  0.00    +0.000 OA
ATOM     18  H   UNL     1       4.814   3.125  18.091  0.00  0.00    +0.000 HD
BRANCH  16  19
ATOM     19  C   UNL     1       2.593   4.132  18.784  0.00  0.00    +0.000 C 
ATOM     20  C   UNL     1       2.146   4.918  19.792  0.00  0.00    +0.000 C 
ATOM     21  C   UNL     1       2.435   6.388  19.961  0.00  0.00    +0.000 C 
ATOM     22  O   UNL     1       1.265   4.513  20.767  0.00  0.00    +0.000 OA
ATOM     23  C   UNL     1       1.162   3.161  21.184  0.00  0.00    +0.000 C 
ATOM     24  C   UNL     1       1.615   2.047  20.254  0.00  0.00    +0.000 C 
ATOM     25  S   UNL     1       2.004   2.509  18.562  0.00  0.00    +0.000 S 
ENDBRANCH  16  19
ENDBRANCH   6  15
TORSDOF 5
ENDMDL
MODEL 3
REMARK VINA RESULT:      -7.2      1.186      1.388
REMARK  Name = 
REMARK  8 active torsions:
REMARK  status: ('A' for Active; 'I' for Inactive)
REMARK    1  A    between atoms: C_1  and  C_2
REMARK    2  A    between atoms: C_2  and  C_3
REMARK    3  A    between atoms: C_3  and  N_4
REMARK    4  A    between atoms: C_5  and  C_7
REMARK    5  A    between atoms: C_10  and  C_11
REMARK    6  A    between atoms: C_12  and  N_13
REMARK    7  A    between atoms: C_14  and  C_16
REMARK    8  A    between atoms: C_17  and  C_18
REMARK                            x       y       z     vdW  Elec       q    Type
REMARK                         _______ _______ _______ _____ _____    ______ ____
ROOT
ATOM      1  C   UNL     1       5.909   3.791  13.541  0.00  0.00    +0.000 A 
ATOM      2  C   UNL     1       7.057   4.588  13.592  0.00  0.00    +0.000 A 
ATOM      3  C   UNL     1       7.545   5.029  14.826  0.00  0.00    +0.000 A 
ATOM      4  C   UNL     1       6.895   4.689  16.024  0.00  0.00    +0.000 A 
ATOM      5  C   UNL     1       7.422   5.216  17.330  0.00  0.00    +0.000 C 
ATOM      6  C   UNL     1       5.709   3.940  15.956  0.00  0.00    +0.000 A 
ATOM      7  C   UNL     1       5.235   3.476  14.722  0.00  0.00    +0.000 A 
ENDROOT
BRANCH   1   9
ATOM      8  N   UNL     1       4.158   3.629  11.863  0.00  0.00    +0.000 N 
ATOM      9  C   UNL     1       5.411   3.212  12.264  0.00  0.00    +0.000 C 
ATOM     10  O   UNL     1       6.100   2.411  11.642  0.00  0.00    +0.000 OA
ATOM     11  H   UNL     1       3.554   4.053  12.557  0.00  0.00    +0.000 HD
BRANCH   8  12
ATOM     12  C   UNL     1       3.542   3.093  10.666  0.00  0.00    +0.000 C 
BRANCH  12  14
ATOM     13  C   UNL     1       2.228   4.749   9.268  0.00  0.00    +0.000 C 
ATOM     14  C   UNL     1       3.578   4.087   9.509  0.00  0.00    +0.000 C 
ENDBRANCH  12  14
ENDBRANCH   8  12
ENDBRANCH   1   9
BRANCH   6  15
ATOM     15  N   UNL     1       4.988   3.649  17.130  0.00  0.00    +0.000 N 
ATOM     16  C   UNL     1       3.949   4.456  17.572  0.00  0.00    +0.000 C 
ATOM     17  O   UNL     1       3.649   5.512  17.024  0.00  0.00    +0.000 OA
ATOM     18  H   UNL     1       5.414   3.064  17.840  0.00  0.00    +0.000 HD
BRANCH  16  19
ATOM     19  C   UNL     1       3.290   3.998  18.862  0.00  0.00    +0.000 C 
ATOM     20  C   UNL     1       3.042   2.690  19.100  0.00  0.00    +0.000 C 
ATOM     21  C   UNL     1       3.432   1.539  18.208  0.00  0.00    +0.000 C 
ATOM     22  O   UNL     1       2.484   2.198  20.258  0.00  0.00    +0.000 OA
ATOM     23  C   UNL     1       1.605   2.967  21.063  0.00  0.00    +0.000 C 
ATOM     24  C   UNL     1       1.644   4.484  20.988  0.00  0.00    +0.000 C 
ATOM     25  S   UNL     1       3.004   5.217  20.071  0.00  0.00    +0.000 S 
ENDBRANCH  16  19
ENDBRANCH   6  15
TORSDOF 5
ENDMDL
MODEL 4
REMARK VINA RESULT:      -7.0      1.500      1.969
REMARK  Name = 
REMARK  8 active torsions:
REMARK  status: ('A' for Active; 'I' for Inactive)
REMARK    1  A    between atoms: C_1  and  C_2
REMARK    2  A    between atoms: C_2  and  C_3
REMARK    3  A    between atoms: C_3  and  N_4
REMARK    4  A    between atoms: C_5  and  C_7
REMARK    5  A    between atoms: C_10  and  C_11
REMARK    6  A    between atoms: C_12  and  N_13
REMARK    7  A    between atoms: C_14  and  C_16
REMARK    8  A    between atoms: C_17  and  C_18
REMARK                            x       y       z     vdW  Elec       q    Type
REMARK                         _______ _______ _______ _____ _____    ______ ____
ROOT
ATOM      1  C   UNL     1       6.515   4.261  14.182  0.00  0.00    +0.000 A 
ATOM      2  C   UNL     1       7.566   5.087  14.594  0.00  0.00    +0.000 A 
ATOM      3  C   UNL     1       7.667   5.470  15.935  0.00  0.00    +0.000 A 
ATOM      4  C   UNL     1       6.723   5.042  16.882  0.00  0.00    +0.000 A 
ATOM      5  C   UNL     1       6.837   5.508  18.308  0.00  0.00    +0.000 C 
ATOM      6  C   UNL     1       5.638   4.264  16.447  0.00  0.00    +0.000 A 
ATOM      7  C   UNL     1       5.551   3.858  15.107  0.00  0.00    +0.000 A 
ENDROOT
BRANCH   1   9
ATOM      8  N   UNL     1       5.612   2.640  12.613  0.00  0.00    +0.000 N 
ATOM      9  C   UNL     1       6.423   3.742  12.791  0.00  0.00    +0.000 C 
ATOM     10  O   UNL     1       7.051   4.286  11.889  0.00  0.00    +0.000 OA
ATOM     11  H   UNL     1       5.368   2.094  13.430  0.00  0.00    +0.000 HD
BRANCH   8  12
ATOM     12  C   UNL     1       5.486   2.010  11.314  0.00  0.00    +0.000 C 
BRANCH  12  14
ATOM     13  C   UNL     1       6.110  -0.446  11.338  0.00  0.00    +0.000 C 
ATOM     14  C   UNL     1       6.581   0.976  11.071  0.00  0.00    +0.000 C 
ENDBRANCH  12  14
ENDBRANCH   8  12
ENDBRANCH   1   9
BRANCH   6  15
ATOM     15  N   UNL     1       4.629   3.884  17.352  0.00  0.00    +0.000 N 
ATOM     16  C   UNL     1       3.561   4.717  17.654  0.00  0.00    +0.000 C 
ATOM     17  O   UNL     1       3.471   5.862  17.222  0.00  0.00    +0.000 OA
ATOM     18  H   UNL     1       4.830   3.169  18.044  0.00  0.00    +0.000 HD
BRANCH  16  19
ATOM     19  C   UNL     1       2.575   4.151  18.660  0.00  0.00    +0.000 C 
ATOM     20  C   UNL     1       2.104   4.901  19.683  0.00  0.00    +0.000 C 
ATOM     21  C   UNL     1       2.406   6.359  19.922  0.00  0.00    +0.000 C 
ATOM     22  O   UNL     1       1.182   4.471  20.610  0.00  0.00    +0.000 OA
ATOM     23  C   UNL     1       1.047   3.104  20.967  0.00  0.00    +0.000 C 
ATOM     24  C   UNL     1       1.518   2.023  20.008  0.00  0.00    +0.000 C 
ATOM     25  S   UNL     1       1.973   2.547  18.352  0.00  0.00    +0.000 S 
ENDBRANCH  16  19
ENDBRANCH   6  15
TORSDOF 5
ENDMDL
MODEL 5
REMARK VINA RESULT:      -6.9      4.078      8.144
REMARK  Name = 
REMARK  8 active torsions:
REMARK  status: ('A' for Active; 'I' for Inactive)
REMARK    1  A    between atoms: C_1  and  C_2
REMARK    2  A    between atoms: C_2  and  C_3
REMARK    3  A    between atoms: C_3  and  N_4
REMARK    4  A    between atoms: C_5  and  C_7
REMARK    5  A    between atoms: C_10  and  C_11
REMARK    6  A    between atoms: C_12  and  N_13
REMARK    7  A    between atoms: C_14  and  C_16
REMARK    8  A    between atoms: C_17  and  C_18
REMARK                            x       y       z     vdW  Elec       q    Type
REMARK                         _______ _______ _______ _____ _____    ______ ____
ROOT
ATOM      1  C   UNL     1       1.660   6.997  20.388  0.00  0.00    +0.000 A 
ATOM      2  C   UNL     1       1.082   5.896  21.027  0.00  0.00    +0.000 A 
ATOM      3  C   UNL     1       1.445   4.600  20.647  0.00  0.00    +0.000 A 
ATOM      4  C   UNL     1       2.382   4.382  19.625  0.00  0.00    +0.000 A 
ATOM      5  C   UNL     1       2.718   2.975  19.212  0.00  0.00    +0.000 C 
ATOM      6  C   UNL     1       2.910   5.494  18.948  0.00  0.00    +0.000 A 
ATOM      7  C   UNL     1       2.566   6.793  19.347  0.00  0.00    +0.000 A 
ENDROOT
BRANCH   1   9
ATOM      8  N   UNL     1       1.054   9.283  19.824  0.00  0.00    +0.000 N 
ATOM      9  C   UNL     1       1.385   8.393  20.826  0.00  0.00    +0.000 C 
ATOM     10  O   UNL     1       1.467   8.693  22.011  0.00  0.00    +0.000 OA
ATOM     11  H   UNL     1       1.286   9.032  18.871  0.00  0.00    +0.000 HD
BRANCH   8  12
ATOM     12  C   UNL     1       0.820  10.682  20.118  0.00  0.00    +0.000 C 
BRANCH  12  14
ATOM     13  C   UNL     1      -0.938  10.341  18.325  0.00  0.00    +0.000 C 
ATOM     14  C   UNL     1      -0.486  11.184  19.510  0.00  0.00    +0.000 C 
ENDBRANCH  12  14
ENDBRANCH   8  12
ENDBRANCH   1   9
BRANCH   6  15
ATOM     15  N   UNL     1       3.790   5.312  17.865  0.00  0.00    +0.000 N 
ATOM     16  C   UNL     1       5.159   5.173  18.046  0.00  0.00    +0.000 C 
ATOM     17  O   UNL     1       5.698   5.285  19.142  0.00  0.00    +0.000 OA
ATOM     18  H   UNL     1       3.504   5.613  16.940  0.00  0.00    +0.000 HD
BRANCH  16  19
ATOM     19  C   UNL     1       5.958   4.997  16.766  0.00  0.00    +0.000 C 
ATOM     20  C   UNL     1       6.928   5.873  16.416  0.00  0.00    +0.000 C 
ATOM     21  C   UNL     1       7.397   7.049  17.236  0.00  0.00    +0.000 C 
ATOM     22  O   UNL     1       7.716   5.760  15.294  0.00  0.00    +0.000 OA
ATOM     23  C   UNL     1       7.273   5.100  14.118  0.00  0.00    +0.000 C 
ATOM     24  C   UNL     1       6.163   4.065  14.206  0.00  0.00    +0.000 C 
ATOM     25  S   UNL     1       5.664   3.545  15.851  0.00  0.00    +0.000 S 
ENDBRANCH  16  19
ENDBRANCH   6  15
TORSDOF 5
ENDMDL
MODEL 6
REMARK VINA RESULT:      -6.9      4.879      6.087
REMARK  Name = 
REMARK  8 active torsions:
REMARK  status: ('A' for Active; 'I' for Inactive)
REMARK    1  A    between atoms: C_1  and  C_2
REMARK    2  A    between atoms: C_2  and  C_3
REMARK    3  A    between atoms: C_3  and  N_4
REMARK    4  A    between atoms: C_5  and  C_7
REMARK    5  A    between atoms: C_10  and  C_11
REMARK    6  A    between atoms: C_12  and  N_13
REMARK    7  A    between atoms: C_14  and  C_16
REMARK    8  A    between atoms: C_17  and  C_18
REMARK                            x       y       z     vdW  Elec       q    Type
REMARK                         _______ _______ _______ _____ _____    ______ ____
ROOT
ATOM      1  C   UNL     1       4.243   5.576  17.178  0.00  0.00    +0.000 A 
ATOM      2  C   UNL     1       3.883   4.342  17.729  0.00  0.00    +0.000 A 
ATOM      3  C   UNL     1       2.977   4.292  18.794  0.00  0.00    +0.000 A 
ATOM      4  C   UNL     1       2.422   5.466  19.327  0.00  0.00    +0.000 A 
ATOM      5  C   UNL     1       1.485   5.379  20.500  0.00  0.00    +0.000 C 
ATOM      6  C   UNL     1       2.838   6.703  18.807  0.00  0.00    +0.000 A 
ATOM      7  C   UNL     1       3.726   6.752  17.723  0.00  0.00    +0.000 A 
ENDROOT
BRANCH   1   9
ATOM      8  N   UNL     1       5.735   4.505  15.586  0.00  0.00    +0.000 N 
ATOM      9  C   UNL     1       5.120   5.676  15.980  0.00  0.00    +0.000 C 
ATOM     10  O   UNL     1       5.266   6.752  15.413  0.00  0.00    +0.000 OA
ATOM     11  H   UNL     1       5.791   3.749  16.258  0.00  0.00    +0.000 HD
BRANCH   8  12
ATOM     12  C   UNL     1       6.656   4.487  14.468  0.00  0.00    +0.000 C 
BRANCH  12  14
ATOM     13  C   UNL     1       6.951   3.889  12.023  0.00  0.00    +0.000 C 
ATOM     14  C   UNL     1       6.079   3.750  13.263  0.00  0.00    +0.000 C 
ENDBRANCH  12  14
ENDBRANCH   8  12
ENDBRANCH   1   9
BRANCH   6  15
ATOM     15  N   UNL     1       2.365   7.903  19.370  0.00  0.00    +0.000 N 
ATOM     16  C   UNL     1       1.490   8.739  18.691  0.00  0.00    +0.000 C 
ATOM     17  O   UNL     1       1.141   8.533  17.532  0.00  0.00    +0.000 OA
ATOM     18  H   UNL     1       2.898   8.346  20.111  0.00  0.00    +0.000 HD
BRANCH  16  19
ATOM     19  C   UNL     1       1.094   9.997  19.444  0.00  0.00    +0.000 C 
ATOM     20  C   UNL     1       0.444   9.933  20.629  0.00  0.00    +0.000 C 
ATOM     21  C   UNL     1       0.104   8.673  21.384  0.00  0.00    +0.000 C 
ATOM     22  O   UNL     1       0.087  11.025  21.385  0.00  0.00    +0.000 OA
ATOM     23  C   UNL     1      -0.174  12.295  20.808  0.00  0.00    +0.000 C 
ATOM     24  C   UNL     1       0.416  12.643  19.451  0.00  0.00    +0.000 C 
ATOM     25  S   UNL     1       1.640  11.512  18.782  0.00  0.00    +0.000 S 
ENDBRANCH  16  19
ENDBRANCH   6  15
TORSDOF 5
ENDMDL
MODEL 7
REMARK VINA RESULT:      -6.8      1.529      1.721
REMARK  Name = 
REMARK  8 active torsions:
REMARK  status: ('A' for Active; 'I' for Inactive)
REMARK    1  A    between atoms: C_1  and  C_2
REMARK    2  A    between atoms: C_2  and  C_3
REMARK    3  A    between atoms: C_3  and  N_4
REMARK    4  A    between atoms: C_5  and  C_7
REMARK    5  A    between atoms: C_10  and  C_11
REMARK    6  A    between atoms: C_12  and  N_13
REMARK    7  A    between atoms: C_14  and  C_16
REMARK    8  A    between atoms: C_17  and  C_18
REMARK                            x       y       z     vdW  Elec       q    Type
REMARK                         _______ _______ _______ _____ _____    ______ ____
ROOT
ATOM      1  C   UNL     1       5.681   3.916  13.255  0.00  0.00    +0.000 A 
ATOM      2  C   UNL     1       6.996   4.388  13.301  0.00  0.00    +0.000 A 
ATOM      3  C   UNL     1       7.493   4.953  14.480  0.00  0.00    +0.000 A 
ATOM      4  C   UNL     1       6.688   5.061  15.625  0.00  0.00    +0.000 A 
ATOM      5  C   UNL     1       7.240   5.714  16.863  0.00  0.00    +0.000 C 
ATOM      6  C   UNL     1       5.350   4.641  15.549  0.00  0.00    +0.000 A 
ATOM      7  C   UNL     1       4.860   4.051  14.375  0.00  0.00    +0.000 A 
ENDROOT
BRANCH   1   9
ATOM      8  N   UNL     1       3.951   3.706  11.560  0.00  0.00    +0.000 N 
ATOM      9  C   UNL     1       5.140   3.214  12.060  0.00  0.00    +0.000 C 
ATOM     10  O   UNL     1       5.740   2.256  11.585  0.00  0.00    +0.000 OA
ATOM     11  H   UNL     1       3.390   4.294  12.164  0.00  0.00    +0.000 HD
BRANCH   8  12
ATOM     12  C   UNL     1       3.297   3.071  10.434  0.00  0.00    +0.000 C 
BRANCH  12  14
ATOM     13  C   UNL     1       2.100   4.910   9.165  0.00  0.00    +0.000 C 
ATOM     14  C   UNL     1       3.292   3.964   9.196  0.00  0.00    +0.000 C 
ENDBRANCH  12  14
ENDBRANCH   8  12
ENDBRANCH   1   9
BRANCH   6  15
ATOM     15  N   UNL     1       4.491   4.808  16.651  0.00  0.00    +0.000 N 
ATOM     16  C   UNL     1       4.197   3.766  17.518  0.00  0.00    +0.000 C 
ATOM     17  O   UNL     1       4.593   2.619  17.335  0.00  0.00    +0.000 OA
ATOM     18  H   UNL     1       3.817   5.567  16.642  0.00  0.00    +0.000 HD
BRANCH  16  19
ATOM     19  C   UNL     1       3.242   4.122  18.645  0.00  0.00    +0.000 C 
ATOM     20  C   UNL     1       2.156   3.361  18.914  0.00  0.00    +0.000 C 
ATOM     21  C   UNL     1       1.790   2.068  18.230  0.00  0.00    +0.000 C 
ATOM     22  O   UNL     1       1.269   3.599  19.939  0.00  0.00    +0.000 OA
ATOM     23  C   UNL     1       1.034   4.901  20.452  0.00  0.00    +0.000 C 
ATOM     24  C   UNL     1       2.085   5.984  20.275  0.00  0.00    +0.000 C 
ATOM     25  S   UNL     1       3.690   5.466  19.656  0.00  0.00    +0.000 S 
ENDBRANCH  16  19
ENDBRANCH   6  15
TORSDOF 5
ENDMDL
MODEL 8
REMARK VINA RESULT:      -6.8      3.180      3.657
REMARK  Name = 
REMARK  8 active torsions:
REMARK  status: ('A' for Active; 'I' for Inactive)
REMARK    1  A    between atoms: C_1  and  C_2
REMARK    2  A    between atoms: C_2  and  C_3
REMARK    3  A    between atoms: C_3  and  N_4
REMARK    4  A    between atoms: C_5  and  C_7
REMARK    5  A    between atoms: C_10  and  C_11
REMARK    6  A    between atoms: C_12  and  N_13
REMARK    7  A    between atoms: C_14  and  C_16
REMARK    8  A    between atoms: C_17  and  C_18
REMARK                            x       y       z     vdW  Elec       q    Type
REMARK                         _______ _______ _______ _____ _____    ______ ____
ROOT
ATOM      1  C   UNL     1       6.565   4.949  15.281  0.00  0.00    +0.000 A 
ATOM      2  C   UNL     1       7.446   4.264  16.123  0.00  0.00    +0.000 A 
ATOM      3  C   UNL     1       7.348   4.422  17.510  0.00  0.00    +0.000 A 
ATOM      4  C   UNL     1       6.379   5.265  18.076  0.00  0.00    +0.000 A 
ATOM      5  C   UNL     1       6.330   5.445  19.568  0.00  0.00    +0.000 C 
ATOM      6  C   UNL     1       5.540   5.995  17.218  0.00  0.00    +0.000 A 
ATOM      7  C   UNL     1       5.620   5.818  15.830  0.00  0.00    +0.000 A 
ENDROOT
BRANCH   1   9
ATOM      8  N   UNL     1       5.612   3.853  13.332  0.00  0.00    +0.000 N 
ATOM      9  C   UNL     1       6.560   4.736  13.809  0.00  0.00    +0.000 C 
ATOM     10  O   UNL     1       7.370   5.322  13.100  0.00  0.00    +0.000 OA
ATOM     11  H   UNL     1       5.188   3.212  13.991  0.00  0.00    +0.000 HD
BRANCH   8  12
ATOM     12  C   UNL     1       5.545   3.520  11.924  0.00  0.00    +0.000 C 
BRANCH  12  14
ATOM     13  C   UNL     1       3.539   3.816  10.403  0.00  0.00    +0.000 C 
ATOM     14  C   UNL     1       4.167   2.999  11.524  0.00  0.00    +0.000 C 
ENDBRANCH  12  14
ENDBRANCH   8  12
ENDBRANCH   1   9
BRANCH   6  15
ATOM     15  N   UNL     1       4.611   6.911  17.747  0.00  0.00    +0.000 N 
ATOM     16  C   UNL     1       3.304   6.546  18.039  0.00  0.00    +0.000 C 
ATOM     17  O   UNL     1       2.852   5.436  17.779  0.00  0.00    +0.000 OA
ATOM     18  H   UNL     1       4.762   7.905  17.608  0.00  0.00    +0.000 HD
BRANCH  16  19
ATOM     19  C   UNL     1       2.437   7.664  18.591  0.00  0.00    +0.000 C 
ATOM     20  C   UNL     1       1.856   7.569  19.809  0.00  0.00    +0.000 C 
ATOM     21  C   UNL     1       2.034   6.436  20.788  0.00  0.00    +0.000 C 
ATOM     22  O   UNL     1       1.089   8.553  20.390  0.00  0.00    +0.000 OA
ATOM     23  C   UNL     1       0.354   9.494  19.622  0.00  0.00    +0.000 C 
ATOM     24  C   UNL     1       0.770   9.791  18.191  0.00  0.00    +0.000 C 
ATOM     25  S   UNL     1       2.347   9.125  17.648  0.00  0.00    +0.000 S 
ENDBRANCH  16  19
ENDBRANCH   6  15
TORSDOF 5
ENDMDL
MODEL 9
REMARK VINA RESULT:      -6.8      1.717      2.074
REMARK  Name = 
REMARK  8 active torsions:
REMARK  status: ('A' for Active; 'I' for Inactive)
REMARK    1  A    between atoms: C_1  and  C_2
REMARK    2  A    between atoms: C_2  and  C_3
REMARK    3  A    between atoms: C_3  and  N_4
REMARK    4  A    between atoms: C_5  and  C_7
REMARK    5  A    between atoms: C_10  and  C_11
REMARK    6  A    between atoms: C_12  and  N_13
REMARK    7  A    between atoms: C_14  and  C_16
REMARK    8  A    between atoms: C_17  and  C_18
REMARK                            x       y       z     vdW  Elec       q    Type
REMARK                         _______ _______ _______ _____ _____    ______ ____
ROOT
ATOM      1  C   UNL     1       6.298   3.972  13.804  0.00  0.00    +0.000 A 
ATOM      2  C   UNL     1       7.328   4.911  13.923  0.00  0.00    +0.000 A 
ATOM      3  C   UNL     1       7.644   5.442  15.177  0.00  0.00    +0.000 A 
ATOM      4  C   UNL     1       6.939   5.052  16.327  0.00  0.00    +0.000 A 
ATOM      5  C   UNL     1       7.276   5.676  17.653  0.00  0.00    +0.000 C 
ATOM      6  C   UNL     1       5.867   4.155  16.186  0.00  0.00    +0.000 A 
ATOM      7  C   UNL     1       5.567   3.603  14.934  0.00  0.00    +0.000 A 
ENDROOT
BRANCH   1   9
ATOM      8  N   UNL     1       6.943   2.409  12.058  0.00  0.00    +0.000 N 
ATOM      9  C   UNL     1       5.993   3.301  12.511  0.00  0.00    +0.000 C 
ATOM     10  O   UNL     1       4.953   3.559  11.915  0.00  0.00    +0.000 OA
ATOM     11  H   UNL     1       7.875   2.469  12.450  0.00  0.00    +0.000 HD
BRANCH   8  12
ATOM     12  C   UNL     1       6.785   1.735  10.785  0.00  0.00    +0.000 C 
BRANCH  12  14
ATOM     13  C   UNL     1       6.274  -0.661  11.436  0.00  0.00    +0.000 C 
ATOM     14  C   UNL     1       5.730   0.634  10.847  0.00  0.00    +0.000 C 
ENDBRANCH  12  14
ENDBRANCH   8  12
ENDBRANCH   1   9
BRANCH   6  15
ATOM     15  N   UNL     1       5.086   3.804  17.304  0.00  0.00    +0.000 N 
ATOM     16  C   UNL     1       3.958   4.525  17.667  0.00  0.00    +0.000 C 
ATOM     17  O   UNL     1       3.617   5.557  17.097  0.00  0.00    +0.000 OA
ATOM     18  H   UNL     1       5.504   3.251  18.045  0.00  0.00    +0.000 HD
BRANCH  16  19
ATOM     19  C   UNL     1       3.244   4.012  18.906  0.00  0.00    +0.000 C 
ATOM     20  C   UNL     1       2.999   2.693  19.082  0.00  0.00    +0.000 C 
ATOM     21  C   UNL     1       3.443   1.581  18.166  0.00  0.00    +0.000 C 
ATOM     22  O   UNL     1       2.392   2.152  20.192  0.00  0.00    +0.000 OA
ATOM     23  C   UNL     1       1.468   2.881  20.983  0.00  0.00    +0.000 C 
ATOM     24  C   UNL     1       1.495   4.401  20.968  0.00  0.00    +0.000 C 
ATOM     25  S   UNL     1       2.888   5.181  20.146  0.00  0.00    +0.000 S 
ENDBRANCH  16  19
ENDBRANCH   6  15
TORSDOF 5
ENDMDL
