MODEL 1
REMARK VINA RESULT:      -7.1      0.000      0.000
REMARK  Name = 
REMARK  1 active torsions:
REMARK  status: ('A' for Active; 'I' for Inactive)
REMARK    1  A    between atoms: N_3  and  C_4
REMARK                            x       y       z     vdW  Elec       q    Type
REMARK                         _______ _______ _______ _____ _____    ______ ____
ROOT
ATOM      1  O   UNL     1       6.712   4.793  18.928  0.00  0.00    +0.000 OA
ATOM      2  C   UNL     1       6.069   4.495  17.935  0.00  0.00    +0.000 C 
ATOM      3  N   UNL     1       4.732   4.000  17.830  0.00  0.00    +0.000 N 
ATOM      4  C   UNL     1       4.301   3.921  16.423  0.00  0.00    +0.000 C 
ATOM      5  C   UNL     1       5.538   4.408  15.758  0.00  0.00    +0.000 A 
ATOM      6  N   UNL     1       5.880   4.717  14.552  0.00  0.00    +0.000 NA
ATOM      7  C   UNL     1       7.203   5.166  14.687  0.00  0.00    +0.000 A 
ATOM      8  O   UNL     1       7.985   5.384  13.778  0.00  0.00    +0.000 OA
ATOM      9  N   UNL     1       7.524   5.251  16.038  0.00  0.00    +0.000 N 
ATOM     10  N   UNL     1       6.515   4.594  16.650  0.00  0.00    +0.000 N 
ATOM     11  H   UNL     1       8.483   5.167  16.342  0.00  0.00    +0.000 HD
ENDROOT
BRANCH   3  12
ATOM     12  C   UNL     1       3.876   3.644  18.907  0.00  0.00    +0.000 A 
ATOM     13  C   UNL     1       4.213   2.632  19.816  0.00  0.00    +0.000 A 
ATOM     14  C   UNL     1       3.358   2.284  20.870  0.00  0.00    +0.000 A 
ATOM     15  C   UNL     1       2.144   2.940  21.023  0.00  0.00    +0.000 A 
ATOM     16 CL   UNL     1       1.091   2.513  22.313  0.00  0.00    +0.000 Cl
ATOM     17  C   UNL     1       1.780   3.941  20.131  0.00  0.00    +0.000 A 
ATOM     18  C   UNL     1       2.642   4.292  19.082  0.00  0.00    +0.000 A 
ENDBRANCH   3  12
TORSDOF 1
ENDMDL
MODEL 2
REMARK VINA RESULT:      -7.0      3.849      6.524
REMARK  Name = 
REMARK  1 active torsions:
REMARK  status: ('A' for Active; 'I' for Inactive)
REMARK    1  A    between atoms: N_3  and  C_4
REMARK                            x       y       z     vdW  Elec       q    Type
REMARK                         _______ _______ _______ _____ _____    ______ ____
ROOT
ATOM      1  O   UNL     1       3.704   1.624  17.848  0.00  0.00    +0.000 OA
ATOM      2  C   UNL     1       3.726   2.640  18.522  0.00  0.00    +0.000 C 
ATOM      3  N   UNL     1       4.340   3.901  18.249  0.00  0.00    +0.000 N 
ATOM      4  C   UNL     1       3.983   4.902  19.271  0.00  0.00    +0.000 C 
ATOM      5  C   UNL     1       3.121   4.064  20.145  0.00  0.00    +0.000 A 
ATOM      6  N   UNL     1       2.363   4.272  21.170  0.00  0.00    +0.000 NA
ATOM      7  C   UNL     1       1.804   3.011  21.430  0.00  0.00    +0.000 A 
ATOM      8  O   UNL     1       1.171   2.696  22.423  0.00  0.00    +0.000 OA
ATOM      9  N   UNL     1       2.151   2.135  20.408  0.00  0.00    +0.000 N 
ATOM     10  N   UNL     1       3.120   2.793  19.734  0.00  0.00    +0.000 N 
ATOM     11  H   UNL     1       2.196   1.141  20.579  0.00  0.00    +0.000 HD
ENDROOT
BRANCH   3  12
ATOM     12  C   UNL     1       5.171   4.214  17.139  0.00  0.00    +0.000 A 
ATOM     13  C   UNL     1       6.527   4.531  17.296  0.00  0.00    +0.000 A 
ATOM     14  C   UNL     1       7.334   4.844  16.195  0.00  0.00    +0.000 A 
ATOM     15  C   UNL     1       6.791   4.855  14.917  0.00  0.00    +0.000 A 
ATOM     16 CL   UNL     1       7.779   5.242  13.565  0.00  0.00    +0.000 Cl
ATOM     17  C   UNL     1       5.447   4.554  14.733  0.00  0.00    +0.000 A 
ATOM     18  C   UNL     1       4.644   4.233  15.837  0.00  0.00    +0.000 A 
ENDBRANCH   3  12
TORSDOF 1
ENDMDL
MODEL 3
REMARK VINA RESULT:      -7.0      0.050      1.166
REMARK  Name = 
REMARK  1 active torsions:
REMARK  status: ('A' for Active; 'I' for Inactive)
REMARK    1  A    between atoms: N_3  and  C_4
REMARK                            x       y       z     vdW  Elec       q    Type
REMARK                         _______ _______ _______ _____ _____    ______ ____
ROOT
ATOM      1  O   UNL     1       6.682   4.730  18.909  0.00  0.00    +0.000 OA
ATOM      2  C   UNL     1       6.040   4.458  17.907  0.00  0.00    +0.000 C 
ATOM      3  N   UNL     1       4.694   3.994  17.787  0.00  0.00    +0.000 N 
ATOM      4  C   UNL     1       4.271   3.942  16.376  0.00  0.00    +0.000 C 
ATOM      5  C   UNL     1       5.523   4.410  15.726  0.00  0.00    +0.000 A 
ATOM      6  N   UNL     1       5.880   4.727  14.527  0.00  0.00    +0.000 NA
ATOM      7  C   UNL     1       7.212   5.146  14.676  0.00  0.00    +0.000 A 
ATOM      8  O   UNL     1       8.004   5.359  13.775  0.00  0.00    +0.000 OA
ATOM      9  N   UNL     1       7.525   5.207  16.030  0.00  0.00    +0.000 N 
ATOM     10  N   UNL     1       6.497   4.564  16.627  0.00  0.00    +0.000 N 
ATOM     11  H   UNL     1       8.479   5.099  16.340  0.00  0.00    +0.000 HD
ENDROOT
BRANCH   3  12
ATOM     12  C   UNL     1       3.823   3.642  18.854  0.00  0.00    +0.000 A 
ATOM     13  C   UNL     1       2.582   4.269  19.033  0.00  0.00    +0.000 A 
ATOM     14  C   UNL     1       1.735   3.920  20.092  0.00  0.00    +0.000 A 
ATOM     15  C   UNL     1       2.123   2.940  20.997  0.00  0.00    +0.000 A 
ATOM     16 CL   UNL     1       1.087   2.512  22.299  0.00  0.00    +0.000 Cl
ATOM     17  C   UNL     1       3.352   2.309  20.849  0.00  0.00    +0.000 A 
ATOM     18  C   UNL     1       4.194   2.656  19.783  0.00  0.00    +0.000 A 
ENDBRANCH   3  12
TORSDOF 1
ENDMDL
MODEL 4
REMARK VINA RESULT:      -7.0      3.848      6.588
REMARK  Name = 
REMARK  1 active torsions:
REMARK  status: ('A' for Active; 'I' for Inactive)
REMARK    1  A    between atoms: N_3  and  C_4
REMARK                            x       y       z     vdW  Elec       q    Type
REMARK                         _______ _______ _______ _____ _____    ______ ____
ROOT
ATOM      1  O   UNL     1       3.691   1.643  17.841  0.00  0.00    +0.000 OA
ATOM      2  C   UNL     1       3.710   2.660  18.515  0.00  0.00    +0.000 C 
ATOM      3  N   UNL     1       4.314   3.925  18.237  0.00  0.00    +0.000 N 
ATOM      4  C   UNL     1       3.958   4.923  19.262  0.00  0.00    +0.000 C 
ATOM      5  C   UNL     1       3.108   4.079  20.142  0.00  0.00    +0.000 A 
ATOM      6  N   UNL     1       2.356   4.282  21.172  0.00  0.00    +0.000 NA
ATOM      7  C   UNL     1       1.807   3.017  21.436  0.00  0.00    +0.000 A 
ATOM      8  O   UNL     1       1.183   2.698  22.433  0.00  0.00    +0.000 OA
ATOM      9  N   UNL     1       2.152   2.143  20.411  0.00  0.00    +0.000 N 
ATOM     10  N   UNL     1       3.111   2.808  19.731  0.00  0.00    +0.000 N 
ATOM     11  H   UNL     1       2.205   1.150  20.582  0.00  0.00    +0.000 HD
ENDROOT
BRANCH   3  12
ATOM     12  C   UNL     1       5.135   4.243  17.122  0.00  0.00    +0.000 A 
ATOM     13  C   UNL     1       4.634   4.246  15.812  0.00  0.00    +0.000 A 
ATOM     14  C   UNL     1       5.454   4.554  14.719  0.00  0.00    +0.000 A 
ATOM     15  C   UNL     1       6.795   4.854  14.921  0.00  0.00    +0.000 A 
ATOM     16 CL   UNL     1       7.804   5.229  13.580  0.00  0.00    +0.000 Cl
ATOM     17  C   UNL     1       7.321   4.849  16.207  0.00  0.00    +0.000 A 
ATOM     18  C   UNL     1       6.495   4.547  17.299  0.00  0.00    +0.000 A 
ENDBRANCH   3  12
TORSDOF 1
ENDMDL
MODEL 5
REMARK VINA RESULT:      -7.0      3.843      6.563
REMARK  Name = 
REMARK  1 active torsions:
REMARK  status: ('A' for Active; 'I' for Inactive)
REMARK    1  A    between atoms: N_3  and  C_4
REMARK                            x       y       z     vdW  Elec       q    Type
REMARK                         _______ _______ _______ _____ _____    ______ ____
ROOT
ATOM      1  O   UNL     1       2.239   5.119  17.987  0.00  0.00    +0.000 OA
ATOM      2  C   UNL     1       2.890   4.289  18.601  0.00  0.00    +0.000 C 
ATOM      3  N   UNL     1       4.222   3.825  18.370  0.00  0.00    +0.000 N 
ATOM      4  C   UNL     1       4.668   2.927  19.450  0.00  0.00    +0.000 C 
ATOM      5  C   UNL     1       3.445   2.929  20.295  0.00  0.00    +0.000 A 
ATOM      6  N   UNL     1       3.121   2.466  21.455  0.00  0.00    +0.000 NA
ATOM      7  C   UNL     1       1.801   2.911  21.634  0.00  0.00    +0.000 A 
ATOM      8  O   UNL     1       1.033   2.551  22.509  0.00  0.00    +0.000 OA
ATOM      9  N   UNL     1       1.466   3.780  20.601  0.00  0.00    +0.000 N 
ATOM     10  N   UNL     1       2.460   3.610  19.702  0.00  0.00    +0.000 N 
ATOM     11  H   UNL     1       0.503   3.895  20.322  0.00  0.00    +0.000 HD
ENDROOT
BRANCH   3  12
ATOM     12  C   UNL     1       5.061   4.172  17.277  0.00  0.00    +0.000 A 
ATOM     13  C   UNL     1       6.314   4.771  17.467  0.00  0.00    +0.000 A 
ATOM     14  C   UNL     1       7.129   5.116  16.382  0.00  0.00    +0.000 A 
ATOM     15  C   UNL     1       6.696   4.875  15.085  0.00  0.00    +0.000 A 
ATOM     16 CL   UNL     1       7.694   5.301  13.751  0.00  0.00    +0.000 Cl
ATOM     17  C   UNL     1       5.454   4.292  14.866  0.00  0.00    +0.000 A 
ATOM     18  C   UNL     1       4.644   3.941  15.955  0.00  0.00    +0.000 A 
ENDBRANCH   3  12
TORSDOF 1
ENDMDL
MODEL 6
REMARK VINA RESULT:      -6.9      4.042      5.744
REMARK  Name = 
REMARK  1 active torsions:
REMARK  status: ('A' for Active; 'I' for Inactive)
REMARK    1  A    between atoms: N_3  and  C_4
REMARK                            x       y       z     vdW  Elec       q    Type
REMARK                         _______ _______ _______ _____ _____    ______ ____
ROOT
ATOM      1  O   UNL     1       4.846   6.149  18.221  0.00  0.00    +0.000 OA
ATOM      2  C   UNL     1       4.094   5.592  19.005  0.00  0.00    +0.000 C 
ATOM      3  N   UNL     1       2.843   6.033  19.537  0.00  0.00    +0.000 N 
ATOM      4  C   UNL     1       2.198   4.974  20.333  0.00  0.00    +0.000 C 
ATOM      5  C   UNL     1       3.224   3.907  20.200  0.00  0.00    +0.000 A 
ATOM      6  N   UNL     1       3.311   2.661  20.530  0.00  0.00    +0.000 NA
ATOM      7  C   UNL     1       4.561   2.271  20.023  0.00  0.00    +0.000 A 
ATOM      8  O   UNL     1       5.139   1.226  20.264  0.00  0.00    +0.000 OA
ATOM      9  N   UNL     1       5.088   3.303  19.254  0.00  0.00    +0.000 N 
ATOM     10  N   UNL     1       4.300   4.360  19.551  0.00  0.00    +0.000 N 
ATOM     11  H   UNL     1       6.086   3.393  19.136  0.00  0.00    +0.000 HD
ENDROOT
BRANCH   3  12
ATOM     12  C   UNL     1       2.239   7.303  19.333  0.00  0.00    +0.000 A 
ATOM     13  C   UNL     1       2.268   7.945  18.087  0.00  0.00    +0.000 A 
ATOM     14  C   UNL     1       1.675   9.201  17.900  0.00  0.00    +0.000 A 
ATOM     15  C   UNL     1       1.053   9.839  18.964  0.00  0.00    +0.000 A 
ATOM     16 CL   UNL     1       0.328  11.382  18.738  0.00  0.00    +0.000 Cl
ATOM     17  C   UNL     1       1.018   9.231  20.213  0.00  0.00    +0.000 A 
ATOM     18  C   UNL     1       1.605   7.971  20.394  0.00  0.00    +0.000 A 
ENDBRANCH   3  12
TORSDOF 1
ENDMDL
MODEL 7
REMARK VINA RESULT:      -6.9      3.871      6.621
REMARK  Name = 
REMARK  1 active torsions:
REMARK  status: ('A' for Active; 'I' for Inactive)
REMARK    1  A    between atoms: N_3  and  C_4
REMARK                            x       y       z     vdW  Elec       q    Type
REMARK                         _______ _______ _______ _____ _____    ______ ____
ROOT
ATOM      1  O   UNL     1       2.056   4.804  17.851  0.00  0.00    +0.000 OA
ATOM      2  C   UNL     1       2.775   4.093  18.534  0.00  0.00    +0.000 C 
ATOM      3  N   UNL     1       4.156   3.766  18.366  0.00  0.00    +0.000 N 
ATOM      4  C   UNL     1       4.665   2.994  19.514  0.00  0.00    +0.000 C 
ATOM      5  C   UNL     1       3.423   2.913  20.327  0.00  0.00    +0.000 A 
ATOM      6  N   UNL     1       3.116   2.491  21.508  0.00  0.00    +0.000 NA
ATOM      7  C   UNL     1       1.751   2.796  21.625  0.00  0.00    +0.000 A 
ATOM      8  O   UNL     1       1.000   2.409  22.503  0.00  0.00    +0.000 OA
ATOM      9  N   UNL     1       1.354   3.556  20.529  0.00  0.00    +0.000 N 
ATOM     10  N   UNL     1       2.388   3.441  19.667  0.00  0.00    +0.000 N 
ATOM     11  H   UNL     1       0.393   3.544  20.220  0.00  0.00    +0.000 HD
ENDROOT
BRANCH   3  12
ATOM     12  C   UNL     1       4.986   4.135  17.273  0.00  0.00    +0.000 A 
ATOM     13  C   UNL     1       4.643   3.831  15.949  0.00  0.00    +0.000 A 
ATOM     14  C   UNL     1       5.472   4.194  14.879  0.00  0.00    +0.000 A 
ATOM     15  C   UNL     1       6.666   4.860  15.122  0.00  0.00    +0.000 A 
ATOM     16 CL   UNL     1       7.686   5.303  13.812  0.00  0.00    +0.000 Cl
ATOM     17  C   UNL     1       7.036   5.166  16.426  0.00  0.00    +0.000 A 
ATOM     18  C   UNL     1       6.200   4.808  17.493  0.00  0.00    +0.000 A 
ENDBRANCH   3  12
TORSDOF 1
ENDMDL
MODEL 8
REMARK VINA RESULT:      -6.9      4.038      5.736
REMARK  Name = 
REMARK  1 active torsions:
REMARK  status: ('A' for Active; 'I' for Inactive)
REMARK    1  A    between atoms: N_3  and  C_4
REMARK                            x       y       z     vdW  Elec       q    Type
REMARK                         _______ _______ _______ _____ _____    ______ ____
ROOT
ATOM      1  O   UNL     1       4.866   6.153  18.294  0.00  0.00    +0.000 OA
ATOM      2  C   UNL     1       4.105   5.588  19.063  0.00  0.00    +0.000 C 
ATOM      3  N   UNL     1       2.848   6.024  19.584  0.00  0.00    +0.000 N 
ATOM      4  C   UNL     1       2.193   4.957  20.361  0.00  0.00    +0.000 C 
ATOM      5  C   UNL     1       3.220   3.891  20.230  0.00  0.00    +0.000 A 
ATOM      6  N   UNL     1       3.303   2.642  20.547  0.00  0.00    +0.000 NA
ATOM      7  C   UNL     1       4.559   2.257  20.052  0.00  0.00    +0.000 A 
ATOM      8  O   UNL     1       5.135   1.209  20.289  0.00  0.00    +0.000 OA
ATOM      9  N   UNL     1       5.095   3.296  19.301  0.00  0.00    +0.000 N 
ATOM     10  N   UNL     1       4.304   4.350  19.598  0.00  0.00    +0.000 N 
ATOM     11  H   UNL     1       6.095   3.388  19.195  0.00  0.00    +0.000 HD
ENDROOT
BRANCH   3  12
ATOM     12  C   UNL     1       2.247   7.297  19.386  0.00  0.00    +0.000 A 
ATOM     13  C   UNL     1       1.610   7.984  20.428  0.00  0.00    +0.000 A 
ATOM     14  C   UNL     1       1.014   9.235  20.220  0.00  0.00    +0.000 A 
ATOM     15  C   UNL     1       1.039   9.814  18.958  0.00  0.00    +0.000 A 
ATOM     16 CL   UNL     1       0.306  11.347  18.699  0.00  0.00    +0.000 Cl
ATOM     17  C   UNL     1       1.656   9.150  17.904  0.00  0.00    +0.000 A 
ATOM     18  C   UNL     1       2.257   7.902  18.118  0.00  0.00    +0.000 A 
ENDBRANCH   3  12
TORSDOF 1
ENDMDL
MODEL 9
REMARK VINA RESULT:      -6.7      4.299      5.934
REMARK  Name = 
REMARK  1 active torsions:
REMARK  status: ('A' for Active; 'I' for Inactive)
REMARK    1  A    between atoms: N_3  and  C_4
REMARK                            x       y       z     vdW  Elec       q    Type
REMARK                         _______ _______ _______ _____ _____    ______ ____
ROOT
ATOM      1  O   UNL     1       1.148   4.842  20.701  0.00  0.00    +0.000 OA
ATOM      2  C   UNL     1       2.209   4.940  20.106  0.00  0.00    +0.000 C 
ATOM      3  N   UNL     1       2.795   6.080  19.472  0.00  0.00    +0.000 N 
ATOM      4  C   UNL     1       4.163   5.787  19.006  0.00  0.00    +0.000 C 
ATOM      5  C   UNL     1       4.269   4.367  19.433  0.00  0.00    +0.000 A 
ATOM      6  N   UNL     1       5.206   3.479  19.467  0.00  0.00    +0.000 NA
ATOM      7  C   UNL     1       4.589   2.368  20.063  0.00  0.00    +0.000 A 
ATOM      8  O   UNL     1       5.045   1.239  20.125  0.00  0.00    +0.000 OA
ATOM      9  N   UNL     1       3.323   2.730  20.510  0.00  0.00    +0.000 N 
ATOM     10  N   UNL     1       3.108   3.931  19.929  0.00  0.00    +0.000 N 
ATOM     11  H   UNL     1       2.594   2.037  20.598  0.00  0.00    +0.000 HD
ENDROOT
BRANCH   3  12
ATOM     12  C   UNL     1       2.196   7.358  19.311  0.00  0.00    +0.000 A 
ATOM     13  C   UNL     1       2.180   8.016  18.074  0.00  0.00    +0.000 A 
ATOM     14  C   UNL     1       1.593   9.280  17.927  0.00  0.00    +0.000 A 
ATOM     15  C   UNL     1       1.020   9.910  19.025  0.00  0.00    +0.000 A 
ATOM     16 CL   UNL     1       0.302  11.461  18.849  0.00  0.00    +0.000 Cl
ATOM     17  C   UNL     1       1.030   9.284  20.265  0.00  0.00    +0.000 A 
ATOM     18  C   UNL     1       1.612   8.016  20.406  0.00  0.00    +0.000 A 
ENDBRANCH   3  12
TORSDOF 1
ENDMDL
