MODEL 1
REMARK VINA RESULT:     -10.2      0.000      0.000
REMARK  Name = 
REMARK  5 active torsions:
REMARK  status: ('A' for Active; 'I' for Inactive)
REMARK    1  A    between atoms: C_2  and  C_12
REMARK    2  A    between atoms: N_3  and  C_4
REMARK    3  A    between atoms: C_4  and  C_5
REMARK    4  A    between atoms: C_5  and  C_6
REMARK    5  A    between atoms: C_14  and  C_15
REMARK                            x       y       z     vdW  Elec       q    Type
REMARK                         _______ _______ _______ _____ _____    ______ ____
ROOT
ATOM      1  C   UNL     1       4.137   5.226  19.331  0.00  0.00    +0.000 A 
ATOM      2  C   UNL     1       3.621   6.497  19.053  0.00  0.00    +0.000 A 
ATOM      3  C   UNL     1       2.376   6.842  19.554  0.00  0.00    +0.000 A 
ATOM      4  N   UNL     1       1.682   5.980  20.327  0.00  0.00    +0.000 NA
ATOM      5  C   UNL     1       2.145   4.741  20.546  0.00  0.00    +0.000 A 
ATOM      6  C   UNL     1       1.374   3.907  21.342  0.00  0.00    +0.000 A 
ATOM      7  C   UNL     1       1.759   2.597  21.626  0.00  0.00    +0.000 A 
ATOM      8  C   UNL     1       2.930   2.095  21.077  0.00  0.00    +0.000 A 
ATOM      9  C   UNL     1       3.732   2.924  20.291  0.00  0.00    +0.000 A 
ATOM     10  C   UNL     1       3.368   4.272  20.035  0.00  0.00    +0.000 A 
ENDROOT
BRANCH   3  11
ATOM     11  C   UNL     1       1.776   8.186  19.360  0.00  0.00    +0.000 A 
ATOM     12  C   UNL     1       1.915   8.806  18.098  0.00  0.00    +0.000 A 
ATOM     13  C   UNL     1       1.404  10.074  17.843  0.00  0.00    +0.000 A 
ATOM     14  C   UNL     1       0.751  10.767  18.854  0.00  0.00    +0.000 A 
ATOM     15  C   UNL     1       0.589  10.202  20.124  0.00  0.00    +0.000 A 
ATOM     16  C   UNL     1      -0.067  10.941  21.124  0.00  0.00    +0.000 A 
ATOM     17  C   UNL     1      -0.259  10.419  22.401  0.00  0.00    +0.000 A 
ATOM     18  C   UNL     1       0.199   9.144  22.691  0.00  0.00    +0.000 A 
ATOM     19  C   UNL     1       0.849   8.396  21.705  0.00  0.00    +0.000 A 
ATOM     20  C   UNL     1       1.086   8.898  20.399  0.00  0.00    +0.000 A 
ENDBRANCH   3  11
BRANCH   1  22
ATOM     21  O   UNL     1       6.484   5.277  19.694  0.00  0.00    +0.000 OA
ATOM     22  C   UNL     1       5.558   4.983  18.956  0.00  0.00    +0.000 C 
ATOM     23  N   UNL     1       5.716   4.435  17.693  0.00  0.00    +0.000 N 
ATOM     24  H   UNL     1       4.923   4.471  17.066  0.00  0.00    +0.000 HD
BRANCH  23  25
ATOM     25  C   UNL     1       7.031   4.265  17.091  0.00  0.00    +0.000 C 
BRANCH  25  26
ATOM     26  C   UNL     1       7.339   5.388  16.102  0.00  0.00    +0.000 C 
BRANCH  26  27
ATOM     27  C   UNL     1       7.165   4.940  14.675  0.00  0.00    +0.000 A 
ATOM     28  C   UNL     1       6.255   3.937  14.352  0.00  0.00    +0.000 A 
ATOM     29  C   UNL     1       6.132   3.547  13.020  0.00  0.00    +0.000 A 
ATOM     30  C   UNL     1       6.916   4.167  12.055  0.00  0.00    +0.000 A 
ATOM     31  C   UNL     1       7.801   5.150  12.464  0.00  0.00    +0.000 A 
ATOM     32  N   UNL     1       7.939   5.548  13.746  0.00  0.00    +0.000 NA
ENDBRANCH  26  27
ENDBRANCH  25  26
ENDBRANCH  23  25
ENDBRANCH   1  22
TORSDOF 5
ENDMDL
MODEL 2
REMARK VINA RESULT:      -9.9      1.280      1.639
REMARK  Name = 
REMARK  5 active torsions:
REMARK  status: ('A' for Active; 'I' for Inactive)
REMARK    1  A    between atoms: C_2  and  C_12
REMARK    2  A    between atoms: N_3  and  C_4
REMARK    3  A    between atoms: C_4  and  C_5
REMARK    4  A    between atoms: C_5  and  C_6
REMARK    5  A    between atoms: C_14  and  C_15
REMARK                            x       y       z     vdW  Elec       q    Type
REMARK                         _______ _______ _______ _____ _____    ______ ____
ROOT
ATOM      1  C   UNL     1       3.540   6.766  18.046  0.00  0.00    +0.000 A 
ATOM      2  C   UNL     1       2.892   8.000  18.183  0.00  0.00    +0.000 A 
ATOM      3  C   UNL     1       1.959   8.160  19.194  0.00  0.00    +0.000 A 
ATOM      4  N   UNL     1       1.698   7.155  20.057  0.00  0.00    +0.000 NA
ATOM      5  C   UNL     1       2.271   5.954  19.892  0.00  0.00    +0.000 A 
ATOM      6  C   UNL     1       1.949   4.965  20.810  0.00  0.00    +0.000 A 
ATOM      7  C   UNL     1       2.481   3.680  20.726  0.00  0.00    +0.000 A 
ATOM      8  C   UNL     1       3.336   3.361  19.681  0.00  0.00    +0.000 A 
ATOM      9  C   UNL     1       3.691   4.347  18.758  0.00  0.00    +0.000 A 
ATOM     10  C   UNL     1       3.187   5.669  18.864  0.00  0.00    +0.000 A 
ENDROOT
BRANCH   3  11
ATOM     11  C   UNL     1       1.268   9.448  19.452  0.00  0.00    +0.000 A 
ATOM     12  C   UNL     1       1.329  10.453  18.460  0.00  0.00    +0.000 A 
ATOM     13  C   UNL     1       0.730  11.695  18.635  0.00  0.00    +0.000 A 
ATOM     14  C   UNL     1       0.063  11.975  19.820  0.00  0.00    +0.000 A 
ATOM     15  C   UNL     1      -0.025  11.018  20.839  0.00  0.00    +0.000 A 
ATOM     16  C   UNL     1      -0.698  11.344  22.029  0.00  0.00    +0.000 A 
ATOM     17  C   UNL     1      -0.818  10.424  23.068  0.00  0.00    +0.000 A 
ATOM     18  C   UNL     1      -0.271   9.159  22.924  0.00  0.00    +0.000 A 
ATOM     19  C   UNL     1       0.398   8.820  21.744  0.00  0.00    +0.000 A 
ATOM     20  C   UNL     1       0.564   9.734  20.671  0.00  0.00    +0.000 A 
ENDBRANCH   3  11
BRANCH   1  22
ATOM     21  O   UNL     1       4.531   6.865  15.889  0.00  0.00    +0.000 OA
ATOM     22  C   UNL     1       4.682   6.711  17.090  0.00  0.00    +0.000 C 
ATOM     23  N   UNL     1       5.900   6.435  17.690  0.00  0.00    +0.000 N 
ATOM     24  H   UNL     1       5.883   6.070  18.634  0.00  0.00    +0.000 HD
BRANCH  23  25
ATOM     25  C   UNL     1       7.103   6.194  16.907  0.00  0.00    +0.000 C 
BRANCH  25  26
ATOM     26  C   UNL     1       7.186   4.739  16.449  0.00  0.00    +0.000 C 
BRANCH  26  27
ATOM     27  C   UNL     1       7.093   4.618  14.952  0.00  0.00    +0.000 A 
ATOM     28  C   UNL     1       6.178   3.749  14.364  0.00  0.00    +0.000 A 
ATOM     29  C   UNL     1       6.133   3.662  12.975  0.00  0.00    +0.000 A 
ATOM     30  C   UNL     1       6.996   4.442  12.215  0.00  0.00    +0.000 A 
ATOM     31  C   UNL     1       7.880   5.275  12.881  0.00  0.00    +0.000 A 
ATOM     32  N   UNL     1       7.945   5.379  14.225  0.00  0.00    +0.000 NA
ENDBRANCH  26  27
ENDBRANCH  25  26
ENDBRANCH  23  25
ENDBRANCH   1  22
TORSDOF 5
ENDMDL
MODEL 3
REMARK VINA RESULT:      -9.8      1.367      2.345
REMARK  Name = 
REMARK  5 active torsions:
REMARK  status: ('A' for Active; 'I' for Inactive)
REMARK    1  A    between atoms: C_2  and  C_12
REMARK    2  A    between atoms: N_3  and  C_4
REMARK    3  A    between atoms: C_4  and  C_5
REMARK    4  A    between atoms: C_5  and  C_6
REMARK    5  A    between atoms: C_14  and  C_15
REMARK                            x       y       z     vdW  Elec       q    Type
REMARK                         _______ _______ _______ _____ _____    ______ ____
ROOT
ATOM      1  C   UNL     1       3.290   6.315  18.619  0.00  0.00    +0.000 A 
ATOM      2  C   UNL     1       2.684   7.472  19.126  0.00  0.00    +0.000 A 
ATOM      3  C   UNL     1       1.717   7.348  20.109  0.00  0.00    +0.000 A 
ATOM      4  N   UNL     1       1.383   6.135  20.598  0.00  0.00    +0.000 NA
ATOM      5  C   UNL     1       1.916   5.022  20.075  0.00  0.00    +0.000 A 
ATOM      6  C   UNL     1       1.520   3.810  20.621  0.00  0.00    +0.000 A 
ATOM      7  C   UNL     1       2.007   2.593  20.145  0.00  0.00    +0.000 A 
ATOM      8  C   UNL     1       2.892   2.582  19.076  0.00  0.00    +0.000 A 
ATOM      9  C   UNL     1       3.321   3.791  18.526  0.00  0.00    +0.000 A 
ATOM     10  C   UNL     1       2.863   5.034  19.035  0.00  0.00    +0.000 A 
ENDROOT
BRANCH   3  11
ATOM     11  C   UNL     1       1.064   8.519  20.746  0.00  0.00    +0.000 A 
ATOM     12  C   UNL     1       1.171   8.666  22.148  0.00  0.00    +0.000 A 
ATOM     13  C   UNL     1       0.567   9.719  22.824  0.00  0.00    +0.000 A 
ATOM     14  C   UNL     1      -0.177  10.653  22.116  0.00  0.00    +0.000 A 
ATOM     15  C   UNL     1      -0.320  10.554  20.726  0.00  0.00    +0.000 A 
ATOM     16  C   UNL     1      -1.093  11.512  20.047  0.00  0.00    +0.000 A 
ATOM     17  C   UNL     1      -1.258  11.461  18.666  0.00  0.00    +0.000 A 
ATOM     18  C   UNL     1      -0.644  10.450  17.943  0.00  0.00    +0.000 A 
ATOM     19  C   UNL     1       0.131   9.493  18.605  0.00  0.00    +0.000 A 
ATOM     20  C   UNL     1       0.306   9.495  20.013  0.00  0.00    +0.000 A 
ENDBRANCH   3  11
BRANCH   1  22
ATOM     21  O   UNL     1       4.349   6.844  16.560  0.00  0.00    +0.000 OA
ATOM     22  C   UNL     1       4.468   6.511  17.727  0.00  0.00    +0.000 C 
ATOM     23  N   UNL     1       5.682   6.244  18.339  0.00  0.00    +0.000 N 
ATOM     24  H   UNL     1       5.663   5.731  19.212  0.00  0.00    +0.000 HD
BRANCH  23  25
ATOM     25  C   UNL     1       6.931   6.234  17.591  0.00  0.00    +0.000 C 
BRANCH  25  26
ATOM     26  C   UNL     1       7.292   4.823  17.129  0.00  0.00    +0.000 C 
BRANCH  26  27
ATOM     27  C   UNL     1       6.964   4.610  15.676  0.00  0.00    +0.000 A 
ATOM     28  C   UNL     1       5.909   3.784  15.299  0.00  0.00    +0.000 A 
ATOM     29  C   UNL     1       5.647   3.608  13.943  0.00  0.00    +0.000 A 
ATOM     30  C   UNL     1       6.439   4.260  13.006  0.00  0.00    +0.000 A 
ATOM     31  C   UNL     1       7.472   5.058  13.467  0.00  0.00    +0.000 A 
ATOM     32  N   UNL     1       7.748   5.247  14.774  0.00  0.00    +0.000 NA
ENDBRANCH  26  27
ENDBRANCH  25  26
ENDBRANCH  23  25
ENDBRANCH   1  22
TORSDOF 5
ENDMDL
MODEL 4
REMARK VINA RESULT:      -9.8      1.645      2.624
REMARK  Name = 
REMARK  5 active torsions:
REMARK  status: ('A' for Active; 'I' for Inactive)
REMARK    1  A    between atoms: C_2  and  C_12
REMARK    2  A    between atoms: N_3  and  C_4
REMARK    3  A    between atoms: C_4  and  C_5
REMARK    4  A    between atoms: C_5  and  C_6
REMARK    5  A    between atoms: C_14  and  C_15
REMARK                            x       y       z     vdW  Elec       q    Type
REMARK                         _______ _______ _______ _____ _____    ______ ____
ROOT
ATOM      1  C   UNL     1       3.204   4.961  18.045  0.00  0.00    +0.000 A 
ATOM      2  C   UNL     1       2.828   6.306  17.943  0.00  0.00    +0.000 A 
ATOM      3  C   UNL     1       2.237   6.924  19.032  0.00  0.00    +0.000 A 
ATOM      4  N   UNL     1       2.056   6.253  20.190  0.00  0.00    +0.000 NA
ATOM      5  C   UNL     1       2.359   4.949  20.274  0.00  0.00    +0.000 A 
ATOM      6  C   UNL     1       2.136   4.322  21.490  0.00  0.00    +0.000 A 
ATOM      7  C   UNL     1       2.409   2.968  21.682  0.00  0.00    +0.000 A 
ATOM      8  C   UNL     1       2.889   2.211  20.623  0.00  0.00    +0.000 A 
ATOM      9  C   UNL     1       3.141   2.827  19.396  0.00  0.00    +0.000 A 
ATOM     10  C   UNL     1       2.908   4.214  19.207  0.00  0.00    +0.000 A 
ENDROOT
BRANCH   3  11
ATOM     11  C   UNL     1       1.861   8.359  19.036  0.00  0.00    +0.000 A 
ATOM     12  C   UNL     1       2.247   9.156  17.934  0.00  0.00    +0.000 A 
ATOM     13  C   UNL     1       1.956  10.514  17.873  0.00  0.00    +0.000 A 
ATOM     14  C   UNL     1       1.280  11.120  18.924  0.00  0.00    +0.000 A 
ATOM     15  C   UNL     1       0.878  10.379  20.042  0.00  0.00    +0.000 A 
ATOM     16  C   UNL     1       0.207  11.032  21.091  0.00  0.00    +0.000 A 
ATOM     17  C   UNL     1      -0.219  10.337  22.220  0.00  0.00    +0.000 A 
ATOM     18  C   UNL     1       0.014   8.974  22.310  0.00  0.00    +0.000 A 
ATOM     19  C   UNL     1       0.676   8.311  21.271  0.00  0.00    +0.000 A 
ATOM     20  C   UNL     1       1.149   8.985  20.115  0.00  0.00    +0.000 A 
ENDBRANCH   3  11
BRANCH   1  22
ATOM     21  O   UNL     1       4.177   3.208  16.770  0.00  0.00    +0.000 OA
ATOM     22  C   UNL     1       4.024   4.408  16.931  0.00  0.00    +0.000 C 
ATOM     23  N   UNL     1       4.613   5.378  16.136  0.00  0.00    +0.000 N 
ATOM     24  H   UNL     1       4.642   6.323  16.498  0.00  0.00    +0.000 HD
BRANCH  23  25
ATOM     25  C   UNL     1       5.569   5.038  15.092  0.00  0.00    +0.000 C 
BRANCH  25  26
ATOM     26  C   UNL     1       6.908   4.602  15.684  0.00  0.00    +0.000 C 
BRANCH  26  27
ATOM     27  C   UNL     1       7.338   5.499  16.813  0.00  0.00    +0.000 A 
ATOM     28  C   UNL     1       7.609   4.975  18.073  0.00  0.00    +0.000 A 
ATOM     29  C   UNL     1       7.996   5.844  19.091  0.00  0.00    +0.000 A 
ATOM     30  C   UNL     1       8.103   7.202  18.823  0.00  0.00    +0.000 A 
ATOM     31  C   UNL     1       7.808   7.641  17.543  0.00  0.00    +0.000 A 
ATOM     32  N   UNL     1       7.432   6.822  16.539  0.00  0.00    +0.000 NA
ENDBRANCH  26  27
ENDBRANCH  25  26
ENDBRANCH  23  25
ENDBRANCH   1  22
TORSDOF 5
ENDMDL
MODEL 5
REMARK VINA RESULT:      -9.6      3.998      9.494
REMARK  Name = 
REMARK  5 active torsions:
REMARK  status: ('A' for Active; 'I' for Inactive)
REMARK    1  A    between atoms: C_2  and  C_12
REMARK    2  A    between atoms: N_3  and  C_4
REMARK    3  A    between atoms: C_4  and  C_5
REMARK    4  A    between atoms: C_5  and  C_6
REMARK    5  A    between atoms: C_14  and  C_15
REMARK                            x       y       z     vdW  Elec       q    Type
REMARK                         _______ _______ _______ _____ _____    ______ ____
ROOT
ATOM      1  C   UNL     1       0.040  10.465  19.216  0.00  0.00    +0.000 A 
ATOM      2  C   UNL     1       0.923   9.553  18.625  0.00  0.00    +0.000 A 
ATOM      3  C   UNL     1       1.522   8.587  19.417  0.00  0.00    +0.000 A 
ATOM      4  N   UNL     1       1.235   8.502  20.734  0.00  0.00    +0.000 NA
ATOM      5  C   UNL     1       0.437   9.409  21.315  0.00  0.00    +0.000 A 
ATOM      6  C   UNL     1       0.195   9.266  22.673  0.00  0.00    +0.000 A 
ATOM      7  C   UNL     1      -0.613  10.158  23.376  0.00  0.00    +0.000 A 
ATOM      8  C   UNL     1      -1.171  11.242  22.713  0.00  0.00    +0.000 A 
ATOM      9  C   UNL     1      -0.958  11.394  21.342  0.00  0.00    +0.000 A 
ATOM     10  C   UNL     1      -0.174  10.464  20.612  0.00  0.00    +0.000 A 
ENDROOT
BRANCH   3  11
ATOM     11  C   UNL     1       2.423   7.543  18.869  0.00  0.00    +0.000 A 
ATOM     12  C   UNL     1       3.257   7.883  17.779  0.00  0.00    +0.000 A 
ATOM     13  C   UNL     1       4.111   6.956  17.192  0.00  0.00    +0.000 A 
ATOM     14  C   UNL     1       4.145   5.653  17.671  0.00  0.00    +0.000 A 
ATOM     15  C   UNL     1       3.338   5.262  18.746  0.00  0.00    +0.000 A 
ATOM     16  C   UNL     1       3.392   3.930  19.194  0.00  0.00    +0.000 A 
ATOM     17  C   UNL     1       2.615   3.495  20.264  0.00  0.00    +0.000 A 
ATOM     18  C   UNL     1       1.776   4.391  20.906  0.00  0.00    +0.000 A 
ATOM     19  C   UNL     1       1.715   5.720  20.474  0.00  0.00    +0.000 A 
ATOM     20  C   UNL     1       2.472   6.200  19.374  0.00  0.00    +0.000 A 
ENDBRANCH   3  11
BRANCH   1  22
ATOM     21  O   UNL     1      -0.464  12.517  18.129  0.00  0.00    +0.000 OA
ATOM     22  C   UNL     1      -0.737  11.339  18.292  0.00  0.00    +0.000 C 
ATOM     23  N   UNL     1      -1.803  10.697  17.680  0.00  0.00    +0.000 N 
ATOM     24  H   UNL     1      -2.101   9.812  18.071  0.00  0.00    +0.000 HD
BRANCH  23  25
ATOM     25  C   UNL     1      -2.766  11.420  16.863  0.00  0.00    +0.000 C 
BRANCH  25  26
ATOM     26  C   UNL     1      -4.147  10.770  16.924  0.00  0.00    +0.000 C 
BRANCH  26  27
ATOM     27  C   UNL     1      -4.940  11.253  18.108  0.00  0.00    +0.000 A 
ATOM     28  C   UNL     1      -6.291  10.944  18.232  0.00  0.00    +0.000 A 
ATOM     29  C   UNL     1      -6.989  11.420  19.340  0.00  0.00    +0.000 A 
ATOM     30  C   UNL     1      -6.321  12.185  20.288  0.00  0.00    +0.000 A 
ATOM     31  C   UNL     1      -4.978  12.452  20.083  0.00  0.00    +0.000 A 
ATOM     32  N   UNL     1      -4.278  12.003  19.021  0.00  0.00    +0.000 NA
ENDBRANCH  26  27
ENDBRANCH  25  26
ENDBRANCH  23  25
ENDBRANCH   1  22
TORSDOF 5
ENDMDL
MODEL 6
REMARK VINA RESULT:      -9.5      3.926      9.241
REMARK  Name = 
REMARK  5 active torsions:
REMARK  status: ('A' for Active; 'I' for Inactive)
REMARK    1  A    between atoms: C_2  and  C_12
REMARK    2  A    between atoms: N_3  and  C_4
REMARK    3  A    between atoms: C_4  and  C_5
REMARK    4  A    between atoms: C_5  and  C_6
REMARK    5  A    between atoms: C_14  and  C_15
REMARK                            x       y       z     vdW  Elec       q    Type
REMARK                         _______ _______ _______ _____ _____    ______ ____
ROOT
ATOM      1  C   UNL     1       0.506   9.921  18.769  0.00  0.00    +0.000 A 
ATOM      2  C   UNL     1       1.345   9.065  18.045  0.00  0.00    +0.000 A 
ATOM      3  C   UNL     1       2.057   8.090  18.723  0.00  0.00    +0.000 A 
ATOM      4  N   UNL     1       1.921   7.940  20.058  0.00  0.00    +0.000 NA
ATOM      5  C   UNL     1       1.166   8.794  20.763  0.00  0.00    +0.000 A 
ATOM      6  C   UNL     1       1.080   8.587  22.132  0.00  0.00    +0.000 A 
ATOM      7  C   UNL     1       0.329   9.421  22.958  0.00  0.00    +0.000 A 
ATOM      8  C   UNL     1      -0.332  10.511  22.410  0.00  0.00    +0.000 A 
ATOM      9  C   UNL     1      -0.277  10.726  21.032  0.00  0.00    +0.000 A 
ATOM     10  C   UNL     1       0.449   9.855  20.179  0.00  0.00    +0.000 A 
ENDROOT
BRANCH   3  11
ATOM     11  C   UNL     1       2.924   7.102  18.033  0.00  0.00    +0.000 A 
ATOM     12  C   UNL     1       4.018   7.582  17.277  0.00  0.00    +0.000 A 
ATOM     13  C   UNL     1       4.861   6.725  16.581  0.00  0.00    +0.000 A 
ATOM     14  C   UNL     1       4.625   5.356  16.608  0.00  0.00    +0.000 A 
ATOM     15  C   UNL     1       3.553   4.827  17.337  0.00  0.00    +0.000 A 
ATOM     16  C   UNL     1       3.340   3.437  17.330  0.00  0.00    +0.000 A 
ATOM     17  C   UNL     1       2.293   2.862  18.045  0.00  0.00    +0.000 A 
ATOM     18  C   UNL     1       1.448   3.673  18.785  0.00  0.00    +0.000 A 
ATOM     19  C   UNL     1       1.651   5.056  18.806  0.00  0.00    +0.000 A 
ATOM     20  C   UNL     1       2.691   5.685  18.073  0.00  0.00    +0.000 A 
ENDBRANCH   3  11
BRANCH   1  22
ATOM     21  O   UNL     1      -0.410  12.016  18.122  0.00  0.00    +0.000 OA
ATOM     22  C   UNL     1      -0.395  10.804  17.977  0.00  0.00    +0.000 C 
ATOM     23  N   UNL     1      -1.224  10.117  17.104  0.00  0.00    +0.000 N 
ATOM     24  H   UNL     1      -1.323   9.119  17.241  0.00  0.00    +0.000 HD
BRANCH  23  25
ATOM     25  C   UNL     1      -2.275  10.791  16.355  0.00  0.00    +0.000 C 
BRANCH  25  26
ATOM     26  C   UNL     1      -3.660  10.314  16.788  0.00  0.00    +0.000 C 
BRANCH  26  27
ATOM     27  C   UNL     1      -4.356  11.330  17.652  0.00  0.00    +0.000 A 
ATOM     28  C   UNL     1      -5.573  11.882  17.260  0.00  0.00    +0.000 A 
ATOM     29  C   UNL     1      -6.178  12.826  18.086  0.00  0.00    +0.000 A 
ATOM     30  C   UNL     1      -5.556  13.189  19.275  0.00  0.00    +0.000 A 
ATOM     31  C   UNL     1      -4.344  12.596  19.585  0.00  0.00    +0.000 A 
ATOM     32  N   UNL     1      -3.736  11.679  18.804  0.00  0.00    +0.000 NA
ENDBRANCH  26  27
ENDBRANCH  25  26
ENDBRANCH  23  25
ENDBRANCH   1  22
TORSDOF 5
ENDMDL
MODEL 7
REMARK VINA RESULT:      -9.4      0.979      2.120
REMARK  Name = 
REMARK  5 active torsions:
REMARK  status: ('A' for Active; 'I' for Inactive)
REMARK    1  A    between atoms: C_2  and  C_12
REMARK    2  A    between atoms: N_3  and  C_4
REMARK    3  A    between atoms: C_4  and  C_5
REMARK    4  A    between atoms: C_5  and  C_6
REMARK    5  A    between atoms: C_14  and  C_15
REMARK                            x       y       z     vdW  Elec       q    Type
REMARK                         _______ _______ _______ _____ _____    ______ ____
ROOT
ATOM      1  C   UNL     1       3.540   5.694  19.128  0.00  0.00    +0.000 A 
ATOM      2  C   UNL     1       3.010   6.920  19.549  0.00  0.00    +0.000 A 
ATOM      3  C   UNL     1       1.796   6.934  20.215  0.00  0.00    +0.000 A 
ATOM      4  N   UNL     1       1.145   5.782  20.485  0.00  0.00    +0.000 NA
ATOM      5  C   UNL     1       1.618   4.613  20.031  0.00  0.00    +0.000 A 
ATOM      6  C   UNL     1       0.892   3.471  20.337  0.00  0.00    +0.000 A 
ATOM      7  C   UNL     1       1.291   2.207  19.908  0.00  0.00    +0.000 A 
ATOM      8  C   UNL     1       2.430   2.078  19.125  0.00  0.00    +0.000 A 
ATOM      9  C   UNL     1       3.187   3.211  18.823  0.00  0.00    +0.000 A 
ATOM     10  C   UNL     1       2.811   4.495  19.295  0.00  0.00    +0.000 A 
ENDROOT
BRANCH   3  11
ATOM     11  C   UNL     1       1.187   8.177  20.750  0.00  0.00    +0.000 A 
ATOM     12  C   UNL     1       0.599   8.136  22.035  0.00  0.00    +0.000 A 
ATOM     13  C   UNL     1      -0.015   9.249  22.597  0.00  0.00    +0.000 A 
ATOM     14  C   UNL     1      -0.072  10.437  21.881  0.00  0.00    +0.000 A 
ATOM     15  C   UNL     1       0.489  10.532  20.601  0.00  0.00    +0.000 A 
ATOM     16  C   UNL     1       0.399  11.749  19.903  0.00  0.00    +0.000 A 
ATOM     17  C   UNL     1       0.948  11.896  18.632  0.00  0.00    +0.000 A 
ATOM     18  C   UNL     1       1.604  10.825  18.045  0.00  0.00    +0.000 A 
ATOM     19  C   UNL     1       1.705   9.611  18.731  0.00  0.00    +0.000 A 
ATOM     20  C   UNL     1       1.139   9.411  20.017  0.00  0.00    +0.000 A 
ENDBRANCH   3  11
BRANCH   1  22
ATOM     21  O   UNL     1       5.897   5.469  19.329  0.00  0.00    +0.000 OA
ATOM     22  C   UNL     1       4.939   5.710  18.613  0.00  0.00    +0.000 C 
ATOM     23  N   UNL     1       5.037   6.057  17.275  0.00  0.00    +0.000 N 
ATOM     24  H   UNL     1       4.228   6.486  16.843  0.00  0.00    +0.000 HD
BRANCH  23  25
ATOM     25  C   UNL     1       6.325   6.273  16.633  0.00  0.00    +0.000 C 
BRANCH  25  26
ATOM     26  C   UNL     1       6.990   4.949  16.260  0.00  0.00    +0.000 C 
BRANCH  26  27
ATOM     27  C   UNL     1       6.996   4.726  14.772  0.00  0.00    +0.000 A 
ATOM     28  C   UNL     1       6.135   3.800  14.188  0.00  0.00    +0.000 A 
ATOM     29  C   UNL     1       6.181   3.620  12.808  0.00  0.00    +0.000 A 
ATOM     30  C   UNL     1       7.078   4.365  12.053  0.00  0.00    +0.000 A 
ATOM     31  C   UNL     1       7.904   5.258  12.715  0.00  0.00    +0.000 A 
ATOM     32  N   UNL     1       7.880   5.454  14.049  0.00  0.00    +0.000 NA
ENDBRANCH  26  27
ENDBRANCH  25  26
ENDBRANCH  23  25
ENDBRANCH   1  22
TORSDOF 5
ENDMDL
MODEL 8
REMARK VINA RESULT:      -9.3      1.822      2.755
REMARK  Name = 
REMARK  5 active torsions:
REMARK  status: ('A' for Active; 'I' for Inactive)
REMARK    1  A    between atoms: C_2  and  C_12
REMARK    2  A    between atoms: N_3  and  C_4
REMARK    3  A    between atoms: C_4  and  C_5
REMARK    4  A    between atoms: C_5  and  C_6
REMARK    5  A    between atoms: C_14  and  C_15
REMARK                            x       y       z     vdW  Elec       q    Type
REMARK                         _______ _______ _______ _____ _____    ______ ____
ROOT
ATOM      1  C   UNL     1       2.704   4.743  18.105  0.00  0.00    +0.000 A 
ATOM      2  C   UNL     1       2.415   6.108  17.979  0.00  0.00    +0.000 A 
ATOM      3  C   UNL     1       2.030   6.820  19.103  0.00  0.00    +0.000 A 
ATOM      4  N   UNL     1       1.964   6.218  20.310  0.00  0.00    +0.000 NA
ATOM      5  C   UNL     1       2.182   4.900  20.425  0.00  0.00    +0.000 A 
ATOM      6  C   UNL     1       2.088   4.348  21.693  0.00  0.00    +0.000 A 
ATOM      7  C   UNL     1       2.287   2.988  21.922  0.00  0.00    +0.000 A 
ATOM      8  C   UNL     1       2.558   2.147  20.851  0.00  0.00    +0.000 A 
ATOM      9  C   UNL     1       2.678   2.685  19.569  0.00  0.00    +0.000 A 
ATOM     10  C   UNL     1       2.521   4.076  19.336  0.00  0.00    +0.000 A 
ENDROOT
BRANCH   3  11
ATOM     11  C   UNL     1       1.761   8.279  19.077  0.00  0.00    +0.000 A 
ATOM     12  C   UNL     1       2.205   9.022  17.960  0.00  0.00    +0.000 A 
ATOM     13  C   UNL     1       2.016  10.397  17.871  0.00  0.00    +0.000 A 
ATOM     14  C   UNL     1       1.389  11.073  18.909  0.00  0.00    +0.000 A 
ATOM     15  C   UNL     1       0.934  10.387  20.042  0.00  0.00    +0.000 A 
ATOM     16  C   UNL     1       0.315  11.109  21.078  0.00  0.00    +0.000 A 
ATOM     17  C   UNL     1      -0.161  10.471  22.220  0.00  0.00    +0.000 A 
ATOM     18  C   UNL     1      -0.030   9.096  22.337  0.00  0.00    +0.000 A 
ATOM     19  C   UNL     1       0.579   8.365  21.313  0.00  0.00    +0.000 A 
ATOM     20  C   UNL     1       1.099   8.978  20.143  0.00  0.00    +0.000 A 
ENDBRANCH   3  11
BRANCH   1  22
ATOM     21  O   UNL     1       2.720   3.240  16.265  0.00  0.00    +0.000 OA
ATOM     22  C   UNL     1       3.318   4.077  16.921  0.00  0.00    +0.000 C 
ATOM     23  N   UNL     1       4.623   4.471  16.673  0.00  0.00    +0.000 N 
ATOM     24  H   UNL     1       5.111   4.962  17.412  0.00  0.00    +0.000 HD
BRANCH  23  25
ATOM     25  C   UNL     1       5.438   3.824  15.656  0.00  0.00    +0.000 C 
BRANCH  25  26
ATOM     26  C   UNL     1       6.769   4.549  15.465  0.00  0.00    +0.000 C 
BRANCH  26  27
ATOM     27  C   UNL     1       7.192   5.278  16.711  0.00  0.00    +0.000 A 
ATOM     28  C   UNL     1       7.273   6.668  16.729  0.00  0.00    +0.000 A 
ATOM     29  C   UNL     1       7.678   7.301  17.902  0.00  0.00    +0.000 A 
ATOM     30  C   UNL     1       7.987   6.533  19.018  0.00  0.00    +0.000 A 
ATOM     31  C   UNL     1       7.887   5.156  18.912  0.00  0.00    +0.000 A 
ATOM     32  N   UNL     1       7.497   4.517  17.789  0.00  0.00    +0.000 NA
ENDBRANCH  26  27
ENDBRANCH  25  26
ENDBRANCH  23  25
ENDBRANCH   1  22
TORSDOF 5
ENDMDL
MODEL 9
REMARK VINA RESULT:      -9.2      1.753      2.724
REMARK  Name = 
REMARK  5 active torsions:
REMARK  status: ('A' for Active; 'I' for Inactive)
REMARK    1  A    between atoms: C_2  and  C_12
REMARK    2  A    between atoms: N_3  and  C_4
REMARK    3  A    between atoms: C_4  and  C_5
REMARK    4  A    between atoms: C_5  and  C_6
REMARK    5  A    between atoms: C_14  and  C_15
REMARK                            x       y       z     vdW  Elec       q    Type
REMARK                         _______ _______ _______ _____ _____    ______ ____
ROOT
ATOM      1  C   UNL     1       3.284   7.147  18.017  0.00  0.00    +0.000 A 
ATOM      2  C   UNL     1       2.610   8.368  18.139  0.00  0.00    +0.000 A 
ATOM      3  C   UNL     1       1.694   8.531  19.164  0.00  0.00    +0.000 A 
ATOM      4  N   UNL     1       1.474   7.540  20.055  0.00  0.00    +0.000 NA
ATOM      5  C   UNL     1       2.071   6.349  19.907  0.00  0.00    +0.000 A 
ATOM      6  C   UNL     1       1.791   5.375  20.854  0.00  0.00    +0.000 A 
ATOM      7  C   UNL     1       2.352   4.101  20.788  0.00  0.00    +0.000 A 
ATOM      8  C   UNL     1       3.194   3.778  19.733  0.00  0.00    +0.000 A 
ATOM      9  C   UNL     1       3.506   4.749  18.781  0.00  0.00    +0.000 A 
ATOM     10  C   UNL     1       2.974   6.062  18.867  0.00  0.00    +0.000 A 
ENDROOT
BRANCH   3  11
ATOM     11  C   UNL     1       0.977   9.807  19.408  0.00  0.00    +0.000 A 
ATOM     12  C   UNL     1       1.441  10.649  20.445  0.00  0.00    +0.000 A 
ATOM     13  C   UNL     1       0.810  11.849  20.754  0.00  0.00    +0.000 A 
ATOM     14  C   UNL     1      -0.317  12.236  20.040  0.00  0.00    +0.000 A 
ATOM     15  C   UNL     1      -0.821  11.439  19.006  0.00  0.00    +0.000 A 
ATOM     16  C   UNL     1      -1.972  11.860  18.315  0.00  0.00    +0.000 A 
ATOM     17  C   UNL     1      -2.507  11.106  17.275  0.00  0.00    +0.000 A 
ATOM     18  C   UNL     1      -1.891   9.920  16.905  0.00  0.00    +0.000 A 
ATOM     19  C   UNL     1      -0.743   9.493  17.579  0.00  0.00    +0.000 A 
ATOM     20  C   UNL     1      -0.179  10.218  18.661  0.00  0.00    +0.000 A 
ENDBRANCH   3  11
BRANCH   1  22
ATOM     21  O   UNL     1       4.247   7.328  15.852  0.00  0.00    +0.000 OA
ATOM     22  C   UNL     1       4.408   7.096  17.039  0.00  0.00    +0.000 C 
ATOM     23  N   UNL     1       5.621   6.730  17.601  0.00  0.00    +0.000 N 
ATOM     24  H   UNL     1       5.601   6.311  18.523  0.00  0.00    +0.000 HD
BRANCH  23  25
ATOM     25  C   UNL     1       6.799   6.480  16.784  0.00  0.00    +0.000 C 
BRANCH  25  26
ATOM     26  C   UNL     1       6.942   4.996  16.452  0.00  0.00    +0.000 C 
BRANCH  26  27
ATOM     27  C   UNL     1       6.953   4.755  14.966  0.00  0.00    +0.000 A 
ATOM     28  C   UNL     1       6.073   3.845  14.388  0.00  0.00    +0.000 A 
ATOM     29  C   UNL     1       6.124   3.646  13.010  0.00  0.00    +0.000 A 
ATOM     30  C   UNL     1       7.046   4.359  12.253  0.00  0.00    +0.000 A 
ATOM     31  C   UNL     1       7.889   5.239  12.910  0.00  0.00    +0.000 A 
ATOM     32  N   UNL     1       7.860   5.452  14.242  0.00  0.00    +0.000 NA
ENDBRANCH  26  27
ENDBRANCH  25  26
ENDBRANCH  23  25
ENDBRANCH   1  22
TORSDOF 5
ENDMDL
