MODEL 1
REMARK VINA RESULT:      -6.9      0.000      0.000
REMARK  Name = 
REMARK  13 active torsions:
REMARK  status: ('A' for Active; 'I' for Inactive)
REMARK    1  A    between atoms: C_1  and  C_2
REMARK    2  A    between atoms: C_2  and  N_3
REMARK    3  A    between atoms: C_4  and  C_6
REMARK    4  A    between atoms: C_6  and  C_7
REMARK    5  A    between atoms: C_6  and  N_8
REMARK    6  A    between atoms: C_9  and  C_11
REMARK    7  A    between atoms: C_11  and  C_12
REMARK    8  A    between atoms: C_12  and  C_13
REMARK    9  A    between atoms: C_13  and  C_14
REMARK   10  A    between atoms: C_14  and  C_16
REMARK   11  A    between atoms: C_17  and  C_18
REMARK   12  A    between atoms: C_20  and  C_21
REMARK   13  A    between atoms: C_23  and  C_24
REMARK                            x       y       z     vdW  Elec       q    Type
REMARK                         _______ _______ _______ _____ _____    ______ ____
ROOT
ATOM      1  C   UNL     1       2.686   7.325  18.218  0.00  0.00    +0.000 C 
ENDROOT
BRANCH   1   3
ATOM      2  N   UNL     1       1.708   9.556  18.202  0.00  0.00    +0.000 N 
ATOM      3  C   UNL     1       1.961   8.423  18.934  0.00  0.00    +0.000 C 
ATOM      4  O   UNL     1       1.638   8.313  20.131  0.00  0.00    +0.000 OA
ATOM      5  H   UNL     1       2.381   9.773  17.470  0.00  0.00    +0.000 HD
BRANCH   2   6
ATOM      6  C   UNL     1       1.024  10.679  18.844  0.00  0.00    +0.000 C 
ATOM      7  C   UNL     1       1.843  11.957  18.692  0.00  0.00    +0.000 C 
BRANCH   6   9
ATOM      8  N   UNL     1      -0.895   9.998  17.436  0.00  0.00    +0.000 N 
ATOM      9  C   UNL     1      -0.400  10.933  18.314  0.00  0.00    +0.000 C 
ATOM     10  O   UNL     1      -1.045  11.939  18.637  0.00  0.00    +0.000 OA
ATOM     11  H   UNL     1      -0.406   9.112  17.338  0.00  0.00    +0.000 HD
BRANCH   8  13
ATOM     12  C   UNL     1      -3.319   9.604  17.595  0.00  0.00    +0.000 C 
ATOM     13  C   UNL     1      -2.175  10.196  16.795  0.00  0.00    +0.000 C 
ENDBRANCH   8  13
ENDBRANCH   6   9
ENDBRANCH   2   6
ENDBRANCH   1   3
BRANCH   1  14
ATOM     14  C   UNL     1       2.437   5.993  18.928  0.00  0.00    +0.000 C 
BRANCH  14  15
ATOM     15  C   UNL     1       3.619   5.568  19.803  0.00  0.00    +0.000 C 
BRANCH  15  16
ATOM     16  C   UNL     1       4.404   4.406  19.217  0.00  0.00    +0.000 C 
ATOM     17  O   UNL     1       4.431   3.318  19.797  0.00  0.00    +0.000 OA
BRANCH  16  18
ATOM     18  C   UNL     1       5.114   4.546  17.909  0.00  0.00    +0.000 A 
ATOM     19  C   UNL     1       6.392   5.142  17.811  0.00  0.00    +0.000 A 
ATOM     20  C   UNL     1       7.177   5.679  18.964  0.00  0.00    +0.000 C 
ATOM     21  C   UNL     1       6.998   5.253  16.555  0.00  0.00    +0.000 A 
ATOM     22  C   UNL     1       6.401   4.734  15.406  0.00  0.00    +0.000 A 
ATOM     23  C   UNL     1       7.087   4.816  14.075  0.00  0.00    +0.000 C 
ATOM     24  C   UNL     1       5.159   4.106  15.513  0.00  0.00    +0.000 A 
ATOM     25  C   UNL     1       4.496   4.009  16.746  0.00  0.00    +0.000 A 
ATOM     26  C   UNL     1       3.155   3.316  16.774  0.00  0.00    +0.000 C 
ENDBRANCH  16  18
ENDBRANCH  15  16
ENDBRANCH  14  15
ENDBRANCH   1  14
TORSDOF 8
ENDMDL
MODEL 2
REMARK VINA RESULT:      -6.9      1.217      1.347
REMARK  Name = 
REMARK  13 active torsions:
REMARK  status: ('A' for Active; 'I' for Inactive)
REMARK    1  A    between atoms: C_1  and  C_2
REMARK    2  A    between atoms: C_2  and  N_3
REMARK    3  A    between atoms: C_4  and  C_6
REMARK    4  A    between atoms: C_6  and  C_7
REMARK    5  A    between atoms: C_6  and  N_8
REMARK    6  A    between atoms: C_9  and  C_11
REMARK    7  A    between atoms: C_11  and  C_12
REMARK    8  A    between atoms: C_12  and  C_13
REMARK    9  A    between atoms: C_13  and  C_14
REMARK   10  A    between atoms: C_14  and  C_16
REMARK   11  A    between atoms: C_17  and  C_18
REMARK   12  A    between atoms: C_20  and  C_21
REMARK   13  A    between atoms: C_23  and  C_24
REMARK                            x       y       z     vdW  Elec       q    Type
REMARK                         _______ _______ _______ _____ _____    ______ ____
ROOT
ATOM      1  C   UNL     1       2.661   8.172  17.916  0.00  0.00    +0.000 C 
ENDROOT
BRANCH   1   3
ATOM      2  N   UNL     1       0.971   9.924  17.993  0.00  0.00    +0.000 N 
ATOM      3  C   UNL     1       1.661   8.969  18.695  0.00  0.00    +0.000 C 
ATOM      4  O   UNL     1       1.495   8.786  19.915  0.00  0.00    +0.000 OA
ATOM      5  H   UNL     1       1.464  10.341  17.206  0.00  0.00    +0.000 HD
BRANCH   2   6
ATOM      6  C   UNL     1      -0.005  10.758  18.694  0.00  0.00    +0.000 C 
ATOM      7  C   UNL     1       0.482  12.201  18.768  0.00  0.00    +0.000 C 
BRANCH   6   9
ATOM      8  N   UNL     1      -1.648   9.755  17.136  0.00  0.00    +0.000 N 
ATOM      9  C   UNL     1      -1.413  10.738  18.070  0.00  0.00    +0.000 C 
ATOM     10  O   UNL     1      -2.271  11.579  18.368  0.00  0.00    +0.000 OA
ATOM     11  H   UNL     1      -0.982   8.991  17.053  0.00  0.00    +0.000 HD
BRANCH   8  13
ATOM     12  C   UNL     1      -2.825  10.465  15.095  0.00  0.00    +0.000 C 
ATOM     13  C   UNL     1      -2.896   9.713  16.410  0.00  0.00    +0.000 C 
ENDBRANCH   8  13
ENDBRANCH   6   9
ENDBRANCH   2   6
ENDBRANCH   1   3
BRANCH   1  14
ATOM     14  C   UNL     1       2.277   6.691  17.945  0.00  0.00    +0.000 C 
BRANCH  14  15
ATOM     15  C   UNL     1       2.898   5.951  19.133  0.00  0.00    +0.000 C 
BRANCH  15  16
ATOM     16  C   UNL     1       4.330   5.512  18.876  0.00  0.00    +0.000 C 
ATOM     17  O   UNL     1       5.132   5.426  19.809  0.00  0.00    +0.000 OA
BRANCH  16  18
ATOM     18  C   UNL     1       4.777   5.133  17.500  0.00  0.00    +0.000 A 
ATOM     19  C   UNL     1       5.604   5.976  16.723  0.00  0.00    +0.000 A 
ATOM     20  C   UNL     1       6.130   7.303  17.165  0.00  0.00    +0.000 C 
ATOM     21  C   UNL     1       5.978   5.568  15.438  0.00  0.00    +0.000 A 
ATOM     22  C   UNL     1       5.608   4.323  14.929  0.00  0.00    +0.000 A 
ATOM     23  C   UNL     1       6.060   3.879  13.570  0.00  0.00    +0.000 C 
ATOM     24  C   UNL     1       4.830   3.474  15.717  0.00  0.00    +0.000 A 
ATOM     25  C   UNL     1       4.397   3.860  16.995  0.00  0.00    +0.000 A 
ATOM     26  C   UNL     1       3.555   2.883  17.780  0.00  0.00    +0.000 C 
ENDBRANCH  16  18
ENDBRANCH  15  16
ENDBRANCH  14  15
ENDBRANCH   1  14
TORSDOF 8
ENDMDL
MODEL 3
REMARK VINA RESULT:      -6.8      2.168      3.085
REMARK  Name = 
REMARK  13 active torsions:
REMARK  status: ('A' for Active; 'I' for Inactive)
REMARK    1  A    between atoms: C_1  and  C_2
REMARK    2  A    between atoms: C_2  and  N_3
REMARK    3  A    between atoms: C_4  and  C_6
REMARK    4  A    between atoms: C_6  and  C_7
REMARK    5  A    between atoms: C_6  and  N_8
REMARK    6  A    between atoms: C_9  and  C_11
REMARK    7  A    between atoms: C_11  and  C_12
REMARK    8  A    between atoms: C_12  and  C_13
REMARK    9  A    between atoms: C_13  and  C_14
REMARK   10  A    between atoms: C_14  and  C_16
REMARK   11  A    between atoms: C_17  and  C_18
REMARK   12  A    between atoms: C_20  and  C_21
REMARK   13  A    between atoms: C_23  and  C_24
REMARK                            x       y       z     vdW  Elec       q    Type
REMARK                         _______ _______ _______ _____ _____    ______ ____
ROOT
ATOM      1  C   UNL     1       2.922   7.840  18.001  0.00  0.00    +0.000 C 
ENDROOT
BRANCH   1   3
ATOM      2  N   UNL     1       1.534   8.673  19.820  0.00  0.00    +0.000 N 
ATOM      3  C   UNL     1       1.760   8.661  18.468  0.00  0.00    +0.000 C 
ATOM      4  O   UNL     1       1.033   9.271  17.662  0.00  0.00    +0.000 OA
ATOM      5  H   UNL     1       1.807   7.833  20.325  0.00  0.00    +0.000 HD
BRANCH   2   6
ATOM      6  C   UNL     1       0.401   9.435  20.346  0.00  0.00    +0.000 C 
ATOM      7  C   UNL     1      -0.192   8.735  21.565  0.00  0.00    +0.000 C 
BRANCH   6   9
ATOM      8  N   UNL     1       1.034  11.734  19.678  0.00  0.00    +0.000 N 
ATOM      9  C   UNL     1       0.743  10.889  20.724  0.00  0.00    +0.000 C 
ATOM     10  O   UNL     1       0.784  11.263  21.903  0.00  0.00    +0.000 OA
ATOM     11  H   UNL     1       0.819  11.432  18.731  0.00  0.00    +0.000 HD
BRANCH   8  13
ATOM     12  C   UNL     1       1.607  13.896  18.651  0.00  0.00    +0.000 C 
ATOM     13  C   UNL     1       1.473  13.087  19.927  0.00  0.00    +0.000 C 
ENDBRANCH   8  13
ENDBRANCH   6   9
ENDBRANCH   2   6
ENDBRANCH   1   3
BRANCH   1  14
ATOM     14  C   UNL     1       2.635   6.356  18.239  0.00  0.00    +0.000 C 
BRANCH  14  15
ATOM     15  C   UNL     1       3.465   5.779  19.389  0.00  0.00    +0.000 C 
BRANCH  15  16
ATOM     16  C   UNL     1       4.869   5.379  18.966  0.00  0.00    +0.000 C 
ATOM     17  O   UNL     1       5.785   5.358  19.791  0.00  0.00    +0.000 OA
BRANCH  16  18
ATOM     18  C   UNL     1       5.152   4.961  17.559  0.00  0.00    +0.000 A 
ATOM     19  C   UNL     1       4.637   3.762  17.016  0.00  0.00    +0.000 A 
ATOM     20  C   UNL     1       3.760   2.798  17.749  0.00  0.00    +0.000 C 
ATOM     21  C   UNL     1       4.949   3.422  15.696  0.00  0.00    +0.000 A 
ATOM     22  C   UNL     1       5.704   4.265  14.882  0.00  0.00    +0.000 A 
ATOM     23  C   UNL     1       5.987   3.910  13.453  0.00  0.00    +0.000 C 
ATOM     24  C   UNL     1       6.174   5.470  15.407  0.00  0.00    +0.000 A 
ATOM     25  C   UNL     1       5.920   5.832  16.739  0.00  0.00    +0.000 A 
ATOM     26  C   UNL     1       6.467   7.151  17.229  0.00  0.00    +0.000 C 
ENDBRANCH  16  18
ENDBRANCH  15  16
ENDBRANCH  14  15
ENDBRANCH   1  14
TORSDOF 8
ENDMDL
MODEL 4
REMARK VINA RESULT:      -6.7      3.138      7.464
REMARK  Name = 
REMARK  13 active torsions:
REMARK  status: ('A' for Active; 'I' for Inactive)
REMARK    1  A    between atoms: C_1  and  C_2
REMARK    2  A    between atoms: C_2  and  N_3
REMARK    3  A    between atoms: C_4  and  C_6
REMARK    4  A    between atoms: C_6  and  C_7
REMARK    5  A    between atoms: C_6  and  N_8
REMARK    6  A    between atoms: C_9  and  C_11
REMARK    7  A    between atoms: C_11  and  C_12
REMARK    8  A    between atoms: C_12  and  C_13
REMARK    9  A    between atoms: C_13  and  C_14
REMARK   10  A    between atoms: C_14  and  C_16
REMARK   11  A    between atoms: C_17  and  C_18
REMARK   12  A    between atoms: C_20  and  C_21
REMARK   13  A    between atoms: C_23  and  C_24
REMARK                            x       y       z     vdW  Elec       q    Type
REMARK                         _______ _______ _______ _____ _____    ______ ____
ROOT
ATOM      1  C   UNL     1       2.223   3.944  17.602  0.00  0.00    +0.000 C 
ENDROOT
BRANCH   1   3
ATOM      2  N   UNL     1       4.203   4.287  16.226  0.00  0.00    +0.000 N 
ATOM      3  C   UNL     1       3.577   3.490  17.150  0.00  0.00    +0.000 C 
ATOM      4  O   UNL     1       4.082   2.435  17.575  0.00  0.00    +0.000 OA
ATOM      5  H   UNL     1       3.593   4.799  15.593  0.00  0.00    +0.000 HD
BRANCH   2   6
ATOM      6  C   UNL     1       5.519   3.893  15.721  0.00  0.00    +0.000 C 
ATOM      7  C   UNL     1       5.608   4.141  14.218  0.00  0.00    +0.000 C 
BRANCH   6   9
ATOM      8  N   UNL     1       6.971   4.205  17.701  0.00  0.00    +0.000 N 
ATOM      9  C   UNL     1       6.697   4.604  16.414  0.00  0.00    +0.000 C 
ATOM     10  O   UNL     1       7.335   5.504  15.854  0.00  0.00    +0.000 OA
ATOM     11  H   UNL     1       6.540   3.353  18.052  0.00  0.00    +0.000 HD
BRANCH   8  13
ATOM     12  C   UNL     1       7.387   5.789  19.538  0.00  0.00    +0.000 C 
ATOM     13  C   UNL     1       7.983   4.881  18.480  0.00  0.00    +0.000 C 
ENDBRANCH   8  13
ENDBRANCH   6   9
ENDBRANCH   2   6
ENDBRANCH   1   3
BRANCH   1  14
ATOM     14  C   UNL     1       2.096   3.763  19.115  0.00  0.00    +0.000 C 
BRANCH  14  15
ATOM     15  C   UNL     1       1.602   5.032  19.815  0.00  0.00    +0.000 C 
BRANCH  15  16
ATOM     16  C   UNL     1       2.585   6.187  19.712  0.00  0.00    +0.000 C 
ATOM     17  O   UNL     1       3.796   5.987  19.828  0.00  0.00    +0.000 OA
BRANCH  16  18
ATOM     18  C   UNL     1       2.106   7.573  19.422  0.00  0.00    +0.000 A 
ATOM     19  C   UNL     1       1.338   8.310  20.353  0.00  0.00    +0.000 A 
ATOM     20  C   UNL     1       0.932   7.820  21.706  0.00  0.00    +0.000 C 
ATOM     21  C   UNL     1       0.911   9.598  20.016  0.00  0.00    +0.000 A 
ATOM     22  C   UNL     1       1.275  10.199  18.812  0.00  0.00    +0.000 A 
ATOM     23  C   UNL     1       0.852  11.600  18.488  0.00  0.00    +0.000 C 
ATOM     24  C   UNL     1       2.071   9.485  17.914  0.00  0.00    +0.000 A 
ATOM     25  C   UNL     1       2.488   8.175  18.192  0.00  0.00    +0.000 A 
ATOM     26  C   UNL     1       3.344   7.473  17.166  0.00  0.00    +0.000 C 
ENDBRANCH  16  18
ENDBRANCH  15  16
ENDBRANCH  14  15
ENDBRANCH   1  14
TORSDOF 8
ENDMDL
MODEL 5
REMARK VINA RESULT:      -6.7      2.106      2.568
REMARK  Name = 
REMARK  13 active torsions:
REMARK  status: ('A' for Active; 'I' for Inactive)
REMARK    1  A    between atoms: C_1  and  C_2
REMARK    2  A    between atoms: C_2  and  N_3
REMARK    3  A    between atoms: C_4  and  C_6
REMARK    4  A    between atoms: C_6  and  C_7
REMARK    5  A    between atoms: C_6  and  N_8
REMARK    6  A    between atoms: C_9  and  C_11
REMARK    7  A    between atoms: C_11  and  C_12
REMARK    8  A    between atoms: C_12  and  C_13
REMARK    9  A    between atoms: C_13  and  C_14
REMARK   10  A    between atoms: C_14  and  C_16
REMARK   11  A    between atoms: C_17  and  C_18
REMARK   12  A    between atoms: C_20  and  C_21
REMARK   13  A    between atoms: C_23  and  C_24
REMARK                            x       y       z     vdW  Elec       q    Type
REMARK                         _______ _______ _______ _____ _____    ______ ____
ROOT
ATOM      1  C   UNL     1       2.084   7.552  17.883  0.00  0.00    +0.000 C 
ENDROOT
BRANCH   1   3
ATOM      2  N   UNL     1       0.960   9.324  19.121  0.00  0.00    +0.000 N 
ATOM      3  C   UNL     1       1.814   9.010  18.094  0.00  0.00    +0.000 C 
ATOM      4  O   UNL     1       2.320   9.876  17.356  0.00  0.00    +0.000 OA
ATOM      5  H   UNL     1       0.246   8.631  19.333  0.00  0.00    +0.000 HD
BRANCH   2   6
ATOM      6  C   UNL     1       0.632  10.727  19.371  0.00  0.00    +0.000 C 
ATOM      7  C   UNL     1      -0.625  11.125  18.603  0.00  0.00    +0.000 C 
BRANCH   6   9
ATOM      8  N   UNL     1      -0.654  11.852  21.163  0.00  0.00    +0.000 N 
ATOM      9  C   UNL     1       0.438  11.072  20.859  0.00  0.00    +0.000 C 
ATOM     10  O   UNL     1       1.237  10.694  21.725  0.00  0.00    +0.000 OA
ATOM     11  H   UNL     1      -1.369  11.989  20.453  0.00  0.00    +0.000 HD
BRANCH   8  13
ATOM     12  C   UNL     1      -1.973  11.565  23.221  0.00  0.00    +0.000 C 
ATOM     13  C   UNL     1      -0.868  12.324  22.511  0.00  0.00    +0.000 C 
ENDBRANCH   8  13
ENDBRANCH   6   9
ENDBRANCH   2   6
ENDBRANCH   1   3
BRANCH   1  14
ATOM     14  C   UNL     1       3.575   7.269  18.075  0.00  0.00    +0.000 C 
BRANCH  14  15
ATOM     15  C   UNL     1       3.833   6.179  19.118  0.00  0.00    +0.000 C 
BRANCH  15  16
ATOM     16  C   UNL     1       5.074   5.354  18.821  0.00  0.00    +0.000 C 
ATOM     17  O   UNL     1       5.757   4.902  19.743  0.00  0.00    +0.000 OA
BRANCH  16  18
ATOM     18  C   UNL     1       5.461   5.038  17.412  0.00  0.00    +0.000 A 
ATOM     19  C   UNL     1       6.536   5.689  16.767  0.00  0.00    +0.000 A 
ATOM     20  C   UNL     1       7.404   6.733  17.392  0.00  0.00    +0.000 C 
ATOM     21  C   UNL     1       6.840   5.355  15.443  0.00  0.00    +0.000 A 
ATOM     22  C   UNL     1       6.150   4.352  14.764  0.00  0.00    +0.000 A 
ATOM     23  C   UNL     1       6.522   3.970  13.363  0.00  0.00    +0.000 C 
ATOM     24  C   UNL     1       5.117   3.679  15.420  0.00  0.00    +0.000 A 
ATOM     25  C   UNL     1       4.751   4.010  16.733  0.00  0.00    +0.000 A 
ATOM     26  C   UNL     1       3.622   3.235  17.368  0.00  0.00    +0.000 C 
ENDBRANCH  16  18
ENDBRANCH  15  16
ENDBRANCH  14  15
ENDBRANCH   1  14
TORSDOF 8
ENDMDL
MODEL 6
REMARK VINA RESULT:      -6.7      6.260      9.798
REMARK  Name = 
REMARK  13 active torsions:
REMARK  status: ('A' for Active; 'I' for Inactive)
REMARK    1  A    between atoms: C_1  and  C_2
REMARK    2  A    between atoms: C_2  and  N_3
REMARK    3  A    between atoms: C_4  and  C_6
REMARK    4  A    between atoms: C_6  and  C_7
REMARK    5  A    between atoms: C_6  and  N_8
REMARK    6  A    between atoms: C_9  and  C_11
REMARK    7  A    between atoms: C_11  and  C_12
REMARK    8  A    between atoms: C_12  and  C_13
REMARK    9  A    between atoms: C_13  and  C_14
REMARK   10  A    between atoms: C_14  and  C_16
REMARK   11  A    between atoms: C_17  and  C_18
REMARK   12  A    between atoms: C_20  and  C_21
REMARK   13  A    between atoms: C_23  and  C_24
REMARK                            x       y       z     vdW  Elec       q    Type
REMARK                         _______ _______ _______ _____ _____    ______ ____
ROOT
ATOM      1  C   UNL     1       8.007   9.733  17.585  0.00  0.00    +0.000 C 
ENDROOT
BRANCH   1   3
ATOM      2  N   UNL     1       6.770   7.681  17.144  0.00  0.00    +0.000 N 
ATOM      3  C   UNL     1       7.789   8.274  17.845  0.00  0.00    +0.000 C 
ATOM      4  O   UNL     1       8.480   7.654  18.674  0.00  0.00    +0.000 OA
ATOM      5  H   UNL     1       5.988   8.284  16.899  0.00  0.00    +0.000 HD
BRANCH   2   6
ATOM      6  C   UNL     1       6.484   6.264  17.365  0.00  0.00    +0.000 C 
ATOM      7  C   UNL     1       4.978   6.033  17.459  0.00  0.00    +0.000 C 
BRANCH   6   9
ATOM      8  N   UNL     1       6.604   5.520  15.007  0.00  0.00    +0.000 N 
ATOM      9  C   UNL     1       7.066   5.329  16.288  0.00  0.00    +0.000 C 
ATOM     10  O   UNL     1       7.877   4.438  16.569  0.00  0.00    +0.000 OA
ATOM     11  H   UNL     1       6.079   6.366  14.797  0.00  0.00    +0.000 HD
BRANCH   8  13
ATOM     12  C   UNL     1       5.852   3.776  13.442  0.00  0.00    +0.000 C 
ATOM     13  C   UNL     1       7.002   4.629  13.941  0.00  0.00    +0.000 C 
ENDBRANCH   8  13
ENDBRANCH   6   9
ENDBRANCH   2   6
ENDBRANCH   1   3
BRANCH   1  14
ATOM     14  C   UNL     1       9.103  10.265  18.509  0.00  0.00    +0.000 C 
BRANCH  14  15
ATOM     15  C   UNL     1      10.254  10.915  17.736  0.00  0.00    +0.000 C 
BRANCH  15  16
ATOM     16  C   UNL     1      10.274  12.429  17.863  0.00  0.00    +0.000 C 
ATOM     17  O   UNL     1      10.700  13.126  16.940  0.00  0.00    +0.000 OA
BRANCH  16  18
ATOM     18  C   UNL     1       9.738  13.099  19.088  0.00  0.00    +0.000 A 
ATOM     19  C   UNL     1       8.512  13.803  19.080  0.00  0.00    +0.000 A 
ATOM     20  C   UNL     1       7.617  13.950  17.891  0.00  0.00    +0.000 C 
ATOM     21  C   UNL     1       8.071  14.418  20.256  0.00  0.00    +0.000 A 
ATOM     22  C   UNL     1       8.779  14.303  21.452  0.00  0.00    +0.000 A 
ATOM     23  C   UNL     1       8.266  14.925  22.716  0.00  0.00    +0.000 C 
ATOM     24  C   UNL     1       9.967  13.569  21.467  0.00  0.00    +0.000 A 
ATOM     25  C   UNL     1      10.468  12.970  20.301  0.00  0.00    +0.000 A 
ATOM     26  C   UNL     1      11.760  12.198  20.404  0.00  0.00    +0.000 C 
ENDBRANCH  16  18
ENDBRANCH  15  16
ENDBRANCH  14  15
ENDBRANCH   1  14
TORSDOF 8
ENDMDL
MODEL 7
REMARK VINA RESULT:      -6.7      1.028      2.096
REMARK  Name = 
REMARK  13 active torsions:
REMARK  status: ('A' for Active; 'I' for Inactive)
REMARK    1  A    between atoms: C_1  and  C_2
REMARK    2  A    between atoms: C_2  and  N_3
REMARK    3  A    between atoms: C_4  and  C_6
REMARK    4  A    between atoms: C_6  and  C_7
REMARK    5  A    between atoms: C_6  and  N_8
REMARK    6  A    between atoms: C_9  and  C_11
REMARK    7  A    between atoms: C_11  and  C_12
REMARK    8  A    between atoms: C_12  and  C_13
REMARK    9  A    between atoms: C_13  and  C_14
REMARK   10  A    between atoms: C_14  and  C_16
REMARK   11  A    between atoms: C_17  and  C_18
REMARK   12  A    between atoms: C_20  and  C_21
REMARK   13  A    between atoms: C_23  and  C_24
REMARK                            x       y       z     vdW  Elec       q    Type
REMARK                         _______ _______ _______ _____ _____    ______ ____
ROOT
ATOM      1  C   UNL     1       1.907   6.187  20.422  0.00  0.00    +0.000 C 
ENDROOT
BRANCH   1   3
ATOM      2  N   UNL     1       1.588   8.258  19.181  0.00  0.00    +0.000 N 
ATOM      3  C   UNL     1       1.663   7.665  20.415  0.00  0.00    +0.000 C 
ATOM      4  O   UNL     1       1.563   8.310  21.476  0.00  0.00    +0.000 OA
ATOM      5  H   UNL     1       2.137   7.823  18.443  0.00  0.00    +0.000 HD
BRANCH   2   6
ATOM      6  C   UNL     1       1.375   9.704  19.098  0.00  0.00    +0.000 C 
ATOM      7  C   UNL     1       2.114  10.283  17.896  0.00  0.00    +0.000 C 
BRANCH   6   9
ATOM      8  N   UNL     1      -0.610  10.327  17.756  0.00  0.00    +0.000 N 
ATOM      9  C   UNL     1      -0.107  10.116  19.018  0.00  0.00    +0.000 C 
ATOM     10  O   UNL     1      -0.793  10.280  20.035  0.00  0.00    +0.000 OA
ATOM     11  H   UNL     1      -0.068  10.014  16.955  0.00  0.00    +0.000 HD
BRANCH   8  13
ATOM     12  C   UNL     1      -2.964   9.704  17.396  0.00  0.00    +0.000 C 
ATOM     13  C   UNL     1      -1.955  10.822  17.573  0.00  0.00    +0.000 C 
ENDBRANCH   8  13
ENDBRANCH   6   9
ENDBRANCH   2   6
ENDBRANCH   1   3
BRANCH   1  14
ATOM     14  C   UNL     1       2.811   5.807  19.249  0.00  0.00    +0.000 C 
BRANCH  14  15
ATOM     15  C   UNL     1       4.272   5.628  19.671  0.00  0.00    +0.000 C 
BRANCH  15  16
ATOM     16  C   UNL     1       4.918   4.393  19.066  0.00  0.00    +0.000 C 
ATOM     17  O   UNL     1       5.003   3.351  19.719  0.00  0.00    +0.000 OA
BRANCH  16  18
ATOM     18  C   UNL     1       5.419   4.406  17.657  0.00  0.00    +0.000 A 
ATOM     19  C   UNL     1       4.615   3.986  16.573  0.00  0.00    +0.000 A 
ATOM     20  C   UNL     1       3.205   3.504  16.689  0.00  0.00    +0.000 C 
ATOM     21  C   UNL     1       5.147   4.012  15.279  0.00  0.00    +0.000 A 
ATOM     22  C   UNL     1       6.428   4.500  15.025  0.00  0.00    +0.000 A 
ATOM     23  C   UNL     1       6.964   4.568  13.626  0.00  0.00    +0.000 C 
ATOM     24  C   UNL     1       7.202   4.956  16.092  0.00  0.00    +0.000 A 
ATOM     25  C   UNL     1       6.725   4.910  17.411  0.00  0.00    +0.000 A 
ATOM     26  C   UNL     1       7.628   5.421  18.507  0.00  0.00    +0.000 C 
ENDBRANCH  16  18
ENDBRANCH  15  16
ENDBRANCH  14  15
ENDBRANCH   1  14
TORSDOF 8
ENDMDL
MODEL 8
REMARK VINA RESULT:      -6.7      1.948      2.997
REMARK  Name = 
REMARK  13 active torsions:
REMARK  status: ('A' for Active; 'I' for Inactive)
REMARK    1  A    between atoms: C_1  and  C_2
REMARK    2  A    between atoms: C_2  and  N_3
REMARK    3  A    between atoms: C_4  and  C_6
REMARK    4  A    between atoms: C_6  and  C_7
REMARK    5  A    between atoms: C_6  and  N_8
REMARK    6  A    between atoms: C_9  and  C_11
REMARK    7  A    between atoms: C_11  and  C_12
REMARK    8  A    between atoms: C_12  and  C_13
REMARK    9  A    between atoms: C_13  and  C_14
REMARK   10  A    between atoms: C_14  and  C_16
REMARK   11  A    between atoms: C_17  and  C_18
REMARK   12  A    between atoms: C_20  and  C_21
REMARK   13  A    between atoms: C_23  and  C_24
REMARK                            x       y       z     vdW  Elec       q    Type
REMARK                         _______ _______ _______ _____ _____    ______ ____
ROOT
ATOM      1  C   UNL     1       2.412   6.906  18.175  0.00  0.00    +0.000 C 
ENDROOT
BRANCH   1   3
ATOM      2  N   UNL     1       1.272   8.704  19.357  0.00  0.00    +0.000 N 
ATOM      3  C   UNL     1       2.017   8.349  18.263  0.00  0.00    +0.000 C 
ATOM      4  O   UNL     1       2.331   9.161  17.374  0.00  0.00    +0.000 OA
ATOM      5  H   UNL     1       0.667   7.980  19.739  0.00  0.00    +0.000 HD
BRANCH   2   6
ATOM      6  C   UNL     1       0.830  10.092  19.498  0.00  0.00    +0.000 C 
ATOM      7  C   UNL     1      -0.505  10.301  18.789  0.00  0.00    +0.000 C 
BRANCH   6   9
ATOM      8  N   UNL     1      -0.524  10.366  21.552  0.00  0.00    +0.000 N 
ATOM      9  C   UNL     1       0.700  10.566  20.957  0.00  0.00    +0.000 C 
ATOM     10  O   UNL     1       1.634  11.123  21.548  0.00  0.00    +0.000 OA
ATOM     11  H   UNL     1      -1.197   9.756  21.094  0.00  0.00    +0.000 HD
BRANCH   8  13
ATOM     12  C   UNL     1      -2.049  11.711  22.939  0.00  0.00    +0.000 C 
ATOM     13  C   UNL     1      -0.788  10.871  22.879  0.00  0.00    +0.000 C 
ENDBRANCH   8  13
ENDBRANCH   6   9
ENDBRANCH   2   6
ENDBRANCH   1   3
BRANCH   1  14
ATOM     14  C   UNL     1       3.582   6.631  19.121  0.00  0.00    +0.000 C 
BRANCH  14  15
ATOM     15  C   UNL     1       3.481   5.257  19.788  0.00  0.00    +0.000 C 
BRANCH  15  16
ATOM     16  C   UNL     1       4.562   4.293  19.328  0.00  0.00    +0.000 C 
ATOM     17  O   UNL     1       4.920   3.365  20.056  0.00  0.00    +0.000 OA
BRANCH  16  18
ATOM     18  C   UNL     1       5.174   4.424  17.970  0.00  0.00    +0.000 A 
ATOM     19  C   UNL     1       4.503   3.996  16.802  0.00  0.00    +0.000 A 
ATOM     20  C   UNL     1       3.137   3.391  16.772  0.00  0.00    +0.000 C 
ATOM     21  C   UNL     1       5.136   4.136  15.562  0.00  0.00    +0.000 A 
ATOM     22  C   UNL     1       6.385   4.744  15.443  0.00  0.00    +0.000 A 
ATOM     23  C   UNL     1       7.027   4.933  14.101  0.00  0.00    +0.000 C 
ATOM     24  C   UNL     1       7.025   5.206  16.593  0.00  0.00    +0.000 A 
ATOM     25  C   UNL     1       6.446   5.049  17.862  0.00  0.00    +0.000 A 
ATOM     26  C   UNL     1       7.207   5.575  19.055  0.00  0.00    +0.000 C 
ENDBRANCH  16  18
ENDBRANCH  15  16
ENDBRANCH  14  15
ENDBRANCH   1  14
TORSDOF 8
ENDMDL
MODEL 9
REMARK VINA RESULT:      -6.6      0.973      1.916
REMARK  Name = 
REMARK  13 active torsions:
REMARK  status: ('A' for Active; 'I' for Inactive)
REMARK    1  A    between atoms: C_1  and  C_2
REMARK    2  A    between atoms: C_2  and  N_3
REMARK    3  A    between atoms: C_4  and  C_6
REMARK    4  A    between atoms: C_6  and  C_7
REMARK    5  A    between atoms: C_6  and  N_8
REMARK    6  A    between atoms: C_9  and  C_11
REMARK    7  A    between atoms: C_11  and  C_12
REMARK    8  A    between atoms: C_12  and  C_13
REMARK    9  A    between atoms: C_13  and  C_14
REMARK   10  A    between atoms: C_14  and  C_16
REMARK   11  A    between atoms: C_17  and  C_18
REMARK   12  A    between atoms: C_20  and  C_21
REMARK   13  A    between atoms: C_23  and  C_24
REMARK                            x       y       z     vdW  Elec       q    Type
REMARK                         _______ _______ _______ _____ _____    ______ ____
ROOT
ATOM      1  C   UNL     1       3.020   7.869  17.780  0.00  0.00    +0.000 C 
ENDROOT
BRANCH   1   3
ATOM      2  N   UNL     1       1.455   9.681  18.232  0.00  0.00    +0.000 N 
ATOM      3  C   UNL     1       2.040   8.532  18.700  0.00  0.00    +0.000 C 
ATOM      4  O   UNL     1       1.800   8.071  19.831  0.00  0.00    +0.000 OA
ATOM      5  H   UNL     1       2.016  10.235  17.588  0.00  0.00    +0.000 HD
BRANCH   2   6
ATOM      6  C   UNL     1       0.506  10.395  19.085  0.00  0.00    +0.000 C 
ATOM      7  C   UNL     1       1.176  11.602  19.734  0.00  0.00    +0.000 C 
BRANCH   6   9
ATOM      8  N   UNL     1      -1.168  10.098  17.285  0.00  0.00    +0.000 N 
ATOM      9  C   UNL     1      -0.767  10.864  18.354  0.00  0.00    +0.000 C 
ATOM     10  O   UNL     1      -1.371  11.890  18.692  0.00  0.00    +0.000 OA
ATOM     11  H   UNL     1      -0.748   9.181  17.156  0.00  0.00    +0.000 HD
BRANCH   8  13
ATOM     12  C   UNL     1      -3.581   9.840  16.876  0.00  0.00    +0.000 C 
ATOM     13  C   UNL     1      -2.284  10.508  16.464  0.00  0.00    +0.000 C 
ENDBRANCH   8  13
ENDBRANCH   6   9
ENDBRANCH   2   6
ENDBRANCH   1   3
BRANCH   1  14
ATOM     14  C   UNL     1       3.131   6.384  18.127  0.00  0.00    +0.000 C 
BRANCH  14  15
ATOM     15  C   UNL     1       4.075   6.128  19.304  0.00  0.00    +0.000 C 
BRANCH  15  16
ATOM     16  C   UNL     1       5.274   5.273  18.929  0.00  0.00    +0.000 C 
ATOM     17  O   UNL     1       6.036   4.850  19.802  0.00  0.00    +0.000 OA
BRANCH  16  18
ATOM     18  C   UNL     1       5.523   4.890  17.505  0.00  0.00    +0.000 A 
ATOM     19  C   UNL     1       4.862   3.799  16.896  0.00  0.00    +0.000 A 
ATOM     20  C   UNL     1       3.853   2.926  17.569  0.00  0.00    +0.000 C 
ATOM     21  C   UNL     1       5.149   3.486  15.563  0.00  0.00    +0.000 A 
ATOM     22  C   UNL     1       6.023   4.261  14.802  0.00  0.00    +0.000 A 
ATOM     23  C   UNL     1       6.280   3.942  13.359  0.00  0.00    +0.000 C 
ATOM     24  C   UNL     1       6.640   5.364  15.393  0.00  0.00    +0.000 A 
ATOM     25  C   UNL     1       6.414   5.691  16.738  0.00  0.00    +0.000 A 
ATOM     26  C   UNL     1       7.123   6.898  17.301  0.00  0.00    +0.000 C 
ENDBRANCH  16  18
ENDBRANCH  15  16
ENDBRANCH  14  15
ENDBRANCH   1  14
TORSDOF 8
ENDMDL
