MODEL 1
REMARK VINA RESULT:      -6.6      0.000      0.000
REMARK  Name = 
REMARK  6 active torsions:
REMARK  status: ('A' for Active; 'I' for Inactive)
REMARK    1  A    between atoms: C_1  and  N_2
REMARK    2  A    between atoms: N_11  and  C_12
REMARK    3  A    between atoms: C_12  and  C_13
REMARK    4  A    between atoms: C_13  and  C_14
REMARK    5  A    between atoms: C_13  and  C_15
REMARK    6  A    between atoms: C_13  and  C_16
REMARK                            x       y       z     vdW  Elec       q    Type
REMARK                         _______ _______ _______ _____ _____    ______ ____
ROOT
ATOM      1  C   UNL     1      -2.148  13.540  20.936  0.00  0.00    +0.000 C 
ATOM      2  N   UNL     1      -1.623  12.174  20.902  0.00  0.00    +0.000 NA
ATOM      3  C   UNL     1      -0.272  12.064  21.512  0.00  0.00    +0.000 C 
ATOM      4  C   UNL     1       0.392  10.670  21.308  0.00  0.00    +0.000 C 
ATOM      5  N   UNL     1       0.475  10.432  19.857  0.00  0.00    +0.000 N 
ATOM      6  C   UNL     1       1.277   9.374  19.413  0.00  0.00    +0.000 A 
ATOM      7  C   UNL     1       1.796   9.470  18.137  0.00  0.00    +0.000 A 
ATOM      8  C   UNL     1       2.517   8.401  17.679  0.00  0.00    +0.000 A 
ATOM      9  N   UNL     1       2.700   7.285  18.395  0.00  0.00    +0.000 NA
ATOM     10  C   UNL     1       2.170   7.272  19.633  0.00  0.00    +0.000 A 
ATOM     11  N   UNL     1       2.272   6.135  20.406  0.00  0.00    +0.000 N 
ATOM     12  N   UNL     1       1.507   8.297  20.182  0.00  0.00    +0.000 NA
ATOM     13  C   UNL     1      -0.877  10.370  19.268  0.00  0.00    +0.000 C 
ATOM     14  C   UNL     1      -1.559  11.730  19.490  0.00  0.00    +0.000 C 
ATOM     15  H   UNL     1       2.273   6.414  21.376  0.00  0.00    +0.000 HD
ENDROOT
BRANCH  11  16
ATOM     16  C   UNL     1       3.122   5.042  19.974  0.00  0.00    +0.000 C 
BRANCH  16  17
ATOM     17  C   UNL     1       2.285   3.768  19.669  0.00  0.00    +0.000 C 
ATOM     18  C   UNL     1       1.141   3.606  20.687  0.00  0.00    +0.000 C 
ATOM     19  C   UNL     1       1.662   3.887  18.263  0.00  0.00    +0.000 C 
ATOM     20  C   UNL     1       3.179   2.517  19.689  0.00  0.00    +0.000 C 
ENDBRANCH  16  17
ENDBRANCH  11  16
TORSDOF 2
ENDMDL
MODEL 2
REMARK VINA RESULT:      -6.6      0.170      1.045
REMARK  Name = 
REMARK  6 active torsions:
REMARK  status: ('A' for Active; 'I' for Inactive)
REMARK    1  A    between atoms: C_1  and  N_2
REMARK    2  A    between atoms: N_11  and  C_12
REMARK    3  A    between atoms: C_12  and  C_13
REMARK    4  A    between atoms: C_13  and  C_14
REMARK    5  A    between atoms: C_13  and  C_15
REMARK    6  A    between atoms: C_13  and  C_16
REMARK                            x       y       z     vdW  Elec       q    Type
REMARK                         _______ _______ _______ _____ _____    ______ ____
ROOT
ATOM      1  C   UNL     1      -2.169  13.404  21.016  0.00  0.00    +0.000 C 
ATOM      2  N   UNL     1      -1.626  12.044  20.977  0.00  0.00    +0.000 NA
ATOM      3  C   UNL     1      -0.263  11.955  21.563  0.00  0.00    +0.000 C 
ATOM      4  C   UNL     1       0.415  10.569  21.351  0.00  0.00    +0.000 C 
ATOM      5  N   UNL     1       0.475  10.326  19.900  0.00  0.00    +0.000 N 
ATOM      6  C   UNL     1       1.282   9.277  19.446  0.00  0.00    +0.000 A 
ATOM      7  C   UNL     1       1.776   9.374  18.159  0.00  0.00    +0.000 A 
ATOM      8  C   UNL     1       2.503   8.313  17.692  0.00  0.00    +0.000 A 
ATOM      9  N   UNL     1       2.713   7.202  18.409  0.00  0.00    +0.000 NA
ATOM     10  C   UNL     1       2.207   7.187  19.657  0.00  0.00    +0.000 A 
ATOM     11  N   UNL     1       2.338   6.055  20.432  0.00  0.00    +0.000 N 
ATOM     12  N   UNL     1       1.541   8.206  20.214  0.00  0.00    +0.000 NA
ATOM     13  C   UNL     1      -0.887  10.244  19.337  0.00  0.00    +0.000 C 
ATOM     14  C   UNL     1      -1.583  11.596  19.566  0.00  0.00    +0.000 C 
ATOM     15  H   UNL     1       2.354   6.338  21.401  0.00  0.00    +0.000 HD
ENDROOT
BRANCH  11  16
ATOM     16  C   UNL     1       3.195   4.972  19.988  0.00  0.00    +0.000 C 
BRANCH  16  17
ATOM     17  C   UNL     1       2.378   3.668  19.764  0.00  0.00    +0.000 C 
ATOM     18  C   UNL     1       3.313   2.450  19.641  0.00  0.00    +0.000 C 
ATOM     19  C   UNL     1       1.442   3.434  20.967  0.00  0.00    +0.000 C 
ATOM     20  C   UNL     1       1.509   3.786  18.500  0.00  0.00    +0.000 C 
ENDBRANCH  16  17
ENDBRANCH  11  16
TORSDOF 2
ENDMDL
MODEL 3
REMARK VINA RESULT:      -6.5      5.685      7.951
REMARK  Name = 
REMARK  6 active torsions:
REMARK  status: ('A' for Active; 'I' for Inactive)
REMARK    1  A    between atoms: C_1  and  N_2
REMARK    2  A    between atoms: N_11  and  C_12
REMARK    3  A    between atoms: C_12  and  C_13
REMARK    4  A    between atoms: C_13  and  C_14
REMARK    5  A    between atoms: C_13  and  C_15
REMARK    6  A    between atoms: C_13  and  C_16
REMARK                            x       y       z     vdW  Elec       q    Type
REMARK                         _______ _______ _______ _____ _____    ______ ____
ROOT
ATOM      1  C   UNL     1       1.145   2.776  21.424  0.00  0.00    +0.000 C 
ATOM      2  N   UNL     1       1.835   2.759  20.133  0.00  0.00    +0.000 NA
ATOM      3  C   UNL     1       3.312   2.679  20.275  0.00  0.00    +0.000 C 
ATOM      4  C   UNL     1       4.077   2.863  18.931  0.00  0.00    +0.000 C 
ATOM      5  N   UNL     1       3.695   4.176  18.383  0.00  0.00    +0.000 N 
ATOM      6  C   UNL     1       4.452   4.688  17.324  0.00  0.00    +0.000 A 
ATOM      7  C   UNL     1       4.480   6.061  17.176  0.00  0.00    +0.000 A 
ATOM      8  C   UNL     1       5.160   6.555  16.096  0.00  0.00    +0.000 A 
ATOM      9  N   UNL     1       5.750   5.771  15.187  0.00  0.00    +0.000 NA
ATOM     10  C   UNL     1       5.687   4.443  15.405  0.00  0.00    +0.000 A 
ATOM     11  N   UNL     1       6.225   3.573  14.481  0.00  0.00    +0.000 N 
ATOM     12  N   UNL     1       5.099   3.880  16.468  0.00  0.00    +0.000 NA
ATOM     13  C   UNL     1       2.251   4.204  18.080  0.00  0.00    +0.000 C 
ATOM     14  C   UNL     1       1.480   3.992  19.394  0.00  0.00    +0.000 C 
ATOM     15  H   UNL     1       6.515   2.738  14.968  0.00  0.00    +0.000 HD
ENDROOT
BRANCH  11  16
ATOM     16  C   UNL     1       7.037   4.087  13.395  0.00  0.00    +0.000 C 
BRANCH  16  17
ATOM     17  C   UNL     1       6.513   3.587  12.019  0.00  0.00    +0.000 C 
ATOM     18  C   UNL     1       4.978   3.466  12.028  0.00  0.00    +0.000 C 
ATOM     19  C   UNL     1       6.908   4.594  10.921  0.00  0.00    +0.000 C 
ATOM     20  C   UNL     1       7.139   2.227  11.665  0.00  0.00    +0.000 C 
ENDBRANCH  16  17
ENDBRANCH  11  16
TORSDOF 2
ENDMDL
MODEL 4
REMARK VINA RESULT:      -6.5      5.671      7.952
REMARK  Name = 
REMARK  6 active torsions:
REMARK  status: ('A' for Active; 'I' for Inactive)
REMARK    1  A    between atoms: C_1  and  N_2
REMARK    2  A    between atoms: N_11  and  C_12
REMARK    3  A    between atoms: C_12  and  C_13
REMARK    4  A    between atoms: C_13  and  C_14
REMARK    5  A    between atoms: C_13  and  C_15
REMARK    6  A    between atoms: C_13  and  C_16
REMARK                            x       y       z     vdW  Elec       q    Type
REMARK                         _______ _______ _______ _____ _____    ______ ____
ROOT
ATOM      1  C   UNL     1       1.242   2.792  21.625  0.00  0.00    +0.000 C 
ATOM      2  N   UNL     1       1.910   2.771  20.322  0.00  0.00    +0.000 NA
ATOM      3  C   UNL     1       3.389   2.678  20.438  0.00  0.00    +0.000 C 
ATOM      4  C   UNL     1       4.132   2.859  19.082  0.00  0.00    +0.000 C 
ATOM      5  N   UNL     1       3.753   4.176  18.545  0.00  0.00    +0.000 N 
ATOM      6  C   UNL     1       4.497   4.685  17.475  0.00  0.00    +0.000 A 
ATOM      7  C   UNL     1       4.534   6.058  17.330  0.00  0.00    +0.000 A 
ATOM      8  C   UNL     1       5.200   6.548  16.240  0.00  0.00    +0.000 A 
ATOM      9  N   UNL     1       5.768   5.762  15.318  0.00  0.00    +0.000 NA
ATOM     10  C   UNL     1       5.696   4.434  15.534  0.00  0.00    +0.000 A 
ATOM     11  N   UNL     1       6.211   3.562  14.599  0.00  0.00    +0.000 N 
ATOM     12  N   UNL     1       5.121   3.873  16.605  0.00  0.00    +0.000 NA
ATOM     13  C   UNL     1       2.304   4.219  18.266  0.00  0.00    +0.000 C 
ATOM     14  C   UNL     1       1.554   4.010  19.592  0.00  0.00    +0.000 C 
ATOM     15  H   UNL     1       6.501   2.723  15.079  0.00  0.00    +0.000 HD
ENDROOT
BRANCH  11  16
ATOM     16  C   UNL     1       7.009   4.071  13.500  0.00  0.00    +0.000 C 
BRANCH  16  17
ATOM     17  C   UNL     1       6.414   3.641  12.130  0.00  0.00    +0.000 C 
ATOM     18  C   UNL     1       6.893   4.578  11.005  0.00  0.00    +0.000 C 
ATOM     19  C   UNL     1       6.881   2.210  11.793  0.00  0.00    +0.000 C 
ATOM     20  C   UNL     1       4.877   3.640  12.184  0.00  0.00    +0.000 C 
ENDBRANCH  16  17
ENDBRANCH  11  16
TORSDOF 2
ENDMDL
MODEL 5
REMARK VINA RESULT:      -6.3      0.692      1.066
REMARK  Name = 
REMARK  6 active torsions:
REMARK  status: ('A' for Active; 'I' for Inactive)
REMARK    1  A    between atoms: C_1  and  N_2
REMARK    2  A    between atoms: N_11  and  C_12
REMARK    3  A    between atoms: C_12  and  C_13
REMARK    4  A    between atoms: C_13  and  C_14
REMARK    5  A    between atoms: C_13  and  C_15
REMARK    6  A    between atoms: C_13  and  C_16
REMARK                            x       y       z     vdW  Elec       q    Type
REMARK                         _______ _______ _______ _____ _____    ______ ____
ROOT
ATOM      1  C   UNL     1      -1.901  13.363  20.122  0.00  0.00    +0.000 C 
ATOM      2  N   UNL     1      -1.409  11.989  20.246  0.00  0.00    +0.000 NA
ATOM      3  C   UNL     1      -0.077  11.915  20.900  0.00  0.00    +0.000 C 
ATOM      4  C   UNL     1       0.557  10.493  20.862  0.00  0.00    +0.000 C 
ATOM      5  N   UNL     1       0.670  10.100  19.447  0.00  0.00    +0.000 N 
ATOM      6  C   UNL     1       1.456   8.985  19.138  0.00  0.00    +0.000 A 
ATOM      7  C   UNL     1       2.008   8.933  17.873  0.00  0.00    +0.000 A 
ATOM      8  C   UNL     1       2.714   7.806  17.550  0.00  0.00    +0.000 A 
ATOM      9  N   UNL     1       2.851   6.768  18.384  0.00  0.00    +0.000 NA
ATOM     10  C   UNL     1       2.292   6.898  19.602  0.00  0.00    +0.000 A 
ATOM     11  N   UNL     1       2.346   5.848  20.493  0.00  0.00    +0.000 N 
ATOM     12  N   UNL     1       1.641   7.990  20.022  0.00  0.00    +0.000 NA
ATOM     13  C   UNL     1      -0.669  10.006  18.832  0.00  0.00    +0.000 C 
ATOM     14  C   UNL     1      -1.322  11.397  18.891  0.00  0.00    +0.000 C 
ATOM     15  H   UNL     1       2.330   6.228  21.428  0.00  0.00    +0.000 HD
ENDROOT
BRANCH  11  16
ATOM     16  C   UNL     1       3.179   4.697  20.201  0.00  0.00    +0.000 C 
BRANCH  16  17
ATOM     17  C   UNL     1       2.359   3.378  20.274  0.00  0.00    +0.000 C 
ATOM     18  C   UNL     1       1.151   3.430  19.320  0.00  0.00    +0.000 C 
ATOM     19  C   UNL     1       3.251   2.193  19.853  0.00  0.00    +0.000 C 
ATOM     20  C   UNL     1       1.874   3.122  21.711  0.00  0.00    +0.000 C 
ENDBRANCH  16  17
ENDBRANCH  11  16
TORSDOF 2
ENDMDL
MODEL 6
REMARK VINA RESULT:      -6.2      2.569      3.831
REMARK  Name = 
REMARK  6 active torsions:
REMARK  status: ('A' for Active; 'I' for Inactive)
REMARK    1  A    between atoms: C_1  and  N_2
REMARK    2  A    between atoms: N_11  and  C_12
REMARK    3  A    between atoms: C_12  and  C_13
REMARK    4  A    between atoms: C_13  and  C_14
REMARK    5  A    between atoms: C_13  and  C_15
REMARK    6  A    between atoms: C_13  and  C_16
REMARK                            x       y       z     vdW  Elec       q    Type
REMARK                         _______ _______ _______ _____ _____    ______ ____
ROOT
ATOM      1  C   UNL     1      -1.040  11.522  22.662  0.00  0.00    +0.000 C 
ATOM      2  N   UNL     1       0.055  10.854  21.955  0.00  0.00    +0.000 NA
ATOM      3  C   UNL     1      -0.332  10.405  20.593  0.00  0.00    +0.000 C 
ATOM      4  C   UNL     1       0.744   9.517  19.900  0.00  0.00    +0.000 C 
ATOM      5  N   UNL     1       0.976   8.350  20.768  0.00  0.00    +0.000 N 
ATOM      6  C   UNL     1       1.695   7.274  20.237  0.00  0.00    +0.000 A 
ATOM      7  C   UNL     1       1.458   6.027  20.782  0.00  0.00    +0.000 A 
ATOM      8  C   UNL     1       2.216   4.990  20.312  0.00  0.00    +0.000 A 
ATOM      9  N   UNL     1       3.178   5.148  19.395  0.00  0.00    +0.000 NA
ATOM     10  C   UNL     1       3.343   6.392  18.905  0.00  0.00    +0.000 A 
ATOM     11  N   UNL     1       4.351   6.639  17.999  0.00  0.00    +0.000 N 
ATOM     12  N   UNL     1       2.603   7.448  19.262  0.00  0.00    +0.000 NA
ATOM     13  C   UNL     1       1.524   8.779  22.069  0.00  0.00    +0.000 C 
ATOM     14  C   UNL     1       0.485   9.683  22.753  0.00  0.00    +0.000 C 
ATOM     15  H   UNL     1       4.064   7.409  17.413  0.00  0.00    +0.000 HD
ENDROOT
BRANCH  11  16
ATOM     16  C   UNL     1       5.086   5.532  17.417  0.00  0.00    +0.000 C 
BRANCH  16  17
ATOM     17  C   UNL     1       6.600   5.625  17.757  0.00  0.00    +0.000 C 
ATOM     18  C   UNL     1       7.401   4.551  16.997  0.00  0.00    +0.000 C 
ATOM     19  C   UNL     1       7.137   7.009  17.339  0.00  0.00    +0.000 C 
ATOM     20  C   UNL     1       6.825   5.465  19.271  0.00  0.00    +0.000 C 
ENDBRANCH  16  17
ENDBRANCH  11  16
TORSDOF 2
ENDMDL
MODEL 7
REMARK VINA RESULT:      -6.1      5.476      8.165
REMARK  Name = 
REMARK  6 active torsions:
REMARK  status: ('A' for Active; 'I' for Inactive)
REMARK    1  A    between atoms: C_1  and  N_2
REMARK    2  A    between atoms: N_11  and  C_12
REMARK    3  A    between atoms: C_12  and  C_13
REMARK    4  A    between atoms: C_13  and  C_14
REMARK    5  A    between atoms: C_13  and  C_15
REMARK    6  A    between atoms: C_13  and  C_16
REMARK                            x       y       z     vdW  Elec       q    Type
REMARK                         _______ _______ _______ _____ _____    ______ ____
ROOT
ATOM      1  C   UNL     1       1.453   3.309  21.505  0.00  0.00    +0.000 C 
ATOM      2  N   UNL     1       2.046   3.364  20.168  0.00  0.00    +0.000 NA
ATOM      3  C   UNL     1       3.253   2.508  20.041  0.00  0.00    +0.000 C 
ATOM      4  C   UNL     1       4.017   2.704  18.698  0.00  0.00    +0.000 C 
ATOM      5  N   UNL     1       4.396   4.124  18.610  0.00  0.00    +0.000 N 
ATOM      6  C   UNL     1       5.324   4.494  17.630  0.00  0.00    +0.000 A 
ATOM      7  C   UNL     1       6.078   5.626  17.872  0.00  0.00    +0.000 A 
ATOM      8  C   UNL     1       6.930   6.026  16.879  0.00  0.00    +0.000 A 
ATOM      9  N   UNL     1       7.026   5.396  15.703  0.00  0.00    +0.000 NA
ATOM     10  C   UNL     1       6.265   4.295  15.547  0.00  0.00    +0.000 A 
ATOM     11  N   UNL     1       6.272   3.627  14.341  0.00  0.00    +0.000 N 
ATOM     12  N   UNL     1       5.454   3.798  16.489  0.00  0.00    +0.000 NA
ATOM     13  C   UNL     1       3.191   4.975  18.564  0.00  0.00    +0.000 C 
ATOM     14  C   UNL     1       2.409   4.769  19.872  0.00  0.00    +0.000 C 
ATOM     15  H   UNL     1       6.068   2.655  14.520  0.00  0.00    +0.000 HD
ENDROOT
BRANCH  11  16
ATOM     16  C   UNL     1       7.247   3.979  13.327  0.00  0.00    +0.000 C 
BRANCH  16  17
ATOM     17  C   UNL     1       6.717   3.650  11.903  0.00  0.00    +0.000 C 
ATOM     18  C   UNL     1       7.291   2.313  11.399  0.00  0.00    +0.000 C 
ATOM     19  C   UNL     1       5.180   3.527  11.942  0.00  0.00    +0.000 C 
ATOM     20  C   UNL     1       7.080   4.775  10.918  0.00  0.00    +0.000 C 
ENDBRANCH  16  17
ENDBRANCH  11  16
TORSDOF 2
ENDMDL
MODEL 8
REMARK VINA RESULT:      -5.9      2.616      3.891
REMARK  Name = 
REMARK  6 active torsions:
REMARK  status: ('A' for Active; 'I' for Inactive)
REMARK    1  A    between atoms: C_1  and  N_2
REMARK    2  A    between atoms: N_11  and  C_12
REMARK    3  A    between atoms: C_12  and  C_13
REMARK    4  A    between atoms: C_13  and  C_14
REMARK    5  A    between atoms: C_13  and  C_15
REMARK    6  A    between atoms: C_13  and  C_16
REMARK                            x       y       z     vdW  Elec       q    Type
REMARK                         _______ _______ _______ _____ _____    ______ ____
ROOT
ATOM      1  C   UNL     1      -1.015  11.561  22.577  0.00  0.00    +0.000 C 
ATOM      2  N   UNL     1       0.088  10.858  21.918  0.00  0.00    +0.000 NA
ATOM      3  C   UNL     1      -0.254  10.421  20.539  0.00  0.00    +0.000 C 
ATOM      4  C   UNL     1       0.821   9.499  19.893  0.00  0.00    +0.000 C 
ATOM      5  N   UNL     1       0.976   8.324  20.768  0.00  0.00    +0.000 N 
ATOM      6  C   UNL     1       1.682   7.225  20.268  0.00  0.00    +0.000 A 
ATOM      7  C   UNL     1       1.379   5.987  20.800  0.00  0.00    +0.000 A 
ATOM      8  C   UNL     1       2.123   4.925  20.362  0.00  0.00    +0.000 A 
ATOM      9  N   UNL     1       3.128   5.051  19.488  0.00  0.00    +0.000 NA
ATOM     10  C   UNL     1       3.357   6.289  19.009  0.00  0.00    +0.000 A 
ATOM     11  N   UNL     1       4.411   6.502  18.147  0.00  0.00    +0.000 N 
ATOM     12  N   UNL     1       2.637   7.369  19.334  0.00  0.00    +0.000 NA
ATOM     13  C   UNL     1       1.480   8.735  22.093  0.00  0.00    +0.000 C 
ATOM     14  C   UNL     1       0.443   9.672  22.732  0.00  0.00    +0.000 C 
ATOM     15  H   UNL     1       4.176   7.282  17.551  0.00  0.00    +0.000 HD
ENDROOT
BRANCH  11  16
ATOM     16  C   UNL     1       5.134   5.371  17.597  0.00  0.00    +0.000 C 
BRANCH  16  17
ATOM     17  C   UNL     1       6.667   5.629  17.606  0.00  0.00    +0.000 C 
ATOM     18  C   UNL     1       6.979   7.095  17.254  0.00  0.00    +0.000 C 
ATOM     19  C   UNL     1       7.228   5.344  19.014  0.00  0.00    +0.000 C 
ATOM     20  C   UNL     1       7.378   4.693  16.613  0.00  0.00    +0.000 C 
ENDBRANCH  16  17
ENDBRANCH  11  16
TORSDOF 2
ENDMDL
MODEL 9
REMARK VINA RESULT:      -5.7      1.448      7.197
REMARK  Name = 
REMARK  6 active torsions:
REMARK  status: ('A' for Active; 'I' for Inactive)
REMARK    1  A    between atoms: C_1  and  N_2
REMARK    2  A    between atoms: N_11  and  C_12
REMARK    3  A    between atoms: C_12  and  C_13
REMARK    4  A    between atoms: C_13  and  C_14
REMARK    5  A    between atoms: C_13  and  C_15
REMARK    6  A    between atoms: C_13  and  C_16
REMARK                            x       y       z     vdW  Elec       q    Type
REMARK                         _______ _______ _______ _____ _____    ______ ____
ROOT
ATOM      1  C   UNL     1       4.126   2.158  19.600  0.00  0.00    +0.000 C 
ATOM      2  N   UNL     1       3.787   3.512  20.044  0.00  0.00    +0.000 NA
ATOM      3  C   UNL     1       2.321   3.743  20.109  0.00  0.00    +0.000 C 
ATOM      4  C   UNL     1       1.937   5.228  20.381  0.00  0.00    +0.000 C 
ATOM      5  N   UNL     1       2.526   6.039  19.303  0.00  0.00    +0.000 N 
ATOM      6  C   UNL     1       2.097   7.365  19.173  0.00  0.00    +0.000 A 
ATOM      7  C   UNL     1       2.194   7.938  17.920  0.00  0.00    +0.000 A 
ATOM      8  C   UNL     1       1.843   9.256  17.812  0.00  0.00    +0.000 A 
ATOM      9  N   UNL     1       1.456   9.995  18.859  0.00  0.00    +0.000 NA
ATOM     10  C   UNL     1       1.379   9.362  20.046  0.00  0.00    +0.000 A 
ATOM     11  N   UNL     1       1.041  10.073  21.177  0.00  0.00    +0.000 N 
ATOM     12  N   UNL     1       1.641   8.062  20.227  0.00  0.00    +0.000 NA
ATOM     13  C   UNL     1       3.999   5.948  19.339  0.00  0.00    +0.000 C 
ATOM     14  C   UNL     1       4.395   4.481  19.103  0.00  0.00    +0.000 C 
ATOM     15  H   UNL     1       0.586   9.443  21.820  0.00  0.00    +0.000 HD
ENDROOT
BRANCH  11  16
ATOM     16  C   UNL     1       0.566  11.439  21.055  0.00  0.00    +0.000 C 
BRANCH  16  17
ATOM     17  C   UNL     1      -0.733  11.655  21.881  0.00  0.00    +0.000 C 
ATOM     18  C   UNL     1      -0.908  10.542  22.931  0.00  0.00    +0.000 C 
ATOM     19  C   UNL     1      -0.653  13.004  22.623  0.00  0.00    +0.000 C 
ATOM     20  C   UNL     1      -1.961  11.692  20.955  0.00  0.00    +0.000 C 
ENDBRANCH  16  17
ENDBRANCH  11  16
TORSDOF 2
ENDMDL
