MODEL 1
REMARK VINA RESULT:      -6.7      0.000      0.000
REMARK  Name = 
REMARK  4 active torsions:
REMARK  status: ('A' for Active; 'I' for Inactive)
REMARK    1  A    between atoms: C_1  and  O_2
REMARK    2  A    between atoms: O_2  and  C_3
REMARK    3  A    between atoms: C_7  and  C_8
REMARK    4  A    between atoms: C_22  and  C_23
REMARK                            x       y       z     vdW  Elec       q    Type
REMARK                         _______ _______ _______ _____ _____    ______ ____
ROOT
ATOM      1  C   UNL     1      -0.640  10.919  19.009  0.00  0.00    +0.000 A 
ATOM      2  C   UNL     1      -0.737  10.598  20.360  0.00  0.00    +0.000 A 
ATOM      3  C   UNL     1       0.253  11.017  21.221  0.00  0.00    +0.000 A 
ATOM      4  C   UNL     1       0.983  12.105  20.814  0.00  0.00    +0.000 A 
ATOM      5  C   UNL     1       1.323  12.170  19.482  0.00  0.00    +0.000 A 
ATOM      6  C   UNL     1       2.368  13.070  19.234  0.00  0.00    +0.000 A 
ATOM      7  C   UNL     1       2.531  14.247  20.021  0.00  0.00    +0.000 A 
ATOM      8  C   UNL     1       1.434  14.507  20.855  0.00  0.00    +0.000 A 
ATOM      9  S   UNL     1       0.688  16.013  21.343  0.00  0.00    +0.000 S 
ATOM     10  C   UNL     1      -0.707  15.177  21.928  0.00  0.00    +0.000 A 
ATOM     11  C   UNL     1      -0.314  13.895  22.193  0.00  0.00    +0.000 A 
ATOM     12  C   UNL     1       0.743  13.418  21.352  0.00  0.00    +0.000 A 
ATOM     13  N   UNL     1      -1.090  13.111  22.959  0.00  0.00    +0.000 N 
ATOM     14  C   UNL     1      -2.295  12.733  22.275  0.00  0.00    +0.000 C 
ATOM     15  C   UNL     1      -3.452  13.636  21.886  0.00  0.00    +0.000 C 
ATOM     16  C   UNL     1      -4.689  12.866  22.435  0.00  0.00    +0.000 C 
ATOM     17  N   UNL     1      -3.209  15.033  22.272  0.00  0.00    +0.000 N 
ATOM     18  C   UNL     1      -2.024  15.810  22.123  0.00  0.00    +0.000 C 
ATOM     19  O   UNL     1      -2.215  17.037  22.043  0.00  0.00    +0.000 OA
ATOM     20  N   UNL     1       0.502  11.554  18.547  0.00  0.00    +0.000 NA
ATOM     21  H   UNL     1      -0.602  12.231  23.245  0.00  0.00    +0.000 HD
ATOM     22  H   UNL     1      -4.036  15.627  22.210  0.00  0.00    +0.000 HD
ENDROOT
BRANCH   1  27
ATOM     23  C   UNL     1      -4.130  11.481  17.505  0.00  0.00    +0.000 A 
ATOM     24  C   UNL     1      -4.067  10.694  16.363  0.00  0.00    +0.000 A 
ATOM     25  C   UNL     1      -2.935   9.916  16.111  0.00  0.00    +0.000 A 
ATOM     26  C   UNL     1      -1.836   9.936  16.982  0.00  0.00    +0.000 A 
ATOM     27  C   UNL     1      -1.843  10.731  18.138  0.00  0.00    +0.000 A 
ATOM     28  C   UNL     1      -3.047  11.463  18.387  0.00  0.00    +0.000 A 
BRANCH  23  30
ATOM     29  C   UNL     1      -6.478  11.529  18.008  0.00  0.00    +0.000 C 
ATOM     30  O   UNL     1      -5.282  12.208  17.647  0.00  0.00    +0.000 OA
ENDBRANCH  23  30
ENDBRANCH   1  27
TORSDOF 2
ENDMDL
MODEL 2
REMARK VINA RESULT:      -6.7      8.585     10.654
REMARK  Name = 
REMARK  4 active torsions:
REMARK  status: ('A' for Active; 'I' for Inactive)
REMARK    1  A    between atoms: C_1  and  O_2
REMARK    2  A    between atoms: O_2  and  C_3
REMARK    3  A    between atoms: C_7  and  C_8
REMARK    4  A    between atoms: C_22  and  C_23
REMARK                            x       y       z     vdW  Elec       q    Type
REMARK                         _______ _______ _______ _____ _____    ______ ____
ROOT
ATOM      1  C   UNL     1       8.998  12.686  22.682  0.00  0.00    +0.000 A 
ATOM      2  C   UNL     1       9.618  13.878  22.315  0.00  0.00    +0.000 A 
ATOM      3  C   UNL     1      10.320  13.931  21.131  0.00  0.00    +0.000 A 
ATOM      4  C   UNL     1       9.963  13.009  20.179  0.00  0.00    +0.000 A 
ATOM      5  C   UNL     1       9.678  11.736  20.614  0.00  0.00    +0.000 A 
ATOM      6  C   UNL     1       9.712  10.790  19.580  0.00  0.00    +0.000 A 
ATOM      7  C   UNL     1       9.338  11.138  18.249  0.00  0.00    +0.000 A 
ATOM      8  C   UNL     1       8.725  12.397  18.162  0.00  0.00    +0.000 A 
ATOM      9  S   UNL     1       7.419  12.975  17.151  0.00  0.00    +0.000 S 
ATOM     10  C   UNL     1       7.227  14.382  18.137  0.00  0.00    +0.000 A 
ATOM     11  C   UNL     1       8.417  14.574  18.783  0.00  0.00    +0.000 A 
ATOM     12  C   UNL     1       9.140  13.368  19.053  0.00  0.00    +0.000 A 
ATOM     13  N   UNL     1       8.673  15.761  19.356  0.00  0.00    +0.000 N 
ATOM     14  C   UNL     1       7.863  15.966  20.524  0.00  0.00    +0.000 C 
ATOM     15  C   UNL     1       6.360  16.176  20.574  0.00  0.00    +0.000 C 
ATOM     16  C   UNL     1       6.219  17.451  21.455  0.00  0.00    +0.000 C 
ATOM     17  N   UNL     1       5.755  16.120  19.236  0.00  0.00    +0.000 N 
ATOM     18  C   UNL     1       5.998  15.194  18.182  0.00  0.00    +0.000 C 
ATOM     19  O   UNL     1       5.046  15.042  17.395  0.00  0.00    +0.000 OA
ATOM     20  N   UNL     1       9.192  11.557  21.903  0.00  0.00    +0.000 NA
ATOM     21  H   UNL     1       9.673  15.850  19.648  0.00  0.00    +0.000 HD
ATOM     22  H   UNL     1       4.791  16.451  19.207  0.00  0.00    +0.000 HD
ENDROOT
BRANCH   1  27
ATOM     23  C   UNL     1       6.092  11.603  24.949  0.00  0.00    +0.000 A 
ATOM     24  C   UNL     1       6.251  12.462  26.028  0.00  0.00    +0.000 A 
ATOM     25  C   UNL     1       7.240  13.447  25.998  0.00  0.00    +0.000 A 
ATOM     26  C   UNL     1       8.107  13.569  24.902  0.00  0.00    +0.000 A 
ATOM     27  C   UNL     1       8.000  12.711  23.798  0.00  0.00    +0.000 A 
ATOM     28  C   UNL     1       6.933  11.758  23.845  0.00  0.00    +0.000 A 
BRANCH  23  30
ATOM     29  C   UNL     1       4.584  10.411  26.389  0.00  0.00    +0.000 C 
ATOM     30  O   UNL     1       5.098  10.671  25.089  0.00  0.00    +0.000 OA
ENDBRANCH  23  30
ENDBRANCH   1  27
TORSDOF 2
ENDMDL
MODEL 3
REMARK VINA RESULT:      -6.6      7.909     10.494
REMARK  Name = 
REMARK  4 active torsions:
REMARK  status: ('A' for Active; 'I' for Inactive)
REMARK    1  A    between atoms: C_1  and  O_2
REMARK    2  A    between atoms: O_2  and  C_3
REMARK    3  A    between atoms: C_7  and  C_8
REMARK    4  A    between atoms: C_22  and  C_23
REMARK                            x       y       z     vdW  Elec       q    Type
REMARK                         _______ _______ _______ _____ _____    ______ ____
ROOT
ATOM      1  C   UNL     1       2.422   6.365  19.241  0.00  0.00    +0.000 A 
ATOM      2  C   UNL     1       3.559   6.103  20.000  0.00  0.00    +0.000 A 
ATOM      3  C   UNL     1       4.036   4.813  20.070  0.00  0.00    +0.000 A 
ATOM      4  C   UNL     1       3.686   3.986  19.032  0.00  0.00    +0.000 A 
ATOM      5  C   UNL     1       2.401   4.092  18.552  0.00  0.00    +0.000 A 
ATOM      6  C   UNL     1       2.013   2.980  17.793  0.00  0.00    +0.000 A 
ATOM      7  C   UNL     1       2.959   2.255  17.009  0.00  0.00    +0.000 A 
ATOM      8  C   UNL     1       4.196   2.908  16.899  0.00  0.00    +0.000 A 
ATOM      9  S   UNL     1       5.328   3.014  15.568  0.00  0.00    +0.000 S 
ATOM     10  C   UNL     1       6.166   4.316  16.335  0.00  0.00    +0.000 A 
ATOM     11  C   UNL     1       5.895   4.225  17.671  0.00  0.00    +0.000 A 
ATOM     12  C   UNL     1       4.610   3.671  17.974  0.00  0.00    +0.000 A 
ATOM     13  N   UNL     1       6.661   4.893  18.548  0.00  0.00    +0.000 N 
ATOM     14  C   UNL     1       6.435   6.310  18.472  0.00  0.00    +0.000 C 
ATOM     15  C   UNL     1       6.798   7.237  17.325  0.00  0.00    +0.000 C 
ATOM     16  C   UNL     1       7.559   8.390  18.042  0.00  0.00    +0.000 C 
ATOM     17  N   UNL     1       7.419   6.510  16.209  0.00  0.00    +0.000 N 
ATOM     18  C   UNL     1       7.029   5.273  15.620  0.00  0.00    +0.000 C 
ATOM     19  O   UNL     1       7.368   5.137  14.430  0.00  0.00    +0.000 OA
ATOM     20  N   UNL     1       1.738   5.307  18.665  0.00  0.00    +0.000 NA
ATOM     21  H   UNL     1       6.480   4.600  19.536  0.00  0.00    +0.000 HD
ATOM     22  H   UNL     1       7.853   7.117  15.514  0.00  0.00    +0.000 HD
ENDROOT
BRANCH   1  27
ATOM     23  C   UNL     1       1.177   9.970  19.710  0.00  0.00    +0.000 A 
ATOM     24  C   UNL     1       1.671  10.581  18.565  0.00  0.00    +0.000 A 
ATOM     25  C   UNL     1       2.336   9.823  17.598  0.00  0.00    +0.000 A 
ATOM     26  C   UNL     1       2.544   8.448  17.775  0.00  0.00    +0.000 A 
ATOM     27  C   UNL     1       2.083   7.788  18.924  0.00  0.00    +0.000 A 
ATOM     28  C   UNL     1       1.355   8.592  19.857  0.00  0.00    +0.000 A 
BRANCH  23  30
ATOM     29  C   UNL     1       0.032  10.263  21.799  0.00  0.00    +0.000 C 
ATOM     30  O   UNL     1       0.551  10.808  20.593  0.00  0.00    +0.000 OA
ENDBRANCH  23  30
ENDBRANCH   1  27
TORSDOF 2
ENDMDL
MODEL 4
REMARK VINA RESULT:      -6.6      7.022     10.040
REMARK  Name = 
REMARK  4 active torsions:
REMARK  status: ('A' for Active; 'I' for Inactive)
REMARK    1  A    between atoms: C_1  and  O_2
REMARK    2  A    between atoms: O_2  and  C_3
REMARK    3  A    between atoms: C_7  and  C_8
REMARK    4  A    between atoms: C_22  and  C_23
REMARK                            x       y       z     vdW  Elec       q    Type
REMARK                         _______ _______ _______ _____ _____    ______ ____
ROOT
ATOM      1  C   UNL     1       7.916  14.779  17.996  0.00  0.00    +0.000 A 
ATOM      2  C   UNL     1       8.125  16.003  18.626  0.00  0.00    +0.000 A 
ATOM      3  C   UNL     1       7.054  16.846  18.825  0.00  0.00    +0.000 A 
ATOM      4  C   UNL     1       5.818  16.252  18.852  0.00  0.00    +0.000 A 
ATOM      5  C   UNL     1       5.586  15.243  17.945  0.00  0.00    +0.000 A 
ATOM      6  C   UNL     1       4.222  14.972  17.774  0.00  0.00    +0.000 A 
ATOM      7  C   UNL     1       3.299  15.124  18.849  0.00  0.00    +0.000 A 
ATOM      8  C   UNL     1       3.926  15.320  20.089  0.00  0.00    +0.000 A 
ATOM      9  S   UNL     1       3.502  14.771  21.695  0.00  0.00    +0.000 S 
ATOM     10  C   UNL     1       5.074  15.171  22.290  0.00  0.00    +0.000 A 
ATOM     11  C   UNL     1       5.585  16.116  21.444  0.00  0.00    +0.000 A 
ATOM     12  C   UNL     1       5.128  16.002  20.091  0.00  0.00    +0.000 A 
ATOM     13  N   UNL     1       6.641  16.848  21.832  0.00  0.00    +0.000 N 
ATOM     14  C   UNL     1       7.840  16.060  21.877  0.00  0.00    +0.000 C 
ATOM     15  C   UNL     1       8.164  14.934  22.843  0.00  0.00    +0.000 C 
ATOM     16  C   UNL     1       9.575  15.327  23.370  0.00  0.00    +0.000 C 
ATOM     17  N   UNL     1       7.059  14.682  23.779  0.00  0.00    +0.000 N 
ATOM     18  C   UNL     1       5.662  14.596  23.512  0.00  0.00    +0.000 C 
ATOM     19  O   UNL     1       5.023  13.896  24.319  0.00  0.00    +0.000 OA
ATOM     20  N   UNL     1       6.659  14.488  17.490  0.00  0.00    +0.000 NA
ATOM     21  H   UNL     1       6.820  17.655  21.190  0.00  0.00    +0.000 HD
ATOM     22  H   UNL     1       7.312  14.079  24.561  0.00  0.00    +0.000 HD
ENDROOT
BRANCH   1  27
ATOM     23  C   UNL     1       9.650  11.384  18.470  0.00  0.00    +0.000 A 
ATOM     24  C   UNL     1      10.891  11.628  17.898  0.00  0.00    +0.000 A 
ATOM     25  C   UNL     1      11.207  12.905  17.430  0.00  0.00    +0.000 A 
ATOM     26  C   UNL     1      10.276  13.951  17.499  0.00  0.00    +0.000 A 
ATOM     27  C   UNL     1       9.001  13.750  18.049  0.00  0.00    +0.000 A 
ATOM     28  C   UNL     1       8.744  12.442  18.571  0.00  0.00    +0.000 A 
BRANCH  23  30
ATOM     29  C   UNL     1       8.469   9.309  18.214  0.00  0.00    +0.000 C 
ATOM     30  O   UNL     1       9.444  10.095  18.886  0.00  0.00    +0.000 OA
ENDBRANCH  23  30
ENDBRANCH   1  27
TORSDOF 2
ENDMDL
MODEL 5
REMARK VINA RESULT:      -6.6      2.499      3.565
REMARK  Name = 
REMARK  4 active torsions:
REMARK  status: ('A' for Active; 'I' for Inactive)
REMARK    1  A    between atoms: C_1  and  O_2
REMARK    2  A    between atoms: O_2  and  C_3
REMARK    3  A    between atoms: C_7  and  C_8
REMARK    4  A    between atoms: C_22  and  C_23
REMARK                            x       y       z     vdW  Elec       q    Type
REMARK                         _______ _______ _______ _____ _____    ______ ____
ROOT
ATOM      1  C   UNL     1      -2.092  12.624  20.971  0.00  0.00    +0.000 A 
ATOM      2  C   UNL     1      -2.304  12.034  22.214  0.00  0.00    +0.000 A 
ATOM      3  C   UNL     1      -1.606  12.501  23.306  0.00  0.00    +0.000 A 
ATOM      4  C   UNL     1      -1.143  13.790  23.217  0.00  0.00    +0.000 A 
ATOM      5  C   UNL     1      -0.635  14.192  22.003  0.00  0.00    +0.000 A 
ATOM      6  C   UNL     1       0.154  15.345  22.101  0.00  0.00    +0.000 A 
ATOM      7  C   UNL     1      -0.128  16.352  23.070  0.00  0.00    +0.000 A 
ATOM      8  C   UNL     1      -1.368  16.175  23.701  0.00  0.00    +0.000 A 
ATOM      9  S   UNL     1      -2.558  17.335  24.250  0.00  0.00    +0.000 S 
ATOM     10  C   UNL     1      -3.748  16.094  24.418  0.00  0.00    +0.000 A 
ATOM     11  C   UNL     1      -3.069  14.916  24.562  0.00  0.00    +0.000 A 
ATOM     12  C   UNL     1      -1.808  14.878  23.885  0.00  0.00    +0.000 A 
ATOM     13  N   UNL     1      -3.712  13.837  25.036  0.00  0.00    +0.000 N 
ATOM     14  C   UNL     1      -4.652  13.322  24.079  0.00  0.00    +0.000 C 
ATOM     15  C   UNL     1      -5.937  13.980  23.609  0.00  0.00    +0.000 C 
ATOM     16  C   UNL     1      -6.989  12.847  23.782  0.00  0.00    +0.000 C 
ATOM     17  N   UNL     1      -6.141  15.293  24.237  0.00  0.00    +0.000 N 
ATOM     18  C   UNL     1      -5.200  16.344  24.441  0.00  0.00    +0.000 C 
ATOM     19  O   UNL     1      -5.701  17.481  24.507  0.00  0.00    +0.000 OA
ATOM     20  N   UNL     1      -1.108  13.591  20.843  0.00  0.00    +0.000 NA
ATOM     21  H   UNL     1      -3.055  13.060  25.279  0.00  0.00    +0.000 HD
ATOM     22  H   UNL     1      -7.078  15.673  24.102  0.00  0.00    +0.000 HD
ENDROOT
BRANCH   1  27
ATOM     23  C   UNL     1      -3.540  11.069  17.770  0.00  0.00    +0.000 A 
ATOM     24  C   UNL     1      -4.877  11.433  17.870  0.00  0.00    +0.000 A 
ATOM     25  C   UNL     1      -5.304  12.246  18.921  0.00  0.00    +0.000 A 
ATOM     26  C   UNL     1      -4.409  12.684  19.907  0.00  0.00    +0.000 A 
ATOM     27  C   UNL     1      -3.053  12.327  19.862  0.00  0.00    +0.000 A 
ATOM     28  C   UNL     1      -2.649  11.544  18.735  0.00  0.00    +0.000 A 
BRANCH  23  30
ATOM     29  C   UNL     1      -2.906  10.871  15.463  0.00  0.00    +0.000 C 
ATOM     30  O   UNL     1      -3.234  10.264  16.706  0.00  0.00    +0.000 OA
ENDBRANCH  23  30
ENDBRANCH   1  27
TORSDOF 2
ENDMDL
MODEL 6
REMARK VINA RESULT:      -6.5      3.113      5.905
REMARK  Name = 
REMARK  4 active torsions:
REMARK  status: ('A' for Active; 'I' for Inactive)
REMARK    1  A    between atoms: C_1  and  O_2
REMARK    2  A    between atoms: O_2  and  C_3
REMARK    3  A    between atoms: C_7  and  C_8
REMARK    4  A    between atoms: C_22  and  C_23
REMARK                            x       y       z     vdW  Elec       q    Type
REMARK                         _______ _______ _______ _____ _____    ______ ____
ROOT
ATOM      1  C   UNL     1      -5.360  11.798  18.580  0.00  0.00    +0.000 A 
ATOM      2  C   UNL     1      -5.651  13.158  18.511  0.00  0.00    +0.000 A 
ATOM      3  C   UNL     1      -6.706  13.655  19.244  0.00  0.00    +0.000 A 
ATOM      4  C   UNL     1      -7.078  12.919  20.340  0.00  0.00    +0.000 A 
ATOM      5  C   UNL     1      -7.074  11.549  20.206  0.00  0.00    +0.000 A 
ATOM      6  C   UNL     1      -7.822  10.906  21.201  0.00  0.00    +0.000 A 
ATOM      7  C   UNL     1      -7.916  11.445  22.517  0.00  0.00    +0.000 A 
ATOM      8  C   UNL     1      -7.016  12.496  22.746  0.00  0.00    +0.000 A 
ATOM      9  S   UNL     1      -6.108  12.946  24.174  0.00  0.00    +0.000 S 
ATOM     10  C   UNL     1      -5.094  13.994  23.246  0.00  0.00    +0.000 A 
ATOM     11  C   UNL     1      -5.797  14.324  22.120  0.00  0.00    +0.000 A 
ATOM     12  C   UNL     1      -6.702  13.309  21.673  0.00  0.00    +0.000 A 
ATOM     13  N   UNL     1      -5.403  15.373  21.380  0.00  0.00    +0.000 N 
ATOM     14  C   UNL     1      -4.177  15.095  20.685  0.00  0.00    +0.000 C 
ATOM     15  C   UNL     1      -2.798  14.905  21.294  0.00  0.00    +0.000 C 
ATOM     16  C   UNL     1      -1.913  15.867  20.450  0.00  0.00    +0.000 C 
ATOM     17  N   UNL     1      -2.829  15.009  22.760  0.00  0.00    +0.000 N 
ATOM     18  C   UNL     1      -3.758  14.441  23.678  0.00  0.00    +0.000 C 
ATOM     19  O   UNL     1      -3.303  14.241  24.819  0.00  0.00    +0.000 OA
ATOM     20  N   UNL     1      -6.204  10.964  19.296  0.00  0.00    +0.000 NA
ATOM     21  H   UNL     1      -6.116  15.640  20.663  0.00  0.00    +0.000 HD
ATOM     22  H   UNL     1      -1.906  15.086  23.186  0.00  0.00    +0.000 HD
ENDROOT
BRANCH   1  27
ATOM     23  C   UNL     1      -1.627  10.904  18.415  0.00  0.00    +0.000 A 
ATOM     24  C   UNL     1      -1.577  10.156  17.246  0.00  0.00    +0.000 A 
ATOM     25  C   UNL     1      -2.722  10.003  16.463  0.00  0.00    +0.000 A 
ATOM     26  C   UNL     1      -3.945  10.569  16.851  0.00  0.00    +0.000 A 
ATOM     27  C   UNL     1      -4.053  11.316  18.034  0.00  0.00    +0.000 A 
ATOM     28  C   UNL     1      -2.840  11.498  18.772  0.00  0.00    +0.000 A 
BRANCH  23  30
ATOM     29  C   UNL     1       0.596  10.073  18.781  0.00  0.00    +0.000 C 
ATOM     30  O   UNL     1      -0.449  10.981  19.108  0.00  0.00    +0.000 OA
ENDBRANCH  23  30
ENDBRANCH   1  27
TORSDOF 2
ENDMDL
MODEL 7
REMARK VINA RESULT:      -6.5      8.457     10.586
REMARK  Name = 
REMARK  4 active torsions:
REMARK  status: ('A' for Active; 'I' for Inactive)
REMARK    1  A    between atoms: C_1  and  O_2
REMARK    2  A    between atoms: O_2  and  C_3
REMARK    3  A    between atoms: C_7  and  C_8
REMARK    4  A    between atoms: C_22  and  C_23
REMARK                            x       y       z     vdW  Elec       q    Type
REMARK                         _______ _______ _______ _____ _____    ______ ____
ROOT
ATOM      1  C   UNL     1       9.038  12.688  22.634  0.00  0.00    +0.000 A 
ATOM      2  C   UNL     1       9.661  13.878  22.266  0.00  0.00    +0.000 A 
ATOM      3  C   UNL     1      10.363  13.928  21.082  0.00  0.00    +0.000 A 
ATOM      4  C   UNL     1      10.004  13.006  20.131  0.00  0.00    +0.000 A 
ATOM      5  C   UNL     1       9.716  11.733  20.568  0.00  0.00    +0.000 A 
ATOM      6  C   UNL     1       9.749  10.786  19.536  0.00  0.00    +0.000 A 
ATOM      7  C   UNL     1       9.375  11.133  18.204  0.00  0.00    +0.000 A 
ATOM      8  C   UNL     1       8.765  12.393  18.115  0.00  0.00    +0.000 A 
ATOM      9  S   UNL     1       7.460  12.972  17.103  0.00  0.00    +0.000 S 
ATOM     10  C   UNL     1       7.270  14.380  18.087  0.00  0.00    +0.000 A 
ATOM     11  C   UNL     1       8.461  14.571  18.733  0.00  0.00    +0.000 A 
ATOM     12  C   UNL     1       9.182  13.365  19.005  0.00  0.00    +0.000 A 
ATOM     13  N   UNL     1       8.719  15.758  19.304  0.00  0.00    +0.000 N 
ATOM     14  C   UNL     1       7.909  15.967  20.472  0.00  0.00    +0.000 C 
ATOM     15  C   UNL     1       6.406  16.180  20.522  0.00  0.00    +0.000 C 
ATOM     16  C   UNL     1       6.268  17.457  21.401  0.00  0.00    +0.000 C 
ATOM     17  N   UNL     1       5.802  16.123  19.184  0.00  0.00    +0.000 N 
ATOM     18  C   UNL     1       6.043  15.195  18.130  0.00  0.00    +0.000 C 
ATOM     19  O   UNL     1       5.091  15.044  17.344  0.00  0.00    +0.000 OA
ATOM     20  N   UNL     1       9.230  11.558  21.857  0.00  0.00    +0.000 NA
ATOM     21  H   UNL     1       9.719  15.847  19.597  0.00  0.00    +0.000 HD
ATOM     22  H   UNL     1       4.838  16.456  19.154  0.00  0.00    +0.000 HD
ENDROOT
BRANCH   1  27
ATOM     23  C   UNL     1       5.882  13.588  24.632  0.00  0.00    +0.000 A 
ATOM     24  C   UNL     1       5.916  12.636  25.642  0.00  0.00    +0.000 A 
ATOM     25  C   UNL     1       6.994  11.754  25.735  0.00  0.00    +0.000 A 
ATOM     26  C   UNL     1       8.040  11.788  24.801  0.00  0.00    +0.000 A 
ATOM     27  C   UNL     1       8.040  12.716  23.750  0.00  0.00    +0.000 A 
ATOM     28  C   UNL     1       6.947  13.640  23.730  0.00  0.00    +0.000 A 
BRANCH  23  30
ATOM     29  C   UNL     1       4.958  15.803  24.557  0.00  0.00    +0.000 C 
ATOM     30  O   UNL     1       4.775  14.395  24.630  0.00  0.00    +0.000 OA
ENDBRANCH  23  30
ENDBRANCH   1  27
TORSDOF 2
ENDMDL
MODEL 8
REMARK VINA RESULT:      -6.5      3.340      6.409
REMARK  Name = 
REMARK  4 active torsions:
REMARK  status: ('A' for Active; 'I' for Inactive)
REMARK    1  A    between atoms: C_1  and  O_2
REMARK    2  A    between atoms: O_2  and  C_3
REMARK    3  A    between atoms: C_7  and  C_8
REMARK    4  A    between atoms: C_22  and  C_23
REMARK                            x       y       z     vdW  Elec       q    Type
REMARK                         _______ _______ _______ _____ _____    ______ ____
ROOT
ATOM      1  C   UNL     1      -4.261  10.825  18.157  0.00  0.00    +0.000 A 
ATOM      2  C   UNL     1      -5.036  11.890  17.708  0.00  0.00    +0.000 A 
ATOM      3  C   UNL     1      -6.407  11.814  17.817  0.00  0.00    +0.000 A 
ATOM      4  C   UNL     1      -6.887  10.960  18.778  0.00  0.00    +0.000 A 
ATOM      5  C   UNL     1      -6.238   9.757  18.929  0.00  0.00    +0.000 A 
ATOM      6  C   UNL     1      -7.003   8.812  19.624  0.00  0.00    +0.000 A 
ATOM      7  C   UNL     1      -7.915   9.208  20.646  0.00  0.00    +0.000 A 
ATOM      8  C   UNL     1      -7.770  10.552  21.020  0.00  0.00    +0.000 A 
ATOM      9  S   UNL     1      -7.916  11.337  22.578  0.00  0.00    +0.000 S 
ATOM     10  C   UNL     1      -7.148  12.763  21.975  0.00  0.00    +0.000 A 
ATOM     11  C   UNL     1      -7.315  12.754  20.618  0.00  0.00    +0.000 A 
ATOM     12  C   UNL     1      -7.378  11.446  20.041  0.00  0.00    +0.000 A 
ATOM     13  N   UNL     1      -7.115  13.885  19.921  0.00  0.00    +0.000 N 
ATOM     14  C   UNL     1      -5.722  14.234  19.873  0.00  0.00    +0.000 C 
ATOM     15  C   UNL     1      -4.851  14.697  21.028  0.00  0.00    +0.000 C 
ATOM     16  C   UNL     1      -4.184  15.984  20.462  0.00  0.00    +0.000 C 
ATOM     17  N   UNL     1      -5.596  14.735  22.294  0.00  0.00    +0.000 N 
ATOM     18  C   UNL     1      -6.500  13.772  22.830  0.00  0.00    +0.000 C 
ATOM     19  O   UNL     1      -6.587  13.779  24.072  0.00  0.00    +0.000 OA
ATOM     20  N   UNL     1      -4.891   9.673  18.602  0.00  0.00    +0.000 NA
ATOM     21  H   UNL     1      -7.452  13.805  18.934  0.00  0.00    +0.000 HD
ATOM     22  H   UNL     1      -5.108  15.225  23.044  0.00  0.00    +0.000 HD
ENDROOT
BRANCH   1  27
ATOM     23  C   UNL     1      -0.930  12.229  19.458  0.00  0.00    +0.000 A 
ATOM     24  C   UNL     1      -0.026  11.308  18.946  0.00  0.00    +0.000 A 
ATOM     25  C   UNL     1      -0.471  10.278  18.114  0.00  0.00    +0.000 A 
ATOM     26  C   UNL     1      -1.831  10.135  17.806  0.00  0.00    +0.000 A 
ATOM     27  C   UNL     1      -2.786  11.027  18.315  0.00  0.00    +0.000 A 
ATOM     28  C   UNL     1      -2.277  12.102  19.112  0.00  0.00    +0.000 A 
BRANCH  23  30
ATOM     29  C   UNL     1      -0.586  14.558  19.932  0.00  0.00    +0.000 C 
ATOM     30  O   UNL     1      -0.386  13.191  20.267  0.00  0.00    +0.000 OA
ENDBRANCH  23  30
ENDBRANCH   1  27
TORSDOF 2
ENDMDL
MODEL 9
REMARK VINA RESULT:      -6.5      8.066     11.518
REMARK  Name = 
REMARK  4 active torsions:
REMARK  status: ('A' for Active; 'I' for Inactive)
REMARK    1  A    between atoms: C_1  and  O_2
REMARK    2  A    between atoms: O_2  and  C_3
REMARK    3  A    between atoms: C_7  and  C_8
REMARK    4  A    between atoms: C_22  and  C_23
REMARK                            x       y       z     vdW  Elec       q    Type
REMARK                         _______ _______ _______ _____ _____    ______ ____
ROOT
ATOM      1  C   UNL     1       7.585  15.215  21.301  0.00  0.00    +0.000 A 
ATOM      2  C   UNL     1       8.784  15.885  21.527  0.00  0.00    +0.000 A 
ATOM      3  C   UNL     1       9.896  15.162  21.899  0.00  0.00    +0.000 A 
ATOM      4  C   UNL     1       9.895  13.835  21.549  0.00  0.00    +0.000 A 
ATOM      5  C   UNL     1       8.706  13.154  21.675  0.00  0.00    +0.000 A 
ATOM      6  C   UNL     1       8.877  11.763  21.681  0.00  0.00    +0.000 A 
ATOM      7  C   UNL     1       9.922  11.145  20.935  0.00  0.00    +0.000 A 
ATOM      8  C   UNL     1      10.558  12.025  20.047  0.00  0.00    +0.000 A 
ATOM      9  S   UNL     1      11.210  11.772  18.443  0.00  0.00    +0.000 S 
ATOM     10  C   UNL     1      11.305  13.476  18.170  0.00  0.00    +0.000 A 
ATOM     11  C   UNL     1      11.350  14.068  19.401  0.00  0.00    +0.000 A 
ATOM     12  C   UNL     1      10.653  13.351  20.425  0.00  0.00    +0.000 A 
ATOM     13  N   UNL     1      11.754  15.345  19.505  0.00  0.00    +0.000 N 
ATOM     14  C   UNL     1      10.776  16.250  18.968  0.00  0.00    +0.000 C 
ATOM     15  C   UNL     1      10.376  16.411  17.512  0.00  0.00    +0.000 C 
ATOM     16  C   UNL     1      10.482  17.948  17.293  0.00  0.00    +0.000 C 
ATOM     17  N   UNL     1      11.103  15.479  16.639  0.00  0.00    +0.000 N 
ATOM     18  C   UNL     1      11.369  14.093  16.833  0.00  0.00    +0.000 C 
ATOM     19  O   UNL     1      11.528  13.443  15.784  0.00  0.00    +0.000 OA
ATOM     20  N   UNL     1       7.513  13.855  21.561  0.00  0.00    +0.000 NA
ATOM     21  H   UNL     1      11.927  15.624  20.498  0.00  0.00    +0.000 HD
ATOM     22  H   UNL     1      11.011  15.690  15.645  0.00  0.00    +0.000 HD
ENDROOT
BRANCH   1  27
ATOM     23  C   UNL     1       4.674  15.920  18.894  0.00  0.00    +0.000 A 
ATOM     24  C   UNL     1       4.148  17.085  19.435  0.00  0.00    +0.000 A 
ATOM     25  C   UNL     1       4.772  17.695  20.525  0.00  0.00    +0.000 A 
ATOM     26  C   UNL     1       5.915  17.132  21.112  0.00  0.00    +0.000 A 
ATOM     27  C   UNL     1       6.473  15.945  20.615  0.00  0.00    +0.000 A 
ATOM     28  C   UNL     1       5.836  15.390  19.460  0.00  0.00    +0.000 A 
BRANCH  23  30
ATOM     29  C   UNL     1       2.795  14.658  18.092  0.00  0.00    +0.000 C 
ATOM     30  O   UNL     1       3.978  15.404  17.833  0.00  0.00    +0.000 OA
ENDBRANCH  23  30
ENDBRANCH   1  27
TORSDOF 2
ENDMDL
