MODEL 1
REMARK VINA RESULT:      -9.1      0.000      0.000
REMARK  Name = 
REMARK  3 active torsions:
REMARK  status: ('A' for Active; 'I' for Inactive)
REMARK    1  A    between atoms: C_1  and  C_2
REMARK    2  A    between atoms: N_6  and  C_7
REMARK    3  A    between atoms: C_11  and  C_12
REMARK                            x       y       z     vdW  Elec       q    Type
REMARK                         _______ _______ _______ _____ _____    ______ ____
ROOT
ATOM      1  C   UNL     1       2.092   8.259  19.009  0.00  0.00    +0.000 A 
ATOM      2  C   UNL     1       2.825   8.048  17.886  0.00  0.00    +0.000 A 
ATOM      3  C   UNL     1       3.503   6.753  17.629  0.00  0.00    +0.000 A 
ATOM      4  N   UNL     1       4.269   6.468  16.633  0.00  0.00    +0.000 NA
ATOM      5  C   UNL     1       4.814   5.184  16.573  0.00  0.00    +0.000 A 
ATOM      6  N   UNL     1       4.619   4.227  17.443  0.00  0.00    +0.000 NA
ATOM      7  N   UNL     1       3.819   4.557  18.475  0.00  0.00    +0.000 N 
ATOM      8  C   UNL     1       3.411   3.795  19.554  0.00  0.00    +0.000 A 
ATOM      9  C   UNL     1       3.699   2.467  19.904  0.00  0.00    +0.000 A 
ATOM     10  C   UNL     1       3.130   1.963  21.078  0.00  0.00    +0.000 A 
ATOM     11  C   UNL     1       2.298   2.749  21.872  0.00  0.00    +0.000 A 
ATOM     12  C   UNL     1       2.017   4.073  21.522  0.00  0.00    +0.000 A 
ATOM     13  C   UNL     1       2.583   4.613  20.352  0.00  0.00    +0.000 A 
ATOM     14  C   UNL     1       2.523   5.890  19.728  0.00  0.00    +0.000 A 
ATOM     15  C   UNL     1       1.884   7.142  20.068  0.00  0.00    +0.000 A 
ATOM     16  O   UNL     1       1.236   7.302  21.096  0.00  0.00    +0.000 OA
ATOM     17  C   UNL     1       3.268   5.773  18.596  0.00  0.00    +0.000 A 
ENDROOT
BRANCH   1  23
ATOM     18  C   UNL     1      -1.122   9.811  17.668  0.00  0.00    +0.000 C 
ATOM     19  C   UNL     1      -0.231  10.924  18.232  0.00  0.00    +0.000 C 
ATOM     20  C   UNL     1      -0.688  11.352  19.635  0.00  0.00    +0.000 C 
ATOM     21  C   UNL     1      -0.398  10.275  20.677  0.00  0.00    +0.000 C 
ATOM     22  C   UNL     1       1.067   9.857  20.646  0.00  0.00    +0.000 C 
ATOM     23  N   UNL     1       1.497   9.501  19.285  0.00  0.00    +0.000 N 
ATOM     24  C   UNL     1       1.253  10.516  18.256  0.00  0.00    +0.000 C 
ENDBRANCH   1  23
BRANCH   5  25
ATOM     25  C   UNL     1       5.673   4.916  15.370  0.00  0.00    +0.000 A 
ATOM     26  C   UNL     1       6.915   5.547  15.224  0.00  0.00    +0.000 A 
ATOM     27  C   UNL     1       7.674   5.357  14.067  0.00  0.00    +0.000 A 
ATOM     28  C   UNL     1       7.202   4.527  13.051  0.00  0.00    +0.000 A 
ATOM     29  C   UNL     1       5.981   3.869  13.201  0.00  0.00    +0.000 A 
ATOM     30  C   UNL     1       5.219   4.058  14.358  0.00  0.00    +0.000 A 
ENDBRANCH   5  25
TORSDOF 2
ENDMDL
MODEL 2
REMARK VINA RESULT:      -8.5      3.523      7.216
REMARK  Name = 
REMARK  3 active torsions:
REMARK  status: ('A' for Active; 'I' for Inactive)
REMARK    1  A    between atoms: C_1  and  C_2
REMARK    2  A    between atoms: N_6  and  C_7
REMARK    3  A    between atoms: C_11  and  C_12
REMARK                            x       y       z     vdW  Elec       q    Type
REMARK                         _______ _______ _______ _____ _____    ______ ____
ROOT
ATOM      1  C   UNL     1      -1.281  12.014  21.446  0.00  0.00    +0.000 A 
ATOM      2  C   UNL     1      -0.186  11.219  21.339  0.00  0.00    +0.000 A 
ATOM      3  C   UNL     1       0.051  10.374  20.143  0.00  0.00    +0.000 A 
ATOM      4  N   UNL     1       1.018   9.542  19.965  0.00  0.00    +0.000 NA
ATOM      5  C   UNL     1       1.063   8.837  18.761  0.00  0.00    +0.000 A 
ATOM      6  N   UNL     1       0.205   8.942  17.779  0.00  0.00    +0.000 NA
ATOM      7  N   UNL     1      -0.797   9.815  17.996  0.00  0.00    +0.000 N 
ATOM      8  C   UNL     1      -1.857  10.163  17.179  0.00  0.00    +0.000 A 
ATOM      9  C   UNL     1      -2.212   9.723  15.895  0.00  0.00    +0.000 A 
ATOM     10  C   UNL     1      -3.361  10.268  15.313  0.00  0.00    +0.000 A 
ATOM     11  C   UNL     1      -4.126  11.221  15.980  0.00  0.00    +0.000 A 
ATOM     12  C   UNL     1      -3.771  11.654  17.261  0.00  0.00    +0.000 A 
ATOM     13  C   UNL     1      -2.626  11.117  17.879  0.00  0.00    +0.000 A 
ATOM     14  C   UNL     1      -2.006  11.315  19.144  0.00  0.00    +0.000 A 
ATOM     15  C   UNL     1      -2.327  12.119  20.302  0.00  0.00    +0.000 A 
ATOM     16  O   UNL     1      -3.329  12.820  20.369  0.00  0.00    +0.000 OA
ATOM     17  C   UNL     1      -0.902  10.519  19.132  0.00  0.00    +0.000 A 
ENDROOT
BRANCH   1  23
ATOM     18  C   UNL     1      -2.339  15.657  21.825  0.00  0.00    +0.000 C 
ATOM     19  C   UNL     1      -1.736  15.175  23.149  0.00  0.00    +0.000 C 
ATOM     20  C   UNL     1      -2.830  14.821  24.168  0.00  0.00    +0.000 C 
ATOM     21  C   UNL     1      -3.575  13.547  23.778  0.00  0.00    +0.000 C 
ATOM     22  C   UNL     1      -2.608  12.394  23.539  0.00  0.00    +0.000 C 
ATOM     23  N   UNL     1      -1.540  12.771  22.601  0.00  0.00    +0.000 N 
ATOM     24  C   UNL     1      -0.787  13.980  22.948  0.00  0.00    +0.000 C 
ENDBRANCH   1  23
BRANCH   5  25
ATOM     25  C   UNL     1       2.233   7.907  18.615  0.00  0.00    +0.000 A 
ATOM     26  C   UNL     1       3.127   8.045  17.544  0.00  0.00    +0.000 A 
ATOM     27  C   UNL     1       4.167   7.130  17.368  0.00  0.00    +0.000 A 
ATOM     28  C   UNL     1       4.327   6.075  18.265  0.00  0.00    +0.000 A 
ATOM     29  C   UNL     1       3.463   5.946  19.351  0.00  0.00    +0.000 A 
ATOM     30  C   UNL     1       2.421   6.862  19.530  0.00  0.00    +0.000 A 
ENDBRANCH   5  25
TORSDOF 2
ENDMDL
MODEL 3
REMARK VINA RESULT:      -8.3      0.717      1.485
REMARK  Name = 
REMARK  3 active torsions:
REMARK  status: ('A' for Active; 'I' for Inactive)
REMARK    1  A    between atoms: C_1  and  C_2
REMARK    2  A    between atoms: N_6  and  C_7
REMARK    3  A    between atoms: C_11  and  C_12
REMARK                            x       y       z     vdW  Elec       q    Type
REMARK                         _______ _______ _______ _____ _____    ______ ____
ROOT
ATOM      1  C   UNL     1       1.809   8.399  19.122  0.00  0.00    +0.000 A 
ATOM      2  C   UNL     1       2.568   8.216  18.011  0.00  0.00    +0.000 A 
ATOM      3  C   UNL     1       3.305   6.952  17.767  0.00  0.00    +0.000 A 
ATOM      4  N   UNL     1       4.096   6.698  16.784  0.00  0.00    +0.000 NA
ATOM      5  C   UNL     1       4.697   5.438  16.735  0.00  0.00    +0.000 A 
ATOM      6  N   UNL     1       4.531   4.476  17.605  0.00  0.00    +0.000 NA
ATOM      7  N   UNL     1       3.702   4.773  18.625  0.00  0.00    +0.000 N 
ATOM      8  C   UNL     1       3.312   3.997  19.700  0.00  0.00    +0.000 A 
ATOM      9  C   UNL     1       3.652   2.684  20.058  0.00  0.00    +0.000 A 
ATOM     10  C   UNL     1       3.087   2.159  21.225  0.00  0.00    +0.000 A 
ATOM     11  C   UNL     1       2.211   2.910  22.005  0.00  0.00    +0.000 A 
ATOM     12  C   UNL     1       1.877   4.220  21.646  0.00  0.00    +0.000 A 
ATOM     13  C   UNL     1       2.437   4.780  20.483  0.00  0.00    +0.000 A 
ATOM     14  C   UNL     1       2.331   6.052  19.855  0.00  0.00    +0.000 A 
ATOM     15  C   UNL     1       1.633   7.277  20.182  0.00  0.00    +0.000 A 
ATOM     16  O   UNL     1       0.964   7.410  21.199  0.00  0.00    +0.000 OA
ATOM     17  C   UNL     1       3.097   5.965  18.734  0.00  0.00    +0.000 A 
ENDROOT
BRANCH   1  23
ATOM     18  C   UNL     1       2.534  11.917  17.844  0.00  0.00    +0.000 C 
ATOM     19  C   UNL     1       1.688  12.016  19.119  0.00  0.00    +0.000 C 
ATOM     20  C   UNL     1       0.209  12.274  18.793  0.00  0.00    +0.000 C 
ATOM     21  C   UNL     1      -0.455  11.048  18.172  0.00  0.00    +0.000 C 
ATOM     22  C   UNL     1      -0.259   9.813  19.043  0.00  0.00    +0.000 C 
ATOM     23  N   UNL     1       1.158   9.615  19.386  0.00  0.00    +0.000 N 
ATOM     24  C   UNL     1       1.830  10.763  20.002  0.00  0.00    +0.000 C 
ENDBRANCH   1  23
BRANCH   5  25
ATOM     25  C   UNL     1       5.585   5.205  15.546  0.00  0.00    +0.000 A 
ATOM     26  C   UNL     1       5.168   4.376  14.496  0.00  0.00    +0.000 A 
ATOM     27  C   UNL     1       6.029   4.099  13.431  0.00  0.00    +0.000 A 
ATOM     28  C   UNL     1       7.306   4.655  13.403  0.00  0.00    +0.000 A 
ATOM     29  C   UNL     1       7.718   5.506  14.427  0.00  0.00    +0.000 A 
ATOM     30  C   UNL     1       6.860   5.785  15.495  0.00  0.00    +0.000 A 
ENDBRANCH   5  25
TORSDOF 2
ENDMDL
MODEL 4
REMARK VINA RESULT:      -8.3      3.483      6.745
REMARK  Name = 
REMARK  3 active torsions:
REMARK  status: ('A' for Active; 'I' for Inactive)
REMARK    1  A    between atoms: C_1  and  C_2
REMARK    2  A    between atoms: N_6  and  C_7
REMARK    3  A    between atoms: C_11  and  C_12
REMARK                            x       y       z     vdW  Elec       q    Type
REMARK                         _______ _______ _______ _____ _____    ______ ____
ROOT
ATOM      1  C   UNL     1       4.254   4.070  18.424  0.00  0.00    +0.000 A 
ATOM      2  C   UNL     1       4.852   5.198  18.883  0.00  0.00    +0.000 A 
ATOM      3  C   UNL     1       5.845   5.942  18.069  0.00  0.00    +0.000 A 
ATOM      4  N   UNL     1       6.514   6.982  18.429  0.00  0.00    +0.000 NA
ATOM      5  C   UNL     1       7.407   7.538  17.511  0.00  0.00    +0.000 A 
ATOM      6  N   UNL     1       7.633   7.097  16.300  0.00  0.00    +0.000 NA
ATOM      7  N   UNL     1       6.924   6.006  15.955  0.00  0.00    +0.000 N 
ATOM      8  C   UNL     1       6.920   5.294  14.769  0.00  0.00    +0.000 A 
ATOM      9  C   UNL     1       7.642   5.483  13.581  0.00  0.00    +0.000 A 
ATOM     10  C   UNL     1       7.421   4.583  12.533  0.00  0.00    +0.000 A 
ATOM     11  C   UNL     1       6.511   3.536  12.660  0.00  0.00    +0.000 A 
ATOM     12  C   UNL     1       5.797   3.349  13.848  0.00  0.00    +0.000 A 
ATOM     13  C   UNL     1       6.005   4.232  14.924  0.00  0.00    +0.000 A 
ATOM     14  C   UNL     1       5.475   4.318  16.242  0.00  0.00    +0.000 A 
ATOM     15  C   UNL     1       4.542   3.515  17.002  0.00  0.00    +0.000 A 
ATOM     16  O   UNL     1       4.028   2.496  16.560  0.00  0.00    +0.000 OA
ATOM     17  C   UNL     1       6.054   5.420  16.791  0.00  0.00    +0.000 A 
ENDROOT
BRANCH   1  23
ATOM     18  C   UNL     1       1.546   5.239  20.840  0.00  0.00    +0.000 C 
ATOM     19  C   UNL     1       1.907   3.784  21.165  0.00  0.00    +0.000 C 
ATOM     20  C   UNL     1       0.874   2.807  20.584  0.00  0.00    +0.000 C 
ATOM     21  C   UNL     1       0.960   2.732  19.062  0.00  0.00    +0.000 C 
ATOM     22  C   UNL     1       2.379   2.416  18.605  0.00  0.00    +0.000 C 
ATOM     23  N   UNL     1       3.357   3.330  19.213  0.00  0.00    +0.000 N 
ATOM     24  C   UNL     1       3.321   3.420  20.675  0.00  0.00    +0.000 C 
ENDBRANCH   1  23
BRANCH   5  25
ATOM     25  C   UNL     1       8.129   8.764  17.991  0.00  0.00    +0.000 A 
ATOM     26  C   UNL     1       8.913   8.723  19.152  0.00  0.00    +0.000 A 
ATOM     27  C   UNL     1       9.517   9.885  19.638  0.00  0.00    +0.000 A 
ATOM     28  C   UNL     1       9.351  11.093  18.963  0.00  0.00    +0.000 A 
ATOM     29  C   UNL     1       8.599  11.138  17.790  0.00  0.00    +0.000 A 
ATOM     30  C   UNL     1       7.993   9.977  17.301  0.00  0.00    +0.000 A 
ENDBRANCH   5  25
TORSDOF 2
ENDMDL
MODEL 5
REMARK VINA RESULT:      -8.1      0.710      1.351
REMARK  Name = 
REMARK  3 active torsions:
REMARK  status: ('A' for Active; 'I' for Inactive)
REMARK    1  A    between atoms: C_1  and  C_2
REMARK    2  A    between atoms: N_6  and  C_7
REMARK    3  A    between atoms: C_11  and  C_12
REMARK                            x       y       z     vdW  Elec       q    Type
REMARK                         _______ _______ _______ _____ _____    ______ ____
ROOT
ATOM      1  C   UNL     1       1.968   8.390  18.670  0.00  0.00    +0.000 A 
ATOM      2  C   UNL     1       2.736   8.139  17.579  0.00  0.00    +0.000 A 
ATOM      3  C   UNL     1       3.470   6.859  17.418  0.00  0.00    +0.000 A 
ATOM      4  N   UNL     1       4.269   6.544  16.459  0.00  0.00    +0.000 NA
ATOM      5  C   UNL     1       4.865   5.282  16.491  0.00  0.00    +0.000 A 
ATOM      6  N   UNL     1       4.687   4.373  17.416  0.00  0.00    +0.000 NA
ATOM      7  N   UNL     1       3.850   4.735  18.407  0.00  0.00    +0.000 N 
ATOM      8  C   UNL     1       3.446   4.025  19.524  0.00  0.00    +0.000 A 
ATOM      9  C   UNL     1       3.778   2.735  19.963  0.00  0.00    +0.000 A 
ATOM     10  C   UNL     1       3.200   2.282  21.154  0.00  0.00    +0.000 A 
ATOM     11  C   UNL     1       2.320   3.082  21.879  0.00  0.00    +0.000 A 
ATOM     12  C   UNL     1       1.995   4.369  21.439  0.00  0.00    +0.000 A 
ATOM     13  C   UNL     1       2.568   4.857  20.250  0.00  0.00    +0.000 A 
ATOM     14  C   UNL     1       2.473   6.090  19.546  0.00  0.00    +0.000 A 
ATOM     15  C   UNL     1       1.778   7.334  19.793  0.00  0.00    +0.000 A 
ATOM     16  O   UNL     1       1.100   7.531  20.793  0.00  0.00    +0.000 OA
ATOM     17  C   UNL     1       3.249   5.933  18.439  0.00  0.00    +0.000 A 
ENDROOT
BRANCH   1  23
ATOM     18  C   UNL     1       1.060  10.247  21.873  0.00  0.00    +0.000 C 
ATOM     19  C   UNL     1       0.191  10.779  20.727  0.00  0.00    +0.000 C 
ATOM     20  C   UNL     1       0.732  12.112  20.187  0.00  0.00    +0.000 C 
ATOM     21  C   UNL     1       2.037  11.923  19.418  0.00  0.00    +0.000 C 
ATOM     22  C   UNL     1       1.886  10.872  18.326  0.00  0.00    +0.000 C 
ATOM     23  N   UNL     1       1.319   9.622  18.854  0.00  0.00    +0.000 N 
ATOM     24  C   UNL     1       0.056   9.756  19.585  0.00  0.00    +0.000 C 
ENDBRANCH   1  23
BRANCH   5  25
ATOM     25  C   UNL     1       5.763   4.974  15.327  0.00  0.00    +0.000 A 
ATOM     26  C   UNL     1       7.001   5.615  15.191  0.00  0.00    +0.000 A 
ATOM     27  C   UNL     1       7.796   5.386  14.065  0.00  0.00    +0.000 A 
ATOM     28  C   UNL     1       7.364   4.508  13.073  0.00  0.00    +0.000 A 
ATOM     29  C   UNL     1       6.148   3.841  13.214  0.00  0.00    +0.000 A 
ATOM     30  C   UNL     1       5.350   4.069  14.340  0.00  0.00    +0.000 A 
ENDBRANCH   5  25
TORSDOF 2
ENDMDL
MODEL 6
REMARK VINA RESULT:      -8.0      4.523      8.780
REMARK  Name = 
REMARK  3 active torsions:
REMARK  status: ('A' for Active; 'I' for Inactive)
REMARK    1  A    between atoms: C_1  and  C_2
REMARK    2  A    between atoms: N_6  and  C_7
REMARK    3  A    between atoms: C_11  and  C_12
REMARK                            x       y       z     vdW  Elec       q    Type
REMARK                         _______ _______ _______ _____ _____    ______ ____
ROOT
ATOM      1  C   UNL     1      -2.327  13.678  20.964  0.00  0.00    +0.000 A 
ATOM      2  C   UNL     1      -1.901  12.392  20.878  0.00  0.00    +0.000 A 
ATOM      3  C   UNL     1      -0.644  12.030  20.178  0.00  0.00    +0.000 A 
ATOM      4  N   UNL     1      -0.182  10.843  19.986  0.00  0.00    +0.000 NA
ATOM      5  C   UNL     1       1.027  10.713  19.300  0.00  0.00    +0.000 A 
ATOM      6  N   UNL     1       1.748  11.696  18.825  0.00  0.00    +0.000 NA
ATOM      7  N   UNL     1       1.236  12.924  19.036  0.00  0.00    +0.000 N 
ATOM      8  C   UNL     1       1.734  14.162  18.673  0.00  0.00    +0.000 A 
ATOM      9  C   UNL     1       2.903  14.518  17.983  0.00  0.00    +0.000 A 
ATOM     10  C   UNL     1       3.141  15.878  17.760  0.00  0.00    +0.000 A 
ATOM     11  C   UNL     1       2.252  16.850  18.211  0.00  0.00    +0.000 A 
ATOM     12  C   UNL     1       1.086  16.491  18.895  0.00  0.00    +0.000 A 
ATOM     13  C   UNL     1       0.813  15.130  19.127  0.00  0.00    +0.000 A 
ATOM     14  C   UNL     1      -0.258  14.435  19.754  0.00  0.00    +0.000 A 
ATOM     15  C   UNL     1      -1.498  14.851  20.371  0.00  0.00    +0.000 A 
ATOM     16  O   UNL     1      -1.856  16.021  20.423  0.00  0.00    +0.000 OA
ATOM     17  C   UNL     1       0.078  13.118  19.684  0.00  0.00    +0.000 A 
ENDROOT
BRANCH   1  23
ATOM     18  C   UNL     1      -5.773  12.075  20.663  0.00  0.00    +0.000 C 
ATOM     19  C   UNL     1      -5.935  13.504  21.193  0.00  0.00    +0.000 C 
ATOM     20  C   UNL     1      -6.147  13.518  22.714  0.00  0.00    +0.000 C 
ATOM     21  C   UNL     1      -4.875  13.137  23.466  0.00  0.00    +0.000 C 
ATOM     22  C   UNL     1      -3.698  14.005  23.036  0.00  0.00    +0.000 C 
ATOM     23  N   UNL     1      -3.545  14.019  21.573  0.00  0.00    +0.000 N 
ATOM     24  C   UNL     1      -4.739  14.397  20.812  0.00  0.00    +0.000 C 
ENDBRANCH   1  23
BRANCH   5  25
ATOM     25  C   UNL     1       1.516   9.303  19.139  0.00  0.00    +0.000 A 
ATOM     26  C   UNL     1       1.480   8.406  20.215  0.00  0.00    +0.000 A 
ATOM     27  C   UNL     1       2.009   7.121  20.083  0.00  0.00    +0.000 A 
ATOM     28  C   UNL     1       2.570   6.718  18.872  0.00  0.00    +0.000 A 
ATOM     29  C   UNL     1       2.582   7.591  17.785  0.00  0.00    +0.000 A 
ATOM     30  C   UNL     1       2.053   8.879  17.915  0.00  0.00    +0.000 A 
ENDBRANCH   5  25
TORSDOF 2
ENDMDL
MODEL 7
REMARK VINA RESULT:      -8.0      1.914      7.042
REMARK  Name = 
REMARK  3 active torsions:
REMARK  status: ('A' for Active; 'I' for Inactive)
REMARK    1  A    between atoms: C_1  and  C_2
REMARK    2  A    between atoms: N_6  and  C_7
REMARK    3  A    between atoms: C_11  and  C_12
REMARK                            x       y       z     vdW  Elec       q    Type
REMARK                         _______ _______ _______ _____ _____    ______ ____
ROOT
ATOM      1  C   UNL     1       5.299   5.044  15.979  0.00  0.00    +0.000 A 
ATOM      2  C   UNL     1       4.922   6.346  16.052  0.00  0.00    +0.000 A 
ATOM      3  C   UNL     1       3.894   6.808  17.018  0.00  0.00    +0.000 A 
ATOM      4  N   UNL     1       3.421   8.001  17.129  0.00  0.00    +0.000 NA
ATOM      5  C   UNL     1       2.453   8.233  18.108  0.00  0.00    +0.000 A 
ATOM      6  N   UNL     1       1.972   7.343  18.937  0.00  0.00    +0.000 NA
ATOM      7  N   UNL     1       2.483   6.104  18.793  0.00  0.00    +0.000 N 
ATOM      8  C   UNL     1       2.201   4.947  19.494  0.00  0.00    +0.000 A 
ATOM      9  C   UNL     1       1.312   4.706  20.553  0.00  0.00    +0.000 A 
ATOM     10  C   UNL     1       1.245   3.406  21.066  0.00  0.00    +0.000 A 
ATOM     11  C   UNL     1       2.038   2.384  20.549  0.00  0.00    +0.000 A 
ATOM     12  C   UNL     1       2.919   2.628  19.492  0.00  0.00    +0.000 A 
ATOM     13  C   UNL     1       3.002   3.923  18.947  0.00  0.00    +0.000 A 
ATOM     14  C   UNL     1       3.757   4.497  17.886  0.00  0.00    +0.000 A 
ATOM     15  C   UNL     1       4.709   3.970  16.933  0.00  0.00    +0.000 A 
ATOM     16  O   UNL     1       5.020   2.786  16.889  0.00  0.00    +0.000 OA
ATOM     17  C   UNL     1       3.410   5.813  17.870  0.00  0.00    +0.000 A 
ENDROOT
BRANCH   1  23
ATOM     18  C   UNL     1       4.808   4.038  12.334  0.00  0.00    +0.000 C 
ATOM     19  C   UNL     1       6.121   3.433  12.844  0.00  0.00    +0.000 C 
ATOM     20  C   UNL     1       7.334   4.256  12.384  0.00  0.00    +0.000 C 
ATOM     21  C   UNL     1       7.408   5.602  13.100  0.00  0.00    +0.000 C 
ATOM     22  C   UNL     1       7.366   5.425  14.613  0.00  0.00    +0.000 C 
ATOM     23  N   UNL     1       6.228   4.591  15.027  0.00  0.00    +0.000 N 
ATOM     24  C   UNL     1       6.128   3.282  14.376  0.00  0.00    +0.000 C 
ENDBRANCH   1  23
BRANCH   5  25
ATOM     25  C   UNL     1       1.969   9.652  18.196  0.00  0.00    +0.000 A 
ATOM     26  C   UNL     1       2.799  10.715  17.817  0.00  0.00    +0.000 A 
ATOM     27  C   UNL     1       2.374  12.036  17.976  0.00  0.00    +0.000 A 
ATOM     28  C   UNL     1       1.113  12.304  18.506  0.00  0.00    +0.000 A 
ATOM     29  C   UNL     1       0.267  11.253  18.856  0.00  0.00    +0.000 A 
ATOM     30  C   UNL     1       0.690   9.930  18.698  0.00  0.00    +0.000 A 
ENDBRANCH   5  25
TORSDOF 2
ENDMDL
MODEL 8
REMARK VINA RESULT:      -7.9      5.006      9.052
REMARK  Name = 
REMARK  3 active torsions:
REMARK  status: ('A' for Active; 'I' for Inactive)
REMARK    1  A    between atoms: C_1  and  C_2
REMARK    2  A    between atoms: N_6  and  C_7
REMARK    3  A    between atoms: C_11  and  C_12
REMARK                            x       y       z     vdW  Elec       q    Type
REMARK                         _______ _______ _______ _____ _____    ______ ____
ROOT
ATOM      1  C   UNL     1      -0.104  15.626  19.469  0.00  0.00    +0.000 A 
ATOM      2  C   UNL     1       0.472  14.472  19.048  0.00  0.00    +0.000 A 
ATOM      3  C   UNL     1       0.197  13.174  19.712  0.00  0.00    +0.000 A 
ATOM      4  N   UNL     1       0.733  12.036  19.435  0.00  0.00    +0.000 NA
ATOM      5  C   UNL     1       0.337  10.925  20.182  0.00  0.00    +0.000 A 
ATOM      6  N   UNL     1      -0.540  10.928  21.152  0.00  0.00    +0.000 NA
ATOM      7  N   UNL     1      -1.079  12.133  21.423  0.00  0.00    +0.000 N 
ATOM      8  C   UNL     1      -2.023  12.485  22.370  0.00  0.00    +0.000 A 
ATOM      9  C   UNL     1      -2.698  11.713  23.327  0.00  0.00    +0.000 A 
ATOM     10  C   UNL     1      -3.613  12.362  24.163  0.00  0.00    +0.000 A 
ATOM     11  C   UNL     1      -3.852  13.729  24.047  0.00  0.00    +0.000 A 
ATOM     12  C   UNL     1      -3.174  14.496  23.094  0.00  0.00    +0.000 A 
ATOM     13  C   UNL     1      -2.239  13.873  22.245  0.00  0.00    +0.000 A 
ATOM     14  C   UNL     1      -1.385  14.344  21.210  0.00  0.00    +0.000 A 
ATOM     15  C   UNL     1      -1.119  15.649  20.645  0.00  0.00    +0.000 A 
ATOM     16  O   UNL     1      -1.651  16.673  21.056  0.00  0.00    +0.000 OA
ATOM     17  C   UNL     1      -0.739  13.239  20.747  0.00  0.00    +0.000 A 
ENDROOT
BRANCH   1  23
ATOM     18  C   UNL     1       2.693  16.605  17.070  0.00  0.00    +0.000 C 
ATOM     19  C   UNL     1       2.153  17.871  17.747  0.00  0.00    +0.000 C 
ATOM     20  C   UNL     1       1.187  18.631  16.825  0.00  0.00    +0.000 C 
ATOM     21  C   UNL     1      -0.132  17.883  16.649  0.00  0.00    +0.000 C 
ATOM     22  C   UNL     1      -0.759  17.546  17.996  0.00  0.00    +0.000 C 
ATOM     23  N   UNL     1       0.199  16.866  18.882  0.00  0.00    +0.000 N 
ATOM     24  C   UNL     1       1.473  17.559  19.092  0.00  0.00    +0.000 C 
ENDBRANCH   1  23
BRANCH   5  25
ATOM     25  C   UNL     1       0.984   9.630  19.783  0.00  0.00    +0.000 A 
ATOM     26  C   UNL     1       1.151   8.598  20.716  0.00  0.00    +0.000 A 
ATOM     27  C   UNL     1       1.824   7.426  20.362  0.00  0.00    +0.000 A 
ATOM     28  C   UNL     1       2.326   7.273  19.070  0.00  0.00    +0.000 A 
ATOM     29  C   UNL     1       2.137   8.282  18.125  0.00  0.00    +0.000 A 
ATOM     30  C   UNL     1       1.463   9.455  18.478  0.00  0.00    +0.000 A 
ENDBRANCH   5  25
TORSDOF 2
ENDMDL
MODEL 9
REMARK VINA RESULT:      -7.7      9.130     12.465
REMARK  Name = 
REMARK  3 active torsions:
REMARK  status: ('A' for Active; 'I' for Inactive)
REMARK    1  A    between atoms: C_1  and  C_2
REMARK    2  A    between atoms: N_6  and  C_7
REMARK    3  A    between atoms: C_11  and  C_12
REMARK                            x       y       z     vdW  Elec       q    Type
REMARK                         _______ _______ _______ _____ _____    ______ ____
ROOT
ATOM      1  C   UNL     1       9.567  12.292  21.387  0.00  0.00    +0.000 A 
ATOM      2  C   UNL     1       8.834  11.497  22.208  0.00  0.00    +0.000 A 
ATOM      3  C   UNL     1       8.196  12.024  23.440  0.00  0.00    +0.000 A 
ATOM      4  N   UNL     1       7.535  11.349  24.315  0.00  0.00    +0.000 NA
ATOM      5  C   UNL     1       7.011  12.035  25.413  0.00  0.00    +0.000 A 
ATOM      6  N   UNL     1       7.128  13.317  25.641  0.00  0.00    +0.000 NA
ATOM      7  N   UNL     1       7.828  13.995  24.712  0.00  0.00    +0.000 N 
ATOM      8  C   UNL     1       8.136  15.341  24.646  0.00  0.00    +0.000 A 
ATOM      9  C   UNL     1       7.821  16.400  25.511  0.00  0.00    +0.000 A 
ATOM     10  C   UNL     1       8.280  17.677  25.174  0.00  0.00    +0.000 A 
ATOM     11  C   UNL     1       9.020  17.895  24.015  0.00  0.00    +0.000 A 
ATOM     12  C   UNL     1       9.335  16.837  23.157  0.00  0.00    +0.000 A 
ATOM     13  C   UNL     1       8.896  15.538  23.474  0.00  0.00    +0.000 A 
ATOM     14  C   UNL     1       9.050  14.268  22.852  0.00  0.00    +0.000 A 
ATOM     15  C   UNL     1       9.744  13.810  21.668  0.00  0.00    +0.000 A 
ATOM     16  O   UNL     1      10.405  14.554  20.954  0.00  0.00    +0.000 OA
ATOM     17  C   UNL     1       8.362  13.396  23.637  0.00  0.00    +0.000 A 
ENDROOT
BRANCH   1  23
ATOM     18  C   UNL     1       9.393  13.395  17.742  0.00  0.00    +0.000 C 
ATOM     19  C   UNL     1       9.928  11.959  17.801  0.00  0.00    +0.000 C 
ATOM     20  C   UNL     1      11.457  11.923  17.649  0.00  0.00    +0.000 C 
ATOM     21  C   UNL     1      12.162  12.483  18.881  0.00  0.00    +0.000 C 
ATOM     22  C   UNL     1      11.688  11.786  20.151  0.00  0.00    +0.000 C 
ATOM     23  N   UNL     1      10.221  11.786  20.252  0.00  0.00    +0.000 N 
ATOM     24  C   UNL     1       9.504  11.241  19.095  0.00  0.00    +0.000 C 
ENDBRANCH   1  23
BRANCH   5  25
ATOM     25  C   UNL     1       6.230  11.187  26.376  0.00  0.00    +0.000 A 
ATOM     26  C   UNL     1       6.820  10.720  27.558  0.00  0.00    +0.000 A 
ATOM     27  C   UNL     1       6.115   9.867  28.410  0.00  0.00    +0.000 A 
ATOM     28  C   UNL     1       4.813   9.482  28.093  0.00  0.00    +0.000 A 
ATOM     29  C   UNL     1       4.206   9.968  26.935  0.00  0.00    +0.000 A 
ATOM     30  C   UNL     1       4.909  10.822  26.080  0.00  0.00    +0.000 A 
ENDBRANCH   5  25
TORSDOF 2
ENDMDL
