MODEL 1
REMARK VINA RESULT:      -6.9      0.000      0.000
REMARK  Name = 
REMARK  6 active torsions:
REMARK  status: ('A' for Active; 'I' for Inactive)
REMARK    1  A    between atoms: C_1  and  C_2
REMARK    2  A    between atoms: C_2  and  C_3
REMARK    3  A    between atoms: C_2  and  N_14
REMARK    4  A    between atoms: N_5  and  C_6
REMARK    5  A    between atoms: C_6  and  C_7
REMARK    6  A    between atoms: C_18  and  C_19
REMARK                            x       y       z     vdW  Elec       q    Type
REMARK                         _______ _______ _______ _____ _____    ______ ____
ROOT
ATOM      1  C   UNL     1       0.288   8.411  21.516  0.00  0.00    +0.000 C 
ATOM      2  C   UNL     1       1.280   8.894  20.453  0.00  0.00    +0.000 C 
ENDROOT
BRANCH   2   3
ATOM      3  N   UNL     1       0.648   9.790  19.429  0.00  0.00    +0.000 NA
ATOM      4  C   UNL     1      -0.751  10.102  19.803  0.00  0.00    +0.000 C 
ATOM      5  C   UNL     1      -1.418  10.989  18.752  0.00  0.00    +0.000 C 
ATOM      6  C   UNL     1      -0.679  12.312  18.601  0.00  0.00    +0.000 C 
ATOM      7  C   UNL     1       0.809  12.072  18.327  0.00  0.00    +0.000 C 
ATOM      8  C   UNL     1       1.408  11.060  19.329  0.00  0.00    +0.000 C 
BRANCH   7   9
ATOM      9  C   UNL     1       1.571  13.363  18.403  0.00  0.00    +0.000 A 
ATOM     10  C   UNL     1       1.290  14.546  19.053  0.00  0.00    +0.000 A 
ATOM     11  C   UNL     1       2.401  15.367  18.809  0.00  0.00    +0.000 A 
ATOM     12  N   UNL     1       3.318  14.763  18.051  0.00  0.00    +0.000 NA
ATOM     13  N   UNL     1       2.793  13.549  17.815  0.00  0.00    +0.000 N 
ATOM     14  H   UNL     1       3.334  12.894  17.257  0.00  0.00    +0.000 HD
ENDBRANCH   7   9
ENDBRANCH   2   3
BRANCH   2  15
ATOM     15  C   UNL     1       1.952   7.671  19.777  0.00  0.00    +0.000 C 
ATOM     16  O   UNL     1       2.366   7.740  18.621  0.00  0.00    +0.000 OA
ATOM     17  N   UNL     1       1.995   6.507  20.514  0.00  0.00    +0.000 N 
ATOM     18  H   UNL     1       1.549   6.517  21.426  0.00  0.00    +0.000 HD
BRANCH  17  19
ATOM     19  C   UNL     1       2.497   5.213  19.991  0.00  0.00    +0.000 C 
ATOM     20  C   UNL     1       1.675   4.748  18.756  0.00  0.00    +0.000 C 
ATOM     21  C   UNL     1       2.290   3.565  17.999  0.00  0.00    +0.000 C 
ATOM     22  C   UNL     1       3.759   3.799  17.666  0.00  0.00    +0.000 C 
ATOM     23  C   UNL     1       4.566   4.107  18.921  0.00  0.00    +0.000 C 
ATOM     24  C   UNL     1       4.007   5.327  19.653  0.00  0.00    +0.000 C 
BRANCH  19  25
ATOM     25  C   UNL     1       2.335   4.185  21.073  0.00  0.00    +0.000 C 
ATOM     26  N   UNL     1       2.228   3.372  21.893  0.00  0.00    +0.000 NA
ENDBRANCH  19  25
ENDBRANCH  17  19
ENDBRANCH   2  15
TORSDOF 5
ENDMDL
MODEL 2
REMARK VINA RESULT:      -6.8      3.374      8.031
REMARK  Name = 
REMARK  6 active torsions:
REMARK  status: ('A' for Active; 'I' for Inactive)
REMARK    1  A    between atoms: C_1  and  C_2
REMARK    2  A    between atoms: C_2  and  C_3
REMARK    3  A    between atoms: C_2  and  N_14
REMARK    4  A    between atoms: N_5  and  C_6
REMARK    5  A    between atoms: C_6  and  C_7
REMARK    6  A    between atoms: C_18  and  C_19
REMARK                            x       y       z     vdW  Elec       q    Type
REMARK                         _______ _______ _______ _____ _____    ______ ____
ROOT
ATOM      1  C   UNL     1       2.066   5.001  19.024  0.00  0.00    +0.000 C 
ATOM      2  C   UNL     1       2.655   6.218  18.303  0.00  0.00    +0.000 C 
ENDROOT
BRANCH   2   3
ATOM      3  N   UNL     1       4.153   6.189  18.239  0.00  0.00    +0.000 NA
ATOM      4  C   UNL     1       4.699   5.239  19.235  0.00  0.00    +0.000 C 
ATOM      5  C   UNL     1       6.227   5.223  19.202  0.00  0.00    +0.000 C 
ATOM      6  C   UNL     1       6.743   4.797  17.835  0.00  0.00    +0.000 C 
ATOM      7  C   UNL     1       6.129   5.664  16.731  0.00  0.00    +0.000 C 
ATOM      8  C   UNL     1       4.594   5.767  16.887  0.00  0.00    +0.000 C 
BRANCH   7   9
ATOM      9  C   UNL     1       6.458   5.103  15.378  0.00  0.00    +0.000 A 
ATOM     10  C   UNL     1       5.829   4.140  14.617  0.00  0.00    +0.000 A 
ATOM     11  C   UNL     1       6.563   4.086  13.424  0.00  0.00    +0.000 A 
ATOM     12  N   UNL     1       7.591   4.937  13.424  0.00  0.00    +0.000 NA
ATOM     13  N   UNL     1       7.509   5.542  14.620  0.00  0.00    +0.000 N 
ATOM     14  H   UNL     1       8.196   6.257  14.843  0.00  0.00    +0.000 HD
ENDBRANCH   7   9
ENDBRANCH   2   3
BRANCH   2  15
ATOM     15  C   UNL     1       2.156   7.517  18.986  0.00  0.00    +0.000 C 
ATOM     16  O   UNL     1       2.164   7.627  20.211  0.00  0.00    +0.000 OA
ATOM     17  N   UNL     1       1.653   8.496  18.154  0.00  0.00    +0.000 N 
ATOM     18  H   UNL     1       1.604   8.283  17.162  0.00  0.00    +0.000 HD
BRANCH  17  19
ATOM     19  C   UNL     1       1.033   9.754  18.636  0.00  0.00    +0.000 C 
ATOM     20  C   UNL     1       0.780   9.705  20.170  0.00  0.00    +0.000 C 
ATOM     21  C   UNL     1       0.391  11.053  20.787  0.00  0.00    +0.000 C 
ATOM     22  C   UNL     1       1.355  12.165  20.391  0.00  0.00    +0.000 C 
ATOM     23  C   UNL     1       1.466  12.284  18.876  0.00  0.00    +0.000 C 
ATOM     24  C   UNL     1       1.920  10.966  18.249  0.00  0.00    +0.000 C 
BRANCH  19  25
ATOM     25  C   UNL     1      -0.294   9.906  17.950  0.00  0.00    +0.000 C 
ATOM     26  N   UNL     1      -1.318  10.052  17.426  0.00  0.00    +0.000 NA
ENDBRANCH  19  25
ENDBRANCH  17  19
ENDBRANCH   2  15
TORSDOF 5
ENDMDL
MODEL 3
REMARK VINA RESULT:      -6.7      3.296      8.039
REMARK  Name = 
REMARK  6 active torsions:
REMARK  status: ('A' for Active; 'I' for Inactive)
REMARK    1  A    between atoms: C_1  and  C_2
REMARK    2  A    between atoms: C_2  and  C_3
REMARK    3  A    between atoms: C_2  and  N_14
REMARK    4  A    between atoms: N_5  and  C_6
REMARK    5  A    between atoms: C_6  and  C_7
REMARK    6  A    between atoms: C_18  and  C_19
REMARK                            x       y       z     vdW  Elec       q    Type
REMARK                         _______ _______ _______ _____ _____    ______ ____
ROOT
ATOM      1  C   UNL     1       1.977   5.090  18.989  0.00  0.00    +0.000 C 
ATOM      2  C   UNL     1       2.613   6.295  18.287  0.00  0.00    +0.000 C 
ENDROOT
BRANCH   2   3
ATOM      3  N   UNL     1       4.112   6.229  18.261  0.00  0.00    +0.000 NA
ATOM      4  C   UNL     1       4.608   5.255  19.261  0.00  0.00    +0.000 C 
ATOM      5  C   UNL     1       6.136   5.202  19.267  0.00  0.00    +0.000 C 
ATOM      6  C   UNL     1       6.676   4.777  17.909  0.00  0.00    +0.000 C 
ATOM      7  C   UNL     1       6.112   5.670  16.799  0.00  0.00    +0.000 C 
ATOM      8  C   UNL     1       4.577   5.809  16.917  0.00  0.00    +0.000 C 
BRANCH   7   9
ATOM      9  C   UNL     1       6.463   5.114  15.449  0.00  0.00    +0.000 A 
ATOM     10  C   UNL     1       5.854   4.144  14.681  0.00  0.00    +0.000 A 
ATOM     11  C   UNL     1       6.601   4.100  13.495  0.00  0.00    +0.000 A 
ATOM     12  N   UNL     1       7.617   4.965  13.506  0.00  0.00    +0.000 NA
ATOM     13  N   UNL     1       7.516   5.568  14.702  0.00  0.00    +0.000 N 
ATOM     14  H   UNL     1       8.190   6.292  14.932  0.00  0.00    +0.000 HD
ENDBRANCH   7   9
ENDBRANCH   2   3
BRANCH   2  15
ATOM     15  C   UNL     1       2.129   7.604  18.961  0.00  0.00    +0.000 C 
ATOM     16  O   UNL     1       2.186   7.740  20.182  0.00  0.00    +0.000 OA
ATOM     17  N   UNL     1       1.583   8.559  18.130  0.00  0.00    +0.000 N 
ATOM     18  H   UNL     1       1.496   8.324  17.146  0.00  0.00    +0.000 HD
BRANCH  17  19
ATOM     19  C   UNL     1       0.970   9.821  18.609  0.00  0.00    +0.000 C 
ATOM     20  C   UNL     1      -0.387  10.092  17.898  0.00  0.00    +0.000 C 
ATOM     21  C   UNL     1      -1.208  11.227  18.520  0.00  0.00    +0.000 C 
ATOM     22  C   UNL     1      -1.363  11.063  20.028  0.00  0.00    +0.000 C 
ATOM     23  C   UNL     1      -0.006  10.949  20.712  0.00  0.00    +0.000 C 
ATOM     24  C   UNL     1       0.799   9.778  20.150  0.00  0.00    +0.000 C 
BRANCH  19  25
ATOM     25  C   UNL     1       1.906  10.945  18.271  0.00  0.00    +0.000 C 
ATOM     26  N   UNL     1       2.640  11.797  17.989  0.00  0.00    +0.000 NA
ENDBRANCH  19  25
ENDBRANCH  17  19
ENDBRANCH   2  15
TORSDOF 5
ENDMDL
MODEL 4
REMARK VINA RESULT:      -6.7      0.883      1.535
REMARK  Name = 
REMARK  6 active torsions:
REMARK  status: ('A' for Active; 'I' for Inactive)
REMARK    1  A    between atoms: C_1  and  C_2
REMARK    2  A    between atoms: C_2  and  C_3
REMARK    3  A    between atoms: C_2  and  N_14
REMARK    4  A    between atoms: N_5  and  C_6
REMARK    5  A    between atoms: C_6  and  C_7
REMARK    6  A    between atoms: C_18  and  C_19
REMARK                            x       y       z     vdW  Elec       q    Type
REMARK                         _______ _______ _______ _____ _____    ______ ____
ROOT
ATOM      1  C   UNL     1       0.442   8.411  21.468  0.00  0.00    +0.000 C 
ATOM      2  C   UNL     1       1.385   8.907  20.367  0.00  0.00    +0.000 C 
ENDROOT
BRANCH   2   3
ATOM      3  N   UNL     1       0.712   9.832  19.397  0.00  0.00    +0.000 NA
ATOM      4  C   UNL     1      -0.664  10.145  19.845  0.00  0.00    +0.000 C 
ATOM      5  C   UNL     1      -1.373  11.062  18.848  0.00  0.00    +0.000 C 
ATOM      6  C   UNL     1      -0.632  12.383  18.694  0.00  0.00    +0.000 C 
ATOM      7  C   UNL     1       0.840  12.140  18.344  0.00  0.00    +0.000 C 
ATOM      8  C   UNL     1       1.477  11.099  19.292  0.00  0.00    +0.000 C 
BRANCH   7   9
ATOM      9  C   UNL     1       1.615  13.423  18.416  0.00  0.00    +0.000 A 
ATOM     10  C   UNL     1       1.402  14.573  19.148  0.00  0.00    +0.000 A 
ATOM     11  C   UNL     1       2.493  15.402  18.844  0.00  0.00    +0.000 A 
ATOM     12  N   UNL     1       3.332  14.834  17.976  0.00  0.00    +0.000 NA
ATOM     13  N   UNL     1       2.779  13.636  17.728  0.00  0.00    +0.000 N 
ATOM     14  H   UNL     1       3.261  13.008  17.091  0.00  0.00    +0.000 HD
ENDBRANCH   7   9
ENDBRANCH   2   3
BRANCH   2  15
ATOM     15  C   UNL     1       2.008   7.693  19.631  0.00  0.00    +0.000 C 
ATOM     16  O   UNL     1       2.438   7.806  18.485  0.00  0.00    +0.000 OA
ATOM     17  N   UNL     1       1.989   6.490  20.304  0.00  0.00    +0.000 N 
ATOM     18  H   UNL     1       1.533   6.471  21.212  0.00  0.00    +0.000 HD
BRANCH  17  19
ATOM     19  C   UNL     1       2.438   5.204  19.716  0.00  0.00    +0.000 C 
ATOM     20  C   UNL     1       2.140   4.014  20.672  0.00  0.00    +0.000 C 
ATOM     21  C   UNL     1       2.328   2.632  20.034  0.00  0.00    +0.000 C 
ATOM     22  C   UNL     1       1.593   2.510  18.704  0.00  0.00    +0.000 C 
ATOM     23  C   UNL     1       2.019   3.607  17.737  0.00  0.00    +0.000 C 
ATOM     24  C   UNL     1       1.775   4.994  18.330  0.00  0.00    +0.000 C 
BRANCH  19  25
ATOM     25  C   UNL     1       3.924   5.282  19.518  0.00  0.00    +0.000 C 
ATOM     26  N   UNL     1       5.076   5.339  19.395  0.00  0.00    +0.000 NA
ENDBRANCH  19  25
ENDBRANCH  17  19
ENDBRANCH   2  15
TORSDOF 5
ENDMDL
MODEL 5
REMARK VINA RESULT:      -6.7      4.789      7.578
REMARK  Name = 
REMARK  6 active torsions:
REMARK  status: ('A' for Active; 'I' for Inactive)
REMARK    1  A    between atoms: C_1  and  C_2
REMARK    2  A    between atoms: C_2  and  C_3
REMARK    3  A    between atoms: C_2  and  N_14
REMARK    4  A    between atoms: N_5  and  C_6
REMARK    5  A    between atoms: C_6  and  C_7
REMARK    6  A    between atoms: C_18  and  C_19
REMARK                            x       y       z     vdW  Elec       q    Type
REMARK                         _______ _______ _______ _____ _____    ______ ____
ROOT
ATOM      1  C   UNL     1       3.648   8.003  17.091  0.00  0.00    +0.000 C 
ATOM      2  C   UNL     1       4.312   7.070  18.109  0.00  0.00    +0.000 C 
ENDROOT
BRANCH   2   3
ATOM      3  N   UNL     1       5.684   6.633  17.691  0.00  0.00    +0.000 NA
ATOM      4  C   UNL     1       6.223   5.629  18.637  0.00  0.00    +0.000 C 
ATOM      5  C   UNL     1       7.635   5.198  18.239  0.00  0.00    +0.000 C 
ATOM      6  C   UNL     1       7.647   4.571  16.852  0.00  0.00    +0.000 C 
ATOM      7  C   UNL     1       6.995   5.507  15.829  0.00  0.00    +0.000 C 
ATOM      8  C   UNL     1       5.632   6.029  16.336  0.00  0.00    +0.000 C 
BRANCH   7   9
ATOM      9  C   UNL     1       6.804   4.800  14.518  0.00  0.00    +0.000 A 
ATOM     10  C   UNL     1       5.946   3.785  14.151  0.00  0.00    +0.000 A 
ATOM     11  C   UNL     1       6.186   3.586  12.783  0.00  0.00    +0.000 A 
ATOM     12  N   UNL     1       7.133   4.400  12.313  0.00  0.00    +0.000 NA
ATOM     13  N   UNL     1       7.495   5.127  13.383  0.00  0.00    +0.000 N 
ATOM     14  H   UNL     1       8.209   5.839  13.259  0.00  0.00    +0.000 HD
ENDBRANCH   7   9
ENDBRANCH   2   3
BRANCH   2  15
ATOM     15  C   UNL     1       3.396   5.846  18.365  0.00  0.00    +0.000 C 
ATOM     16  O   UNL     1       2.235   5.832  17.959  0.00  0.00    +0.000 OA
ATOM     17  N   UNL     1       3.933   4.822  19.117  0.00  0.00    +0.000 N 
ATOM     18  H   UNL     1       4.869   4.958  19.487  0.00  0.00    +0.000 HD
BRANCH  17  19
ATOM     19  C   UNL     1       3.171   3.627  19.554  0.00  0.00    +0.000 C 
ATOM     20  C   UNL     1       2.188   3.977  20.708  0.00  0.00    +0.000 C 
ATOM     21  C   UNL     1       1.180   2.869  21.035  0.00  0.00    +0.000 C 
ATOM     22  C   UNL     1       0.461   2.363  19.789  0.00  0.00    +0.000 C 
ATOM     23  C   UNL     1       1.452   1.889  18.735  0.00  0.00    +0.000 C 
ATOM     24  C   UNL     1       2.423   3.003  18.347  0.00  0.00    +0.000 C 
BRANCH  19  25
ATOM     25  C   UNL     1       4.154   2.616  20.069  0.00  0.00    +0.000 C 
ATOM     26  N   UNL     1       4.932   1.858  20.475  0.00  0.00    +0.000 NA
ENDBRANCH  19  25
ENDBRANCH  17  19
ENDBRANCH   2  15
TORSDOF 5
ENDMDL
MODEL 6
REMARK VINA RESULT:      -6.7      1.478      1.911
REMARK  Name = 
REMARK  6 active torsions:
REMARK  status: ('A' for Active; 'I' for Inactive)
REMARK    1  A    between atoms: C_1  and  C_2
REMARK    2  A    between atoms: C_2  and  C_3
REMARK    3  A    between atoms: C_2  and  N_14
REMARK    4  A    between atoms: N_5  and  C_6
REMARK    5  A    between atoms: C_6  and  C_7
REMARK    6  A    between atoms: C_18  and  C_19
REMARK                            x       y       z     vdW  Elec       q    Type
REMARK                         _______ _______ _______ _____ _____    ______ ____
ROOT
ATOM      1  C   UNL     1       0.745   8.743  21.426  0.00  0.00    +0.000 C 
ATOM      2  C   UNL     1       1.480   9.155  20.147  0.00  0.00    +0.000 C 
ENDROOT
BRANCH   2   3
ATOM      3  N   UNL     1       0.619   9.950  19.211  0.00  0.00    +0.000 NA
ATOM      4  C   UNL     1      -0.813   9.782  19.550  0.00  0.00    +0.000 C 
ATOM      5  C   UNL     1      -1.704  10.562  18.583  0.00  0.00    +0.000 C 
ATOM      6  C   UNL     1      -1.394  12.052  18.631  0.00  0.00    +0.000 C 
ATOM      7  C   UNL     1       0.100  12.302  18.404  0.00  0.00    +0.000 C 
ATOM      8  C   UNL     1       0.965  11.389  19.304  0.00  0.00    +0.000 C 
BRANCH   7   9
ATOM      9  C   UNL     1       0.439  13.739  18.676  0.00  0.00    +0.000 A 
ATOM     10  C   UNL     1       1.648  14.357  18.915  0.00  0.00    +0.000 A 
ATOM     11  C   UNL     1       1.340  15.720  19.037  0.00  0.00    +0.000 A 
ATOM     12  N   UNL     1       0.034  15.957  18.899  0.00  0.00    +0.000 NA
ATOM     13  N   UNL     1      -0.494  14.741  18.683  0.00  0.00    +0.000 N 
ATOM     14  H   UNL     1      -1.496  14.674  18.532  0.00  0.00    +0.000 HD
ENDBRANCH   7   9
ENDBRANCH   2   3
BRANCH   2  15
ATOM     15  C   UNL     1       2.043   7.894  19.443  0.00  0.00    +0.000 C 
ATOM     16  O   UNL     1       2.392   7.934  18.264  0.00  0.00    +0.000 OA
ATOM     17  N   UNL     1       2.067   6.733  20.187  0.00  0.00    +0.000 N 
ATOM     18  H   UNL     1       1.677   6.772  21.124  0.00  0.00    +0.000 HD
BRANCH  17  19
ATOM     19  C   UNL     1       2.467   5.411  19.647  0.00  0.00    +0.000 C 
ATOM     20  C   UNL     1       2.075   4.263  20.620  0.00  0.00    +0.000 C 
ATOM     21  C   UNL     1       2.211   2.857  20.024  0.00  0.00    +0.000 C 
ATOM     22  C   UNL     1       1.516   2.738  18.673  0.00  0.00    +0.000 C 
ATOM     23  C   UNL     1       2.032   3.785  17.694  0.00  0.00    +0.000 C 
ATOM     24  C   UNL     1       1.841   5.198  18.244  0.00  0.00    +0.000 C 
BRANCH  19  25
ATOM     25  C   UNL     1       3.961   5.406  19.499  0.00  0.00    +0.000 C 
ATOM     26  N   UNL     1       5.114   5.373  19.384  0.00  0.00    +0.000 NA
ENDBRANCH  19  25
ENDBRANCH  17  19
ENDBRANCH   2  15
TORSDOF 5
ENDMDL
MODEL 7
REMARK VINA RESULT:      -6.6      1.216      1.216
REMARK  Name = 
REMARK  6 active torsions:
REMARK  status: ('A' for Active; 'I' for Inactive)
REMARK    1  A    between atoms: C_1  and  C_2
REMARK    2  A    between atoms: C_2  and  C_3
REMARK    3  A    between atoms: C_2  and  N_14
REMARK    4  A    between atoms: N_5  and  C_6
REMARK    5  A    between atoms: C_6  and  C_7
REMARK    6  A    between atoms: C_18  and  C_19
REMARK                            x       y       z     vdW  Elec       q    Type
REMARK                         _______ _______ _______ _____ _____    ______ ____
ROOT
ATOM      1  C   UNL     1       0.693   8.753  21.476  0.00  0.00    +0.000 C 
ATOM      2  C   UNL     1       1.464   9.182  20.223  0.00  0.00    +0.000 C 
ENDROOT
BRANCH   2   3
ATOM      3  N   UNL     1       0.632   9.996  19.277  0.00  0.00    +0.000 NA
ATOM      4  C   UNL     1      -0.810   9.770  19.524  0.00  0.00    +0.000 C 
ATOM      5  C   UNL     1      -1.669  10.571  18.545  0.00  0.00    +0.000 C 
ATOM      6  C   UNL     1      -1.412  12.064  18.683  0.00  0.00    +0.000 C 
ATOM      7  C   UNL     1       0.085  12.370  18.556  0.00  0.00    +0.000 C 
ATOM      8  C   UNL     1       0.925  11.439  19.460  0.00  0.00    +0.000 C 
BRANCH   7   9
ATOM      9  C   UNL     1       0.361  13.800  18.915  0.00  0.00    +0.000 A 
ATOM     10  C   UNL     1       1.450  14.390  19.521  0.00  0.00    +0.000 A 
ATOM     11  C   UNL     1       1.158  15.762  19.534  0.00  0.00    +0.000 A 
ATOM     12  N   UNL     1      -0.031  16.030  18.992  0.00  0.00    +0.000 NA
ATOM     13  N   UNL     1      -0.498  14.826  18.625  0.00  0.00    +0.000 N 
ATOM     14  H   UNL     1      -1.404  14.782  18.166  0.00  0.00    +0.000 HD
ENDBRANCH   7   9
ENDBRANCH   2   3
BRANCH   2  15
ATOM     15  C   UNL     1       2.039   7.929  19.514  0.00  0.00    +0.000 C 
ATOM     16  O   UNL     1       2.293   7.948  18.311  0.00  0.00    +0.000 OA
ATOM     17  N   UNL     1       2.183   6.796  20.287  0.00  0.00    +0.000 N 
ATOM     18  H   UNL     1       1.864   6.846  21.250  0.00  0.00    +0.000 HD
BRANCH  17  19
ATOM     19  C   UNL     1       2.611   5.479  19.756  0.00  0.00    +0.000 C 
ATOM     20  C   UNL     1       1.818   5.106  18.471  0.00  0.00    +0.000 C 
ATOM     21  C   UNL     1       2.378   3.897  17.714  0.00  0.00    +0.000 C 
ATOM     22  C   UNL     1       3.876   4.024  17.458  0.00  0.00    +0.000 C 
ATOM     23  C   UNL     1       4.640   4.241  18.758  0.00  0.00    +0.000 C 
ATOM     24  C   UNL     1       4.140   5.484  19.493  0.00  0.00    +0.000 C 
BRANCH  19  25
ATOM     25  C   UNL     1       2.318   4.443  20.801  0.00  0.00    +0.000 C 
ATOM     26  N   UNL     1       2.071   3.630  21.591  0.00  0.00    +0.000 NA
ENDBRANCH  19  25
ENDBRANCH  17  19
ENDBRANCH   2  15
TORSDOF 5
ENDMDL
MODEL 8
REMARK VINA RESULT:      -6.6      1.660      1.745
REMARK  Name = 
REMARK  6 active torsions:
REMARK  status: ('A' for Active; 'I' for Inactive)
REMARK    1  A    between atoms: C_1  and  C_2
REMARK    2  A    between atoms: C_2  and  C_3
REMARK    3  A    between atoms: C_2  and  N_14
REMARK    4  A    between atoms: N_5  and  C_6
REMARK    5  A    between atoms: C_6  and  C_7
REMARK    6  A    between atoms: C_18  and  C_19
REMARK                            x       y       z     vdW  Elec       q    Type
REMARK                         _______ _______ _______ _____ _____    ______ ____
ROOT
ATOM      1  C   UNL     1      -0.170   8.221  21.580  0.00  0.00    +0.000 C 
ATOM      2  C   UNL     1       1.121   8.731  20.932  0.00  0.00    +0.000 C 
ENDROOT
BRANCH   2   3
ATOM      3  N   UNL     1       0.899   9.925  20.051  0.00  0.00    +0.000 NA
ATOM      4  C   UNL     1      -0.472   9.911  19.492  0.00  0.00    +0.000 C 
ATOM      5  C   UNL     1      -0.702  11.107  18.566  0.00  0.00    +0.000 C 
ATOM      6  C   UNL     1      -0.527  12.421  19.313  0.00  0.00    +0.000 C 
ATOM      7  C   UNL     1       0.831  12.464  20.022  0.00  0.00    +0.000 C 
ATOM      8  C   UNL     1       1.081  11.172  20.833  0.00  0.00    +0.000 C 
BRANCH   7   9
ATOM      9  C   UNL     1       0.909  13.652  20.935  0.00  0.00    +0.000 A 
ATOM     10  C   UNL     1      -0.073  14.490  21.421  0.00  0.00    +0.000 A 
ATOM     11  C   UNL     1       0.598  15.376  22.276  0.00  0.00    +0.000 A 
ATOM     12  N   UNL     1       1.910  15.136  22.325  0.00  0.00    +0.000 NA
ATOM     13  N   UNL     1       2.077  14.087  21.502  0.00  0.00    +0.000 N 
ATOM     14  H   UNL     1       3.013  13.711  21.390  0.00  0.00    +0.000 HD
ENDBRANCH   7   9
ENDBRANCH   2   3
BRANCH   2  15
ATOM     15  C   UNL     1       1.796   7.581  20.143  0.00  0.00    +0.000 C 
ATOM     16  O   UNL     1       2.214   7.762  19.000  0.00  0.00    +0.000 OA
ATOM     17  N   UNL     1       1.838   6.350  20.764  0.00  0.00    +0.000 N 
ATOM     18  H   UNL     1       1.389   6.272  21.671  0.00  0.00    +0.000 HD
BRANCH  17  19
ATOM     19  C   UNL     1       2.343   5.113  20.120  0.00  0.00    +0.000 C 
ATOM     20  C   UNL     1       1.458   4.710  18.905  0.00  0.00    +0.000 C 
ATOM     21  C   UNL     1       2.058   3.604  18.029  0.00  0.00    +0.000 C 
ATOM     22  C   UNL     1       3.496   3.909  17.626  0.00  0.00    +0.000 C 
ATOM     23  C   UNL     1       4.371   4.153  18.849  0.00  0.00    +0.000 C 
ATOM     24  C   UNL     1       3.824   5.300  19.700  0.00  0.00    +0.000 C 
BRANCH  19  25
ATOM     25  C   UNL     1       2.278   4.007  21.132  0.00  0.00    +0.000 C 
ATOM     26  N   UNL     1       2.209   3.169  21.930  0.00  0.00    +0.000 NA
ENDBRANCH  19  25
ENDBRANCH  17  19
ENDBRANCH   2  15
TORSDOF 5
ENDMDL
MODEL 9
REMARK VINA RESULT:      -6.5      2.309      3.899
REMARK  Name = 
REMARK  6 active torsions:
REMARK  status: ('A' for Active; 'I' for Inactive)
REMARK    1  A    between atoms: C_1  and  C_2
REMARK    2  A    between atoms: C_2  and  C_3
REMARK    3  A    between atoms: C_2  and  N_14
REMARK    4  A    between atoms: N_5  and  C_6
REMARK    5  A    between atoms: C_6  and  C_7
REMARK    6  A    between atoms: C_18  and  C_19
REMARK                            x       y       z     vdW  Elec       q    Type
REMARK                         _______ _______ _______ _____ _____    ______ ____
ROOT
ATOM      1  C   UNL     1       3.027   9.505  17.698  0.00  0.00    +0.000 C 
ATOM      2  C   UNL     1       1.693   8.888  18.131  0.00  0.00    +0.000 C 
ENDROOT
BRANCH   2   3
ATOM      3  N   UNL     1       0.771   9.884  18.769  0.00  0.00    +0.000 NA
ATOM      4  C   UNL     1       1.411  11.217  18.840  0.00  0.00    +0.000 C 
ATOM      5  C   UNL     1       0.493  12.234  19.519  0.00  0.00    +0.000 C 
ATOM      6  C   UNL     1      -0.811  12.395  18.750  0.00  0.00    +0.000 C 
ATOM      7  C   UNL     1      -1.482  11.034  18.531  0.00  0.00    +0.000 C 
ATOM      8  C   UNL     1      -0.478   9.998  17.976  0.00  0.00    +0.000 C 
BRANCH   7   9
ATOM      9  C   UNL     1      -2.640  11.166  17.586  0.00  0.00    +0.000 A 
ATOM     10  C   UNL     1      -3.989  11.328  17.820  0.00  0.00    +0.000 A 
ATOM     11  C   UNL     1      -4.565  11.452  16.547  0.00  0.00    +0.000 A 
ATOM     12  N   UNL     1      -3.659  11.363  15.572  0.00  0.00    +0.000 NA
ATOM     13  N   UNL     1      -2.498  11.188  16.225  0.00  0.00    +0.000 N 
ATOM     14  H   UNL     1      -1.647  11.108  15.676  0.00  0.00    +0.000 HD
ENDBRANCH   7   9
ENDBRANCH   2   3
BRANCH   2  15
ATOM     15  C   UNL     1       1.959   7.693  19.081  0.00  0.00    +0.000 C 
ATOM     16  O   UNL     1       2.009   7.856  20.299  0.00  0.00    +0.000 OA
ATOM     17  N   UNL     1       2.196   6.472  18.484  0.00  0.00    +0.000 N 
ATOM     18  H   UNL     1       2.223   6.449  17.469  0.00  0.00    +0.000 HD
BRANCH  17  19
ATOM     19  C   UNL     1       2.576   5.246  19.227  0.00  0.00    +0.000 C 
ATOM     20  C   UNL     1       1.917   5.215  20.636  0.00  0.00    +0.000 C 
ATOM     21  C   UNL     1       2.042   3.870  21.360  0.00  0.00    +0.000 C 
ATOM     22  C   UNL     1       1.598   2.704  20.483  0.00  0.00    +0.000 C 
ATOM     23  C   UNL     1       2.371   2.677  19.170  0.00  0.00    +0.000 C 
ATOM     24  C   UNL     1       2.201   3.987  18.402  0.00  0.00    +0.000 C 
BRANCH  19  25
ATOM     25  C   UNL     1       4.066   5.262  19.409  0.00  0.00    +0.000 C 
ATOM     26  N   UNL     1       5.214   5.250  19.570  0.00  0.00    +0.000 NA
ENDBRANCH  19  25
ENDBRANCH  17  19
ENDBRANCH   2  15
TORSDOF 5
ENDMDL
