MODEL 1
REMARK VINA RESULT:      -6.7      0.000      0.000
REMARK  Name = 
REMARK  6 active torsions:
REMARK  status: ('A' for Active; 'I' for Inactive)
REMARK    1  A    between atoms: C_1  and  C_2
REMARK    2  A    between atoms: C_2  and  N_3
REMARK    3  A    between atoms: N_6  and  C_7
REMARK    4  A    between atoms: C_13  and  C_14
REMARK    5  A    between atoms: C_17  and  C_18
REMARK    6  A    between atoms: C_17  and  C_19
REMARK                            x       y       z     vdW  Elec       q    Type
REMARK                         _______ _______ _______ _____ _____    ______ ____
ROOT
ATOM      1  N   UNL     1       2.136   4.725  19.597  0.00  0.00    +0.000 N 
ATOM      2  C   UNL     1       3.101   5.293  18.743  0.00  0.00    +0.000 C 
ATOM      3  S   UNL     1       3.110   6.883  18.215  0.00  0.00    +0.000 S 
ATOM      4  N   UNL     1       3.980   4.288  18.373  0.00  0.00    +0.000 N 
ATOM      5  C   UNL     1       3.589   3.067  18.887  0.00  0.00    +0.000 C 
ATOM      6  O   UNL     1       4.111   1.977  18.701  0.00  0.00    +0.000 OA
ATOM      7  C   UNL     1       2.359   3.287  19.780  0.00  0.00    +0.000 C 
ATOM      8  C   UNL     1       1.203   2.436  19.247  0.00  0.00    +0.000 C 
ATOM      9  C   UNL     1       2.715   2.918  21.219  0.00  0.00    +0.000 C 
ENDROOT
BRANCH   4  10
ATOM     10  C   UNL     1       5.050   4.415  17.459  0.00  0.00    +0.000 A 
ATOM     11  C   UNL     1       4.855   4.035  16.120  0.00  0.00    +0.000 A 
ATOM     12  C   UNL     1       5.877   4.213  15.189  0.00  0.00    +0.000 A 
ATOM     13 CL   UNL     1       5.624   3.779  13.541  0.00  0.00    +0.000 Cl
ATOM     14  C   UNL     1       7.098   4.755  15.576  0.00  0.00    +0.000 A 
ATOM     15  C   UNL     1       7.310   5.104  16.909  0.00  0.00    +0.000 A 
ATOM     16  C   UNL     1       6.299   4.930  17.867  0.00  0.00    +0.000 A 
ATOM     17  C   UNL     1       6.612   5.224  19.310  0.00  0.00    +0.000 C 
ENDBRANCH   4  10
BRANCH   1  19
ATOM     18  C   UNL     1       1.334   6.584  21.052  0.00  0.00    +0.000 C 
ATOM     19  C   UNL     1       0.967   5.407  20.164  0.00  0.00    +0.000 C 
ENDBRANCH   1  19
TORSDOF 2
ENDMDL
MODEL 2
REMARK VINA RESULT:      -6.0      2.782      5.768
REMARK  Name = 
REMARK  6 active torsions:
REMARK  status: ('A' for Active; 'I' for Inactive)
REMARK    1  A    between atoms: C_1  and  C_2
REMARK    2  A    between atoms: C_2  and  N_3
REMARK    3  A    between atoms: N_6  and  C_7
REMARK    4  A    between atoms: C_13  and  C_14
REMARK    5  A    between atoms: C_17  and  C_18
REMARK    6  A    between atoms: C_17  and  C_19
REMARK                            x       y       z     vdW  Elec       q    Type
REMARK                         _______ _______ _______ _____ _____    ______ ____
ROOT
ATOM      1  N   UNL     1       6.003   4.949  16.612  0.00  0.00    +0.000 N 
ATOM      2  C   UNL     1       4.771   4.568  17.179  0.00  0.00    +0.000 C 
ATOM      3  S   UNL     1       3.393   4.163  16.317  0.00  0.00    +0.000 S 
ATOM      4  N   UNL     1       4.895   4.663  18.555  0.00  0.00    +0.000 N 
ATOM      5  C   UNL     1       6.131   5.162  18.914  0.00  0.00    +0.000 C 
ATOM      6  O   UNL     1       6.534   5.420  20.040  0.00  0.00    +0.000 OA
ATOM      7  C   UNL     1       6.972   5.338  17.641  0.00  0.00    +0.000 C 
ATOM      8  C   UNL     1       7.396   6.805  17.529  0.00  0.00    +0.000 C 
ATOM      9  C   UNL     1       8.179   4.405  17.707  0.00  0.00    +0.000 C 
ENDROOT
BRANCH   4  10
ATOM     10  C   UNL     1       3.864   4.448  19.499  0.00  0.00    +0.000 A 
ATOM     11  C   UNL     1       3.043   5.526  19.872  0.00  0.00    +0.000 A 
ATOM     12  C   UNL     1       1.981   5.321  20.751  0.00  0.00    +0.000 A 
ATOM     13 CL   UNL     1       0.955   6.636  21.181  0.00  0.00    +0.000 Cl
ATOM     14  C   UNL     1       1.730   4.056  21.274  0.00  0.00    +0.000 A 
ATOM     15  C   UNL     1       2.560   2.989  20.933  0.00  0.00    +0.000 A 
ATOM     16  C   UNL     1       3.640   3.171  20.054  0.00  0.00    +0.000 A 
ATOM     17  C   UNL     1       4.567   2.012  19.800  0.00  0.00    +0.000 C 
ENDBRANCH   4  10
BRANCH   1  19
ATOM     18  C   UNL     1       6.291   3.739  14.450  0.00  0.00    +0.000 C 
ATOM     19  C   UNL     1       6.300   5.072  15.180  0.00  0.00    +0.000 C 
ENDBRANCH   1  19
TORSDOF 2
ENDMDL
MODEL 3
REMARK VINA RESULT:      -5.7      2.808      5.758
REMARK  Name = 
REMARK  6 active torsions:
REMARK  status: ('A' for Active; 'I' for Inactive)
REMARK    1  A    between atoms: C_1  and  C_2
REMARK    2  A    between atoms: C_2  and  N_3
REMARK    3  A    between atoms: N_6  and  C_7
REMARK    4  A    between atoms: C_13  and  C_14
REMARK    5  A    between atoms: C_17  and  C_18
REMARK    6  A    between atoms: C_17  and  C_19
REMARK                            x       y       z     vdW  Elec       q    Type
REMARK                         _______ _______ _______ _____ _____    ______ ____
ROOT
ATOM      1  N   UNL     1       6.035   4.342  16.578  0.00  0.00    +0.000 N 
ATOM      2  C   UNL     1       4.757   4.101  17.121  0.00  0.00    +0.000 C 
ATOM      3  S   UNL     1       3.488   3.362  16.317  0.00  0.00    +0.000 S 
ATOM      4  N   UNL     1       4.732   4.649  18.393  0.00  0.00    +0.000 N 
ATOM      5  C   UNL     1       5.913   5.305  18.680  0.00  0.00    +0.000 C 
ATOM      6  O   UNL     1       6.188   5.939  19.689  0.00  0.00    +0.000 OA
ATOM      7  C   UNL     1       6.881   5.099  17.505  0.00  0.00    +0.000 C 
ATOM      8  C   UNL     1       7.284   6.469  16.954  0.00  0.00    +0.000 C 
ATOM      9  C   UNL     1       8.092   4.307  17.990  0.00  0.00    +0.000 C 
ENDROOT
BRANCH   4  10
ATOM     10  C   UNL     1       3.611   4.700  19.253  0.00  0.00    +0.000 A 
ATOM     11  C   UNL     1       3.316   3.587  20.059  0.00  0.00    +0.000 A 
ATOM     12  C   UNL     1       2.253   3.642  20.960  0.00  0.00    +0.000 A 
ATOM     13 CL   UNL     1       1.915   2.290  21.972  0.00  0.00    +0.000 Cl
ATOM     14  C   UNL     1       1.472   4.788  21.062  0.00  0.00    +0.000 A 
ATOM     15  C   UNL     1       1.738   5.883  20.241  0.00  0.00    +0.000 A 
ATOM     16  C   UNL     1       2.799   5.851  19.322  0.00  0.00    +0.000 A 
ATOM     17  C   UNL     1       2.980   7.018  18.388  0.00  0.00    +0.000 C 
ENDBRANCH   4  10
BRANCH   1  19
ATOM     18  C   UNL     1       5.811   4.844  14.145  0.00  0.00    +0.000 C 
ATOM     19  C   UNL     1       6.480   4.005  15.221  0.00  0.00    +0.000 C 
ENDBRANCH   1  19
TORSDOF 2
ENDMDL
MODEL 4
REMARK VINA RESULT:      -5.5      1.400      1.656
REMARK  Name = 
REMARK  6 active torsions:
REMARK  status: ('A' for Active; 'I' for Inactive)
REMARK    1  A    between atoms: C_1  and  C_2
REMARK    2  A    between atoms: C_2  and  N_3
REMARK    3  A    between atoms: N_6  and  C_7
REMARK    4  A    between atoms: C_13  and  C_14
REMARK    5  A    between atoms: C_17  and  C_18
REMARK    6  A    between atoms: C_17  and  C_19
REMARK                            x       y       z     vdW  Elec       q    Type
REMARK                         _______ _______ _______ _____ _____    ______ ____
ROOT
ATOM      1  N   UNL     1       3.160   5.425  18.789  0.00  0.00    +0.000 N 
ATOM      2  C   UNL     1       4.055   5.736  17.747  0.00  0.00    +0.000 C 
ATOM      3  S   UNL     1       4.485   7.283  17.270  0.00  0.00    +0.000 S 
ATOM      4  N   UNL     1       4.445   4.544  17.158  0.00  0.00    +0.000 N 
ATOM      5  C   UNL     1       3.786   3.469  17.720  0.00  0.00    +0.000 C 
ATOM      6  O   UNL     1       3.860   2.293  17.391  0.00  0.00    +0.000 OA
ATOM      7  C   UNL     1       2.921   3.982  18.881  0.00  0.00    +0.000 C 
ATOM      8  C   UNL     1       1.462   3.605  18.612  0.00  0.00    +0.000 C 
ATOM      9  C   UNL     1       3.429   3.376  20.187  0.00  0.00    +0.000 C 
ENDROOT
BRANCH   4  10
ATOM     10  C   UNL     1       5.276   4.412  16.022  0.00  0.00    +0.000 A 
ATOM     11  C   UNL     1       4.696   4.079  14.786  0.00  0.00    +0.000 A 
ATOM     12  C   UNL     1       5.489   4.007  13.642  0.00  0.00    +0.000 A 
ATOM     13 CL   UNL     1       4.771   3.632  12.121  0.00  0.00    +0.000 Cl
ATOM     14  C   UNL     1       6.856   4.252  13.713  0.00  0.00    +0.000 A 
ATOM     15  C   UNL     1       7.444   4.551  14.942  0.00  0.00    +0.000 A 
ATOM     16  C   UNL     1       6.668   4.624  16.110  0.00  0.00    +0.000 A 
ATOM     17  C   UNL     1       7.364   4.847  17.426  0.00  0.00    +0.000 C 
ENDBRANCH   4  10
BRANCH   1  19
ATOM     18  C   UNL     1       1.957   7.609  18.864  0.00  0.00    +0.000 C 
ATOM     19  C   UNL     1       2.437   6.387  19.629  0.00  0.00    +0.000 C 
ENDBRANCH   1  19
TORSDOF 2
ENDMDL
MODEL 5
REMARK VINA RESULT:      -5.4      2.084      2.595
REMARK  Name = 
REMARK  6 active torsions:
REMARK  status: ('A' for Active; 'I' for Inactive)
REMARK    1  A    between atoms: C_1  and  C_2
REMARK    2  A    between atoms: C_2  and  N_3
REMARK    3  A    between atoms: N_6  and  C_7
REMARK    4  A    between atoms: C_13  and  C_14
REMARK    5  A    between atoms: C_17  and  C_18
REMARK    6  A    between atoms: C_17  and  C_19
REMARK                            x       y       z     vdW  Elec       q    Type
REMARK                         _______ _______ _______ _____ _____    ______ ____
ROOT
ATOM      1  N   UNL     1       2.818   2.980  19.928  0.00  0.00    +0.000 N 
ATOM      2  C   UNL     1       3.902   3.510  19.202  0.00  0.00    +0.000 C 
ATOM      3  S   UNL     1       5.492   3.546  19.727  0.00  0.00    +0.000 S 
ATOM      4  N   UNL     1       3.399   4.048  18.029  0.00  0.00    +0.000 N 
ATOM      5  C   UNL     1       2.022   3.963  17.988  0.00  0.00    +0.000 C 
ATOM      6  O   UNL     1       1.272   4.395  17.124  0.00  0.00    +0.000 OA
ATOM      7  C   UNL     1       1.546   3.197  19.232  0.00  0.00    +0.000 C 
ATOM      8  C   UNL     1       0.584   4.089  20.022  0.00  0.00    +0.000 C 
ATOM      9  C   UNL     1       0.877   1.897  18.792  0.00  0.00    +0.000 C 
ENDROOT
BRANCH   4  10
ATOM     10  C   UNL     1       4.142   4.752  17.053  0.00  0.00    +0.000 A 
ATOM     11  C   UNL     1       4.817   4.030  16.055  0.00  0.00    +0.000 A 
ATOM     12  C   UNL     1       5.501   4.708  15.046  0.00  0.00    +0.000 A 
ATOM     13 CL   UNL     1       6.299   3.821  13.804  0.00  0.00    +0.000 Cl
ATOM     14  C   UNL     1       5.531   6.098  15.025  0.00  0.00    +0.000 A 
ATOM     15  C   UNL     1       4.891   6.821  16.031  0.00  0.00    +0.000 A 
ATOM     16  C   UNL     1       4.200   6.162  17.060  0.00  0.00    +0.000 A 
ATOM     17  C   UNL     1       3.615   6.984  18.178  0.00  0.00    +0.000 C 
ENDBRANCH   4  10
BRANCH   1  19
ATOM     18  C   UNL     1       1.804   2.906  22.205  0.00  0.00    +0.000 C 
ATOM     19  C   UNL     1       2.877   2.382  21.266  0.00  0.00    +0.000 C 
ENDBRANCH   1  19
TORSDOF 2
ENDMDL
MODEL 6
REMARK VINA RESULT:      -5.4      1.947      2.691
REMARK  Name = 
REMARK  6 active torsions:
REMARK  status: ('A' for Active; 'I' for Inactive)
REMARK    1  A    between atoms: C_1  and  C_2
REMARK    2  A    between atoms: C_2  and  N_3
REMARK    3  A    between atoms: N_6  and  C_7
REMARK    4  A    between atoms: C_13  and  C_14
REMARK    5  A    between atoms: C_17  and  C_18
REMARK    6  A    between atoms: C_17  and  C_19
REMARK                            x       y       z     vdW  Elec       q    Type
REMARK                         _______ _______ _______ _____ _____    ______ ____
ROOT
ATOM      1  N   UNL     1       2.120   4.676  18.887  0.00  0.00    +0.000 N 
ATOM      2  C   UNL     1       3.130   4.004  18.169  0.00  0.00    +0.000 C 
ATOM      3  S   UNL     1       3.370   2.347  18.158  0.00  0.00    +0.000 S 
ATOM      4  N   UNL     1       3.913   4.964  17.549  0.00  0.00    +0.000 N 
ATOM      5  C   UNL     1       3.507   6.239  17.889  0.00  0.00    +0.000 C 
ATOM      6  O   UNL     1       4.020   7.299  17.561  0.00  0.00    +0.000 OA
ATOM      7  C   UNL     1       2.250   6.131  18.766  0.00  0.00    +0.000 C 
ATOM      8  C   UNL     1       2.524   6.814  20.108  0.00  0.00    +0.000 C 
ATOM      9  C   UNL     1       1.075   6.775  18.034  0.00  0.00    +0.000 C 
ENDROOT
BRANCH   4  10
ATOM     10  C   UNL     1       5.084   4.720  16.796  0.00  0.00    +0.000 A 
ATOM     11  C   UNL     1       4.964   4.326  15.452  0.00  0.00    +0.000 A 
ATOM     12  C   UNL     1       6.106   4.143  14.675  0.00  0.00    +0.000 A 
ATOM     13 CL   UNL     1       5.956   3.693  13.019  0.00  0.00    +0.000 Cl
ATOM     14  C   UNL     1       7.371   4.338  15.220  0.00  0.00    +0.000 A 
ATOM     15  C   UNL     1       7.499   4.697  16.562  0.00  0.00    +0.000 A 
ATOM     16  C   UNL     1       6.364   4.882  17.367  0.00  0.00    +0.000 A 
ATOM     17  C   UNL     1       6.558   5.167  18.833  0.00  0.00    +0.000 C 
ENDBRANCH   4  10
BRANCH   1  19
ATOM     18  C   UNL     1       1.677   3.588  21.087  0.00  0.00    +0.000 C 
ATOM     19  C   UNL     1       1.113   4.056  19.755  0.00  0.00    +0.000 C 
ENDBRANCH   1  19
TORSDOF 2
ENDMDL
MODEL 7
REMARK VINA RESULT:      -5.3      1.828      2.515
REMARK  Name = 
REMARK  6 active torsions:
REMARK  status: ('A' for Active; 'I' for Inactive)
REMARK    1  A    between atoms: C_1  and  C_2
REMARK    2  A    between atoms: C_2  and  N_3
REMARK    3  A    between atoms: N_6  and  C_7
REMARK    4  A    between atoms: C_13  and  C_14
REMARK    5  A    between atoms: C_17  and  C_18
REMARK    6  A    between atoms: C_17  and  C_19
REMARK                            x       y       z     vdW  Elec       q    Type
REMARK                         _______ _______ _______ _____ _____    ______ ____
ROOT
ATOM      1  N   UNL     1       2.464   3.274  19.481  0.00  0.00    +0.000 N 
ATOM      2  C   UNL     1       3.688   3.021  18.831  0.00  0.00    +0.000 C 
ATOM      3  S   UNL     1       4.642   1.665  19.061  0.00  0.00    +0.000 S 
ATOM      4  N   UNL     1       3.979   4.120  18.040  0.00  0.00    +0.000 N 
ATOM      5  C   UNL     1       3.036   5.116  18.200  0.00  0.00    +0.000 C 
ATOM      6  O   UNL     1       3.032   6.229  17.692  0.00  0.00    +0.000 OA
ATOM      7  C   UNL     1       1.934   4.597  19.135  0.00  0.00    +0.000 C 
ATOM      8  C   UNL     1       1.834   5.529  20.345  0.00  0.00    +0.000 C 
ATOM      9  C   UNL     1       0.617   4.529  18.365  0.00  0.00    +0.000 C 
ENDROOT
BRANCH   4  10
ATOM     10  C   UNL     1       5.157   4.310  17.283  0.00  0.00    +0.000 A 
ATOM     11  C   UNL     1       5.171   3.926  15.931  0.00  0.00    +0.000 A 
ATOM     12  C   UNL     1       6.302   4.165  15.151  0.00  0.00    +0.000 A 
ATOM     13 CL   UNL     1       6.305   3.726  13.485  0.00  0.00    +0.000 Cl
ATOM     14  C   UNL     1       7.426   4.770  15.703  0.00  0.00    +0.000 A 
ATOM     15  C   UNL     1       7.431   5.123  17.052  0.00  0.00    +0.000 A 
ATOM     16  C   UNL     1       6.307   4.889  17.860  0.00  0.00    +0.000 A 
ATOM     17  C   UNL     1       6.400   5.193  19.332  0.00  0.00    +0.000 C 
ENDBRANCH   4  10
BRANCH   1  19
ATOM     18  C   UNL     1       2.329   2.635  21.888  0.00  0.00    +0.000 C 
ATOM     19  C   UNL     1       1.814   2.414  20.475  0.00  0.00    +0.000 C 
ENDBRANCH   1  19
TORSDOF 2
ENDMDL
MODEL 8
REMARK VINA RESULT:      -5.0      2.866      5.614
REMARK  Name = 
REMARK  6 active torsions:
REMARK  status: ('A' for Active; 'I' for Inactive)
REMARK    1  A    between atoms: C_1  and  C_2
REMARK    2  A    between atoms: C_2  and  N_3
REMARK    3  A    between atoms: N_6  and  C_7
REMARK    4  A    between atoms: C_13  and  C_14
REMARK    5  A    between atoms: C_17  and  C_18
REMARK    6  A    between atoms: C_17  and  C_19
REMARK                            x       y       z     vdW  Elec       q    Type
REMARK                         _______ _______ _______ _____ _____    ______ ____
ROOT
ATOM      1  N   UNL     1       6.486   6.466  17.523  0.00  0.00    +0.000 N 
ATOM      2  C   UNL     1       5.089   6.509  17.698  0.00  0.00    +0.000 C 
ATOM      3  S   UNL     1       4.074   7.694  17.091  0.00  0.00    +0.000 S 
ATOM      4  N   UNL     1       4.735   5.446  18.512  0.00  0.00    +0.000 N 
ATOM      5  C   UNL     1       5.848   4.751  18.942  0.00  0.00    +0.000 C 
ATOM      6  O   UNL     1       5.885   3.803  19.713  0.00  0.00    +0.000 OA
ATOM      7  C   UNL     1       7.089   5.357  18.268  0.00  0.00    +0.000 C 
ATOM      8  C   UNL     1       8.058   5.830  19.354  0.00  0.00    +0.000 C 
ATOM      9  C   UNL     1       7.726   4.306  17.362  0.00  0.00    +0.000 C 
ENDROOT
BRANCH   4  10
ATOM     10  C   UNL     1       3.437   5.171  19.001  0.00  0.00    +0.000 A 
ATOM     11  C   UNL     1       2.850   6.057  19.921  0.00  0.00    +0.000 A 
ATOM     12  C   UNL     1       1.547   5.839  20.365  0.00  0.00    +0.000 A 
ATOM     13 CL   UNL     1       0.817   6.945  21.465  0.00  0.00    +0.000 Cl
ATOM     14  C   UNL     1       0.822   4.740  19.914  0.00  0.00    +0.000 A 
ATOM     15  C   UNL     1       1.410   3.838  19.028  0.00  0.00    +0.000 A 
ATOM     16  C   UNL     1       2.723   4.033  18.569  0.00  0.00    +0.000 A 
ATOM     17  C   UNL     1       3.347   2.978  17.696  0.00  0.00    +0.000 C 
ENDBRANCH   4  10
BRANCH   1  19
ATOM     18  C   UNL     1       7.792   8.585  17.675  0.00  0.00    +0.000 C 
ATOM     19  C   UNL     1       7.301   7.446  16.797  0.00  0.00    +0.000 C 
ENDBRANCH   1  19
TORSDOF 2
ENDMDL
MODEL 9
REMARK VINA RESULT:      -4.9     10.399     12.030
REMARK  Name = 
REMARK  6 active torsions:
REMARK  status: ('A' for Active; 'I' for Inactive)
REMARK    1  A    between atoms: C_1  and  C_2
REMARK    2  A    between atoms: C_2  and  N_3
REMARK    3  A    between atoms: N_6  and  C_7
REMARK    4  A    between atoms: C_13  and  C_14
REMARK    5  A    between atoms: C_17  and  C_18
REMARK    6  A    between atoms: C_17  and  C_19
REMARK                            x       y       z     vdW  Elec       q    Type
REMARK                         _______ _______ _______ _____ _____    ______ ____
ROOT
ATOM      1  N   UNL     1       9.175  13.470  18.670  0.00  0.00    +0.000 N 
ATOM      2  C   UNL     1       9.317  13.077  20.015  0.00  0.00    +0.000 C 
ATOM      3  S   UNL     1      10.298  11.835  20.562  0.00  0.00    +0.000 S 
ATOM      4  N   UNL     1       8.453  13.850  20.772  0.00  0.00    +0.000 N 
ATOM      5  C   UNL     1       7.693  14.682  19.973  0.00  0.00    +0.000 C 
ATOM      6  O   UNL     1       6.802  15.443  20.321  0.00  0.00    +0.000 OA
ATOM      7  C   UNL     1       8.162  14.519  18.519  0.00  0.00    +0.000 C 
ATOM      8  C   UNL     1       6.973  14.074  17.664  0.00  0.00    +0.000 C 
ATOM      9  C   UNL     1       8.744  15.844  18.031  0.00  0.00    +0.000 C 
ENDROOT
BRANCH   4  10
ATOM     10  C   UNL     1       8.223  13.721  22.161  0.00  0.00    +0.000 A 
ATOM     11  C   UNL     1       7.299  12.766  22.616  0.00  0.00    +0.000 A 
ATOM     12  C   UNL     1       7.106  12.578  23.984  0.00  0.00    +0.000 A 
ATOM     13 CL   UNL     1       5.999  11.382  24.540  0.00  0.00    +0.000 Cl
ATOM     14  C   UNL     1       7.815  13.340  24.908  0.00  0.00    +0.000 A 
ATOM     15  C   UNL     1       8.709  14.313  24.463  0.00  0.00    +0.000 A 
ATOM     16  C   UNL     1       8.917  14.524  23.091  0.00  0.00    +0.000 A 
ATOM     17  C   UNL     1       9.813  15.656  22.662  0.00  0.00    +0.000 C 
ENDBRANCH   4  10
BRANCH   1  19
ATOM     18  C   UNL     1      11.250  13.388  17.288  0.00  0.00    +0.000 C 
ATOM     19  C   UNL     1       9.842  12.863  17.512  0.00  0.00    +0.000 C 
ENDBRANCH   1  19
TORSDOF 2
ENDMDL
