MODEL 1
REMARK VINA RESULT:      -7.2      0.000      0.000
REMARK  Name = 
REMARK  16 active torsions:
REMARK  status: ('A' for Active; 'I' for Inactive)
REMARK    1  A    between atoms: C_1  and  C_2
REMARK    2  A    between atoms: C_2  and  O_3
REMARK    3  A    between atoms: O_3  and  C_4
REMARK    4  A    between atoms: C_4  and  C_5
REMARK    5  A    between atoms: C_5  and  C_6
REMARK    6  A    between atoms: C_6  and  C_7
REMARK    7  A    between atoms: C_7  and  N_8
REMARK    8  A    between atoms: C_9  and  C_11
REMARK    9  A    between atoms: C_11  and  C_12
REMARK   10  A    between atoms: C_11  and  C_13
REMARK   11  A    between atoms: C_11  and  C_14
REMARK   12  A    between atoms: C_19  and  O_21
REMARK   13  A    between atoms: O_21  and  C_22
REMARK   14  A    between atoms: C_22  and  C_23
REMARK   15  A    between atoms: C_22  and  C_24
REMARK   16  A    between atoms: C_22  and  C_25
REMARK                            x       y       z     vdW  Elec       q    Type
REMARK                         _______ _______ _______ _____ _____    ______ ____
ROOT
ATOM      1  C   UNL     1       2.686   5.547  19.428  0.00  0.00    +0.000 C 
ATOM      2  C   UNL     1       1.802   4.850  18.366  0.00  0.00    +0.000 C 
ATOM      3  C   UNL     1       2.343   4.915  20.791  0.00  0.00    +0.000 C 
ENDROOT
BRANCH   1   4
ATOM      4  C   UNL     1       2.459   7.100  19.448  0.00  0.00    +0.000 C 
ATOM      5  C   UNL     1       2.434   7.732  18.032  0.00  0.00    +0.000 C 
ATOM      6  C   UNL     1       2.169   9.243  18.073  0.00  0.00    +0.000 C 
ATOM      7  C   UNL     1       0.910   9.566  18.873  0.00  0.00    +0.000 C 
ATOM      8  N   UNL     1       1.021   8.968  20.194  0.00  0.00    +0.000 N 
ATOM      9  C   UNL     1       1.177   9.689  21.368  0.00  0.00    +0.000 C 
ATOM     10  O   UNL     1       1.374   9.149  22.451  0.00  0.00    +0.000 OA
ATOM     11  C   UNL     1       1.181   7.519  20.213  0.00  0.00    +0.000 C 
BRANCH   9  12
ATOM     12  O   UNL     1       1.096  11.034  21.187  0.00  0.00    +0.000 OA
BRANCH  12  13
ATOM     13  C   UNL     1      -0.149  11.731  21.479  0.00  0.00    +0.000 C 
ATOM     14  C   UNL     1      -1.167  11.570  20.343  0.00  0.00    +0.000 C 
ATOM     15  C   UNL     1      -0.726  11.050  22.733  0.00  0.00    +0.000 C 
ATOM     16  C   UNL     1       0.114  13.203  21.820  0.00  0.00    +0.000 C 
ENDBRANCH  12  13
ENDBRANCH   9  12
ENDBRANCH   1   4
BRANCH   1  18
ATOM     17  N   UNL     1       4.436   4.672  17.836  0.00  0.00    +0.000 N 
ATOM     18  C   UNL     1       4.155   5.179  19.097  0.00  0.00    +0.000 C 
ATOM     19  O   UNL     1       5.064   5.362  19.910  0.00  0.00    +0.000 OA
ATOM     20  H   UNL     1       3.690   4.372  17.226  0.00  0.00    +0.000 HD
BRANCH  17  21
ATOM     21  C   UNL     1       5.820   4.337  17.547  0.00  0.00    +0.000 C 
BRANCH  21  22
ATOM     22  C   UNL     1       6.392   5.197  16.413  0.00  0.00    +0.000 C 
ATOM     23  C   UNL     1       5.311   5.881  15.515  0.00  0.00    +0.000 C 
ATOM     24  C   UNL     1       5.340   4.643  14.596  0.00  0.00    +0.000 C 
ATOM     25  C   UNL     1       6.732   4.319  15.160  0.00  0.00    +0.000 C 
BRANCH  22  26
ATOM     26  C   UNL     1       7.571   6.104  16.815  0.00  0.00    +0.000 C 
BRANCH  26  27
ATOM     27  C   UNL     1       7.212   6.973  18.018  0.00  0.00    +0.000 C 
BRANCH  27  28
ATOM     28  O   UNL     1       8.322   7.778  18.414  0.00  0.00    +0.000 OA
BRANCH  28  30
ATOM     29  C   UNL     1       9.010  10.067  18.740  0.00  0.00    +0.000 C 
ATOM     30  C   UNL     1       8.141   9.118  17.943  0.00  0.00    +0.000 C 
ENDBRANCH  28  30
ENDBRANCH  27  28
ENDBRANCH  26  27
ENDBRANCH  22  26
ENDBRANCH  21  22
ENDBRANCH  17  21
ENDBRANCH   1  18
TORSDOF 10
ENDMDL
MODEL 2
REMARK VINA RESULT:      -7.2      1.569      3.055
REMARK  Name = 
REMARK  16 active torsions:
REMARK  status: ('A' for Active; 'I' for Inactive)
REMARK    1  A    between atoms: C_1  and  C_2
REMARK    2  A    between atoms: C_2  and  O_3
REMARK    3  A    between atoms: O_3  and  C_4
REMARK    4  A    between atoms: C_4  and  C_5
REMARK    5  A    between atoms: C_5  and  C_6
REMARK    6  A    between atoms: C_6  and  C_7
REMARK    7  A    between atoms: C_7  and  N_8
REMARK    8  A    between atoms: C_9  and  C_11
REMARK    9  A    between atoms: C_11  and  C_12
REMARK   10  A    between atoms: C_11  and  C_13
REMARK   11  A    between atoms: C_11  and  C_14
REMARK   12  A    between atoms: C_19  and  O_21
REMARK   13  A    between atoms: O_21  and  C_22
REMARK   14  A    between atoms: C_22  and  C_23
REMARK   15  A    between atoms: C_22  and  C_24
REMARK   16  A    between atoms: C_22  and  C_25
REMARK                            x       y       z     vdW  Elec       q    Type
REMARK                         _______ _______ _______ _____ _____    ______ ____
ROOT
ATOM      1  C   UNL     1       2.578   5.296  19.721  0.00  0.00    +0.000 C 
ATOM      2  C   UNL     1       1.698   4.555  18.684  0.00  0.00    +0.000 C 
ATOM      3  C   UNL     1       2.174   4.777  21.114  0.00  0.00    +0.000 C 
ENDROOT
BRANCH   1   4
ATOM      4  C   UNL     1       2.407   6.854  19.623  0.00  0.00    +0.000 C 
ATOM      5  C   UNL     1       2.377   7.374  18.163  0.00  0.00    +0.000 C 
ATOM      6  C   UNL     1       2.168   8.893  18.089  0.00  0.00    +0.000 C 
ATOM      7  C   UNL     1       0.937   9.323  18.882  0.00  0.00    +0.000 C 
ATOM      8  N   UNL     1       1.051   8.826  20.244  0.00  0.00    +0.000 N 
ATOM      9  C   UNL     1       1.255   9.630  21.355  0.00  0.00    +0.000 C 
ATOM     10  O   UNL     1       1.453   9.168  22.474  0.00  0.00    +0.000 OA
ATOM     11  C   UNL     1       1.159   7.378  20.373  0.00  0.00    +0.000 C 
BRANCH   9  12
ATOM     12  O   UNL     1       1.219  10.959  21.071  0.00  0.00    +0.000 OA
BRANCH  12  13
ATOM     13  C   UNL     1       0.021  11.730  21.370  0.00  0.00    +0.000 C 
ATOM     14  C   UNL     1      -0.682  11.216  22.632  0.00  0.00    +0.000 C 
ATOM     15  C   UNL     1       0.504  13.165  21.647  0.00  0.00    +0.000 C 
ATOM     16  C   UNL     1      -0.919  11.774  20.158  0.00  0.00    +0.000 C 
ENDBRANCH  12  13
ENDBRANCH   9  12
ENDBRANCH   1   4
BRANCH   1  18
ATOM     17  N   UNL     1       5.019   5.837  19.388  0.00  0.00    +0.000 N 
ATOM     18  C   UNL     1       4.041   4.855  19.461  0.00  0.00    +0.000 C 
ATOM     19  O   UNL     1       4.347   3.664  19.358  0.00  0.00    +0.000 OA
ATOM     20  H   UNL     1       4.764   6.810  19.312  0.00  0.00    +0.000 HD
BRANCH  17  21
ATOM     21  C   UNL     1       6.384   5.400  19.147  0.00  0.00    +0.000 C 
BRANCH  21  22
ATOM     22  C   UNL     1       6.844   5.721  17.720  0.00  0.00    +0.000 C 
ATOM     23  C   UNL     1       7.865   6.900  17.622  0.00  0.00    +0.000 C 
ATOM     24  C   UNL     1       6.677   7.870  17.461  0.00  0.00    +0.000 C 
ATOM     25  C   UNL     1       5.827   6.675  17.004  0.00  0.00    +0.000 C 
BRANCH  22  26
ATOM     26  C   UNL     1       7.185   4.493  16.854  0.00  0.00    +0.000 C 
BRANCH  26  27
ATOM     27  C   UNL     1       7.175   4.845  15.368  0.00  0.00    +0.000 C 
BRANCH  27  28
ATOM     28  O   UNL     1       6.368   3.927  14.633  0.00  0.00    +0.000 OA
BRANCH  28  30
ATOM     29  C   UNL     1       5.600   3.296  12.434  0.00  0.00    +0.000 C 
ATOM     30  C   UNL     1       6.631   4.066  13.232  0.00  0.00    +0.000 C 
ENDBRANCH  28  30
ENDBRANCH  27  28
ENDBRANCH  26  27
ENDBRANCH  22  26
ENDBRANCH  21  22
ENDBRANCH  17  21
ENDBRANCH   1  18
TORSDOF 10
ENDMDL
MODEL 3
REMARK VINA RESULT:      -7.1      2.650      4.985
REMARK  Name = 
REMARK  16 active torsions:
REMARK  status: ('A' for Active; 'I' for Inactive)
REMARK    1  A    between atoms: C_1  and  C_2
REMARK    2  A    between atoms: C_2  and  O_3
REMARK    3  A    between atoms: O_3  and  C_4
REMARK    4  A    between atoms: C_4  and  C_5
REMARK    5  A    between atoms: C_5  and  C_6
REMARK    6  A    between atoms: C_6  and  C_7
REMARK    7  A    between atoms: C_7  and  N_8
REMARK    8  A    between atoms: C_9  and  C_11
REMARK    9  A    between atoms: C_11  and  C_12
REMARK   10  A    between atoms: C_11  and  C_13
REMARK   11  A    between atoms: C_11  and  C_14
REMARK   12  A    between atoms: C_19  and  O_21
REMARK   13  A    between atoms: O_21  and  C_22
REMARK   14  A    between atoms: C_22  and  C_23
REMARK   15  A    between atoms: C_22  and  C_24
REMARK   16  A    between atoms: C_22  and  C_25
REMARK                            x       y       z     vdW  Elec       q    Type
REMARK                         _______ _______ _______ _____ _____    ______ ____
ROOT
ATOM      1  C   UNL     1       0.856   8.784  20.927  0.00  0.00    +0.000 C 
ATOM      2  C   UNL     1      -0.446   8.026  21.280  0.00  0.00    +0.000 C 
ATOM      3  C   UNL     1       1.530   9.175  22.257  0.00  0.00    +0.000 C 
ENDROOT
BRANCH   1   4
ATOM      4  C   UNL     1       0.573  10.047  20.039  0.00  0.00    +0.000 C 
ATOM      5  C   UNL     1      -0.814  10.010  19.348  0.00  0.00    +0.000 C 
ATOM      6  C   UNL     1      -1.087  11.273  18.520  0.00  0.00    +0.000 C 
ATOM      7  C   UNL     1      -0.889  12.536  19.352  0.00  0.00    +0.000 C 
ATOM      8  N   UNL     1       0.441  12.514  19.941  0.00  0.00    +0.000 N 
ATOM      9  C   UNL     1       1.472  13.365  19.575  0.00  0.00    +0.000 C 
ATOM     10  O   UNL     1       2.610  13.248  20.017  0.00  0.00    +0.000 OA
ATOM     11  C   UNL     1       0.718  11.380  20.813  0.00  0.00    +0.000 C 
BRANCH   9  12
ATOM     12  O   UNL     1       1.091  14.320  18.685  0.00  0.00    +0.000 OA
BRANCH  12  13
ATOM     13  C   UNL     1       0.949  15.701  19.122  0.00  0.00    +0.000 C 
ATOM     14  C   UNL     1       0.943  15.813  20.652  0.00  0.00    +0.000 C 
ATOM     15  C   UNL     1       2.194  16.438  18.599  0.00  0.00    +0.000 C 
ATOM     16  C   UNL     1      -0.287  16.353  18.488  0.00  0.00    +0.000 C 
ENDBRANCH  12  13
ENDBRANCH   9  12
ENDBRANCH   1   4
BRANCH   1  18
ATOM     17  N   UNL     1       2.054   6.565  20.850  0.00  0.00    +0.000 N 
ATOM     18  C   UNL     1       1.784   7.768  20.212  0.00  0.00    +0.000 C 
ATOM     19  O   UNL     1       2.245   7.994  19.091  0.00  0.00    +0.000 OA
ATOM     20  H   UNL     1       1.817   6.435  21.822  0.00  0.00    +0.000 HD
BRANCH  17  21
ATOM     21  C   UNL     1       2.923   5.627  20.160  0.00  0.00    +0.000 C 
BRANCH  21  22
ATOM     22  C   UNL     1       2.155   4.399  19.656  0.00  0.00    +0.000 C 
ATOM     23  C   UNL     1       0.859   4.073  20.467  0.00  0.00    +0.000 C 
ATOM     24  C   UNL     1       1.705   3.170  21.388  0.00  0.00    +0.000 C 
ATOM     25  C   UNL     1       2.745   3.080  20.262  0.00  0.00    +0.000 C 
BRANCH  22  26
ATOM     26  C   UNL     1       2.003   4.310  18.126  0.00  0.00    +0.000 C 
BRANCH  26  27
ATOM     27  C   UNL     1       3.197   4.943  17.415  0.00  0.00    +0.000 C 
BRANCH  27  28
ATOM     28  O   UNL     1       4.213   3.974  17.165  0.00  0.00    +0.000 OA
BRANCH  28  30
ATOM     29  C   UNL     1       5.386   6.080  17.067  0.00  0.00    +0.000 C 
ATOM     30  C   UNL     1       5.503   4.585  17.278  0.00  0.00    +0.000 C 
ENDBRANCH  28  30
ENDBRANCH  27  28
ENDBRANCH  26  27
ENDBRANCH  22  26
ENDBRANCH  21  22
ENDBRANCH  17  21
ENDBRANCH   1  18
TORSDOF 10
ENDMDL
MODEL 4
REMARK VINA RESULT:      -6.9      2.901      5.107
REMARK  Name = 
REMARK  16 active torsions:
REMARK  status: ('A' for Active; 'I' for Inactive)
REMARK    1  A    between atoms: C_1  and  C_2
REMARK    2  A    between atoms: C_2  and  O_3
REMARK    3  A    between atoms: O_3  and  C_4
REMARK    4  A    between atoms: C_4  and  C_5
REMARK    5  A    between atoms: C_5  and  C_6
REMARK    6  A    between atoms: C_6  and  C_7
REMARK    7  A    between atoms: C_7  and  N_8
REMARK    8  A    between atoms: C_9  and  C_11
REMARK    9  A    between atoms: C_11  and  C_12
REMARK   10  A    between atoms: C_11  and  C_13
REMARK   11  A    between atoms: C_11  and  C_14
REMARK   12  A    between atoms: C_19  and  O_21
REMARK   13  A    between atoms: O_21  and  C_22
REMARK   14  A    between atoms: C_22  and  C_23
REMARK   15  A    between atoms: C_22  and  C_24
REMARK   16  A    between atoms: C_22  and  C_25
REMARK                            x       y       z     vdW  Elec       q    Type
REMARK                         _______ _______ _______ _____ _____    ______ ____
ROOT
ATOM      1  C   UNL     1       0.695   9.010  21.221  0.00  0.00    +0.000 C 
ATOM      2  C   UNL     1      -0.542   8.135  21.536  0.00  0.00    +0.000 C 
ATOM      3  C   UNL     1       1.479   9.180  22.536  0.00  0.00    +0.000 C 
ENDROOT
BRANCH   1   4
ATOM      4  C   UNL     1       0.287  10.400  20.617  0.00  0.00    +0.000 C 
ATOM      5  C   UNL     1      -0.801  10.294  19.519  0.00  0.00    +0.000 C 
ATOM      6  C   UNL     1      -1.215  11.668  18.973  0.00  0.00    +0.000 C 
ATOM      7  C   UNL     1      -1.621  12.614  20.099  0.00  0.00    +0.000 C 
ATOM      8  N   UNL     1      -0.541  12.686  21.072  0.00  0.00    +0.000 N 
ATOM      9  C   UNL     1       0.249  13.805  21.281  0.00  0.00    +0.000 C 
ATOM     10  O   UNL     1       1.219  13.795  22.033  0.00  0.00    +0.000 OA
ATOM     11  C   UNL     1      -0.172  11.418  21.689  0.00  0.00    +0.000 C 
BRANCH   9  12
ATOM     12  O   UNL     1      -0.156  14.891  20.570  0.00  0.00    +0.000 OA
BRANCH  12  13
ATOM     13  C   UNL     1       0.684  15.413  19.503  0.00  0.00    +0.000 C 
ATOM     14  C   UNL     1       1.381  14.286  18.730  0.00  0.00    +0.000 C 
ATOM     15  C   UNL     1      -0.268  16.134  18.533  0.00  0.00    +0.000 C 
ATOM     16  C   UNL     1       1.679  16.447  20.044  0.00  0.00    +0.000 C 
ENDBRANCH  12  13
ENDBRANCH   9  12
ENDBRANCH   1   4
BRANCH   1  18
ATOM     17  N   UNL     1       2.004   6.931  20.646  0.00  0.00    +0.000 N 
ATOM     18  C   UNL     1       1.583   8.192  20.247  0.00  0.00    +0.000 C 
ATOM     19  O   UNL     1       1.883   8.624  19.132  0.00  0.00    +0.000 OA
ATOM     20  H   UNL     1       1.901   6.635  21.605  0.00  0.00    +0.000 HD
BRANCH  17  21
ATOM     21  C   UNL     1       2.832   6.182  19.716  0.00  0.00    +0.000 C 
BRANCH  21  22
ATOM     22  C   UNL     1       2.276   4.777  19.459  0.00  0.00    +0.000 C 
ATOM     23  C   UNL     1       1.057   4.392  20.357  0.00  0.00    +0.000 C 
ATOM     24  C   UNL     1       2.044   3.816  21.392  0.00  0.00    +0.000 C 
ATOM     25  C   UNL     1       3.080   3.699  20.264  0.00  0.00    +0.000 C 
BRANCH  22  26
ATOM     26  C   UNL     1       2.134   4.395  17.973  0.00  0.00    +0.000 C 
BRANCH  26  27
ATOM     27  C   UNL     1       3.377   3.663  17.471  0.00  0.00    +0.000 C 
BRANCH  27  28
ATOM     28  O   UNL     1       4.075   4.448  16.506  0.00  0.00    +0.000 OA
BRANCH  28  30
ATOM     29  C   UNL     1       5.883   4.448  14.908  0.00  0.00    +0.000 C 
ATOM     30  C   UNL     1       5.295   3.794  16.141  0.00  0.00    +0.000 C 
ENDBRANCH  28  30
ENDBRANCH  27  28
ENDBRANCH  26  27
ENDBRANCH  22  26
ENDBRANCH  21  22
ENDBRANCH  17  21
ENDBRANCH   1  18
TORSDOF 10
ENDMDL
MODEL 5
REMARK VINA RESULT:      -6.9      2.974      5.166
REMARK  Name = 
REMARK  16 active torsions:
REMARK  status: ('A' for Active; 'I' for Inactive)
REMARK    1  A    between atoms: C_1  and  C_2
REMARK    2  A    between atoms: C_2  and  O_3
REMARK    3  A    between atoms: O_3  and  C_4
REMARK    4  A    between atoms: C_4  and  C_5
REMARK    5  A    between atoms: C_5  and  C_6
REMARK    6  A    between atoms: C_6  and  C_7
REMARK    7  A    between atoms: C_7  and  N_8
REMARK    8  A    between atoms: C_9  and  C_11
REMARK    9  A    between atoms: C_11  and  C_12
REMARK   10  A    between atoms: C_11  and  C_13
REMARK   11  A    between atoms: C_11  and  C_14
REMARK   12  A    between atoms: C_19  and  O_21
REMARK   13  A    between atoms: O_21  and  C_22
REMARK   14  A    between atoms: C_22  and  C_23
REMARK   15  A    between atoms: C_22  and  C_24
REMARK   16  A    between atoms: C_22  and  C_25
REMARK                            x       y       z     vdW  Elec       q    Type
REMARK                         _______ _______ _______ _____ _____    ______ ____
ROOT
ATOM      1  C   UNL     1       0.837   8.831  21.046  0.00  0.00    +0.000 C 
ATOM      2  C   UNL     1      -0.541   8.137  21.168  0.00  0.00    +0.000 C 
ATOM      3  C   UNL     1       1.415   8.949  22.469  0.00  0.00    +0.000 C 
ENDROOT
BRANCH   1   4
ATOM      4  C   UNL     1       0.722  10.239  20.361  0.00  0.00    +0.000 C 
ATOM      5  C   UNL     1      -0.402  10.310  19.296  0.00  0.00    +0.000 C 
ATOM      6  C   UNL     1      -0.524  11.706  18.669  0.00  0.00    +0.000 C 
ATOM      7  C   UNL     1      -0.673  12.784  19.739  0.00  0.00    +0.000 C 
ATOM      8  N   UNL     1       0.430  12.674  20.681  0.00  0.00    +0.000 N 
ATOM      9  C   UNL     1       1.454  13.602  20.799  0.00  0.00    +0.000 C 
ATOM     10  O   UNL     1       2.423  13.424  21.529  0.00  0.00    +0.000 OA
ATOM     11  C   UNL     1       0.535  11.395  21.373  0.00  0.00    +0.000 C 
BRANCH   9  12
ATOM     12  O   UNL     1       1.270  14.706  20.027  0.00  0.00    +0.000 OA
BRANCH  12  13
ATOM     13  C   UNL     1       2.278  15.079  19.045  0.00  0.00    +0.000 C 
ATOM     14  C   UNL     1       2.601  13.916  18.097  0.00  0.00    +0.000 C 
ATOM     15  C   UNL     1       1.654  16.211  18.211  0.00  0.00    +0.000 C 
ATOM     16  C   UNL     1       3.533  15.635  19.731  0.00  0.00    +0.000 C 
ENDBRANCH  12  13
ENDBRANCH   9  12
ENDBRANCH   1   4
BRANCH   1  18
ATOM     17  N   UNL     1       2.059   6.638  20.807  0.00  0.00    +0.000 N 
ATOM     18  C   UNL     1       1.752   7.869  20.245  0.00  0.00    +0.000 C 
ATOM     19  O   UNL     1       2.170   8.163  19.123  0.00  0.00    +0.000 OA
ATOM     20  H   UNL     1       1.858   6.452  21.777  0.00  0.00    +0.000 HD
BRANCH  17  21
ATOM     21  C   UNL     1       2.915   5.751  20.037  0.00  0.00    +0.000 C 
BRANCH  21  22
ATOM     22  C   UNL     1       2.166   4.497  19.568  0.00  0.00    +0.000 C 
ATOM     23  C   UNL     1       0.837   4.215  20.340  0.00  0.00    +0.000 C 
ATOM     24  C   UNL     1       1.640   3.365  21.345  0.00  0.00    +0.000 C 
ATOM     25  C   UNL     1       2.728   3.213  20.271  0.00  0.00    +0.000 C 
BRANCH  22  26
ATOM     26  C   UNL     1       2.080   4.323  18.040  0.00  0.00    +0.000 C 
BRANCH  26  27
ATOM     27  C   UNL     1       2.654   2.976  17.605  0.00  0.00    +0.000 C 
BRANCH  27  28
ATOM     28  O   UNL     1       4.026   3.102  17.237  0.00  0.00    +0.000 OA
BRANCH  28  30
ATOM     29  C   UNL     1       5.274   4.431  15.656  0.00  0.00    +0.000 C 
ATOM     30  C   UNL     1       4.291   4.442  16.808  0.00  0.00    +0.000 C 
ENDBRANCH  28  30
ENDBRANCH  27  28
ENDBRANCH  26  27
ENDBRANCH  22  26
ENDBRANCH  21  22
ENDBRANCH  17  21
ENDBRANCH   1  18
TORSDOF 10
ENDMDL
MODEL 6
REMARK VINA RESULT:      -6.8      2.092      3.844
REMARK  Name = 
REMARK  16 active torsions:
REMARK  status: ('A' for Active; 'I' for Inactive)
REMARK    1  A    between atoms: C_1  and  C_2
REMARK    2  A    between atoms: C_2  and  O_3
REMARK    3  A    between atoms: O_3  and  C_4
REMARK    4  A    between atoms: C_4  and  C_5
REMARK    5  A    between atoms: C_5  and  C_6
REMARK    6  A    between atoms: C_6  and  C_7
REMARK    7  A    between atoms: C_7  and  N_8
REMARK    8  A    between atoms: C_9  and  C_11
REMARK    9  A    between atoms: C_11  and  C_12
REMARK   10  A    between atoms: C_11  and  C_13
REMARK   11  A    between atoms: C_11  and  C_14
REMARK   12  A    between atoms: C_19  and  O_21
REMARK   13  A    between atoms: O_21  and  C_22
REMARK   14  A    between atoms: C_22  and  C_23
REMARK   15  A    between atoms: C_22  and  C_24
REMARK   16  A    between atoms: C_22  and  C_25
REMARK                            x       y       z     vdW  Elec       q    Type
REMARK                         _______ _______ _______ _____ _____    ______ ____
ROOT
ATOM      1  C   UNL     1       2.307   4.217  18.624  0.00  0.00    +0.000 C 
ATOM      2  C   UNL     1       1.714   3.862  17.239  0.00  0.00    +0.000 C 
ATOM      3  C   UNL     1       1.912   3.085  19.592  0.00  0.00    +0.000 C 
ENDROOT
BRANCH   1   4
ATOM      4  C   UNL     1       1.795   5.609  19.138  0.00  0.00    +0.000 C 
ATOM      5  C   UNL     1       1.443   5.611  20.648  0.00  0.00    +0.000 C 
ATOM      6  C   UNL     1       0.985   6.992  21.138  0.00  0.00    +0.000 C 
ATOM      7  C   UNL     1       2.000   8.073  20.780  0.00  0.00    +0.000 C 
ATOM      8  N   UNL     1       2.257   8.030  19.349  0.00  0.00    +0.000 N 
ATOM      9  C   UNL     1       1.858   9.009  18.453  0.00  0.00    +0.000 C 
ATOM     10  O   UNL     1       1.998   8.889  17.240  0.00  0.00    +0.000 OA
ATOM     11  C   UNL     1       2.782   6.766  18.848  0.00  0.00    +0.000 C 
BRANCH   9  12
ATOM     12  O   UNL     1       1.301  10.094  19.055  0.00  0.00    +0.000 OA
BRANCH  12  13
ATOM     13  C   UNL     1      -0.099  10.414  18.817  0.00  0.00    +0.000 C 
ATOM     14  C   UNL     1      -0.692   9.558  17.690  0.00  0.00    +0.000 C 
ATOM     15  C   UNL     1      -0.838  10.061  20.119  0.00  0.00    +0.000 C 
ATOM     16  C   UNL     1      -0.282  11.916  18.563  0.00  0.00    +0.000 C 
ENDBRANCH  12  13
ENDBRANCH   9  12
ENDBRANCH   1   4
BRANCH   1  18
ATOM     17  N   UNL     1       4.382   4.220  17.189  0.00  0.00    +0.000 N 
ATOM     18  C   UNL     1       3.850   4.186  18.470  0.00  0.00    +0.000 C 
ATOM     19  O   UNL     1       4.595   4.171  19.453  0.00  0.00    +0.000 OA
ATOM     20  H   UNL     1       3.791   4.074  16.384  0.00  0.00    +0.000 HD
BRANCH  17  21
ATOM     21  C   UNL     1       5.830   4.193  17.069  0.00  0.00    +0.000 C 
BRANCH  21  22
ATOM     22  C   UNL     1       6.355   5.360  16.223  0.00  0.00    +0.000 C 
ATOM     23  C   UNL     1       7.199   6.405  17.021  0.00  0.00    +0.000 C 
ATOM     24  C   UNL     1       5.901   7.189  17.302  0.00  0.00    +0.000 C 
ATOM     25  C   UNL     1       5.274   6.487  16.089  0.00  0.00    +0.000 C 
BRANCH  22  26
ATOM     26  C   UNL     1       6.941   4.960  14.856  0.00  0.00    +0.000 C 
BRANCH  26  27
ATOM     27  C   UNL     1       6.229   3.734  14.288  0.00  0.00    +0.000 C 
BRANCH  27  28
ATOM     28  O   UNL     1       5.153   4.120  13.434  0.00  0.00    +0.000 OA
BRANCH  28  30
ATOM     29  C   UNL     1       6.579   2.988  11.852  0.00  0.00    +0.000 C 
ATOM     30  C   UNL     1       5.155   3.308  12.255  0.00  0.00    +0.000 C 
ENDBRANCH  28  30
ENDBRANCH  27  28
ENDBRANCH  26  27
ENDBRANCH  22  26
ENDBRANCH  21  22
ENDBRANCH  17  21
ENDBRANCH   1  18
TORSDOF 10
ENDMDL
MODEL 7
REMARK VINA RESULT:      -6.8      1.889      3.086
REMARK  Name = 
REMARK  16 active torsions:
REMARK  status: ('A' for Active; 'I' for Inactive)
REMARK    1  A    between atoms: C_1  and  C_2
REMARK    2  A    between atoms: C_2  and  O_3
REMARK    3  A    between atoms: O_3  and  C_4
REMARK    4  A    between atoms: C_4  and  C_5
REMARK    5  A    between atoms: C_5  and  C_6
REMARK    6  A    between atoms: C_6  and  C_7
REMARK    7  A    between atoms: C_7  and  N_8
REMARK    8  A    between atoms: C_9  and  C_11
REMARK    9  A    between atoms: C_11  and  C_12
REMARK   10  A    between atoms: C_11  and  C_13
REMARK   11  A    between atoms: C_11  and  C_14
REMARK   12  A    between atoms: C_19  and  O_21
REMARK   13  A    between atoms: O_21  and  C_22
REMARK   14  A    between atoms: C_22  and  C_23
REMARK   15  A    between atoms: C_22  and  C_24
REMARK   16  A    between atoms: C_22  and  C_25
REMARK                            x       y       z     vdW  Elec       q    Type
REMARK                         _______ _______ _______ _____ _____    ______ ____
ROOT
ATOM      1  C   UNL     1       3.299   3.120  18.720  0.00  0.00    +0.000 C 
ATOM      2  C   UNL     1       2.540   2.275  17.668  0.00  0.00    +0.000 C 
ATOM      3  C   UNL     1       3.606   2.193  19.912  0.00  0.00    +0.000 C 
ENDROOT
BRANCH   1   4
ATOM      4  C   UNL     1       2.468   4.372  19.172  0.00  0.00    +0.000 C 
ATOM      5  C   UNL     1       1.663   4.133  20.475  0.00  0.00    +0.000 C 
ATOM      6  C   UNL     1       0.891   5.382  20.922  0.00  0.00    +0.000 C 
ATOM      7  C   UNL     1       1.810   6.596  21.024  0.00  0.00    +0.000 C 
ATOM      8  N   UNL     1       2.505   6.774  19.759  0.00  0.00    +0.000 N 
ATOM      9  C   UNL     1       2.277   7.823  18.883  0.00  0.00    +0.000 C 
ATOM     10  O   UNL     1       2.804   7.884  17.777  0.00  0.00    +0.000 OA
ATOM     11  C   UNL     1       3.328   5.648  19.335  0.00  0.00    +0.000 C 
BRANCH   9  12
ATOM     12  O   UNL     1       1.417   8.756  19.372  0.00  0.00    +0.000 OA
BRANCH  12  13
ATOM     13  C   UNL     1       1.014   9.878  18.538  0.00  0.00    +0.000 C 
ATOM     14  C   UNL     1      -0.080   9.476  17.540  0.00  0.00    +0.000 C 
ATOM     15  C   UNL     1       0.419  10.923  19.497  0.00  0.00    +0.000 C 
ATOM     16  C   UNL     1       2.228  10.510  17.844  0.00  0.00    +0.000 C 
ENDBRANCH  12  13
ENDBRANCH   9  12
ENDBRANCH   1   4
BRANCH   1  18
ATOM     17  N   UNL     1       4.746   3.519  16.693  0.00  0.00    +0.000 N 
ATOM     18  C   UNL     1       4.652   3.522  18.078  0.00  0.00    +0.000 C 
ATOM     19  O   UNL     1       5.613   3.873  18.766  0.00  0.00    +0.000 OA
ATOM     20  H   UNL     1       4.029   3.088  16.130  0.00  0.00    +0.000 HD
BRANCH  17  21
ATOM     21  C   UNL     1       6.023   3.903  16.113  0.00  0.00    +0.000 C 
BRANCH  21  22
ATOM     22  C   UNL     1       5.848   4.859  14.927  0.00  0.00    +0.000 C 
ATOM     23  C   UNL     1       5.133   4.226  13.690  0.00  0.00    +0.000 C 
ATOM     24  C   UNL     1       6.514   3.803  13.150  0.00  0.00    +0.000 C 
ATOM     25  C   UNL     1       7.138   4.891  14.037  0.00  0.00    +0.000 C 
BRANCH  22  26
ATOM     26  C   UNL     1       5.371   6.276  15.297  0.00  0.00    +0.000 C 
BRANCH  26  27
ATOM     27  C   UNL     1       5.906   6.699  16.664  0.00  0.00    +0.000 C 
BRANCH  27  28
ATOM     28  O   UNL     1       7.285   7.055  16.583  0.00  0.00    +0.000 OA
BRANCH  28  30
ATOM     29  C   UNL     1       8.068   6.561  18.811  0.00  0.00    +0.000 C 
ATOM     30  C   UNL     1       7.705   7.645  17.818  0.00  0.00    +0.000 C 
ENDBRANCH  28  30
ENDBRANCH  27  28
ENDBRANCH  26  27
ENDBRANCH  22  26
ENDBRANCH  21  22
ENDBRANCH  17  21
ENDBRANCH   1  18
TORSDOF 10
ENDMDL
MODEL 8
REMARK VINA RESULT:      -6.7      0.927      1.283
REMARK  Name = 
REMARK  16 active torsions:
REMARK  status: ('A' for Active; 'I' for Inactive)
REMARK    1  A    between atoms: C_1  and  C_2
REMARK    2  A    between atoms: C_2  and  O_3
REMARK    3  A    between atoms: O_3  and  C_4
REMARK    4  A    between atoms: C_4  and  C_5
REMARK    5  A    between atoms: C_5  and  C_6
REMARK    6  A    between atoms: C_6  and  C_7
REMARK    7  A    between atoms: C_7  and  N_8
REMARK    8  A    between atoms: C_9  and  C_11
REMARK    9  A    between atoms: C_11  and  C_12
REMARK   10  A    between atoms: C_11  and  C_13
REMARK   11  A    between atoms: C_11  and  C_14
REMARK   12  A    between atoms: C_19  and  O_21
REMARK   13  A    between atoms: O_21  and  C_22
REMARK   14  A    between atoms: C_22  and  C_23
REMARK   15  A    between atoms: C_22  and  C_24
REMARK   16  A    between atoms: C_22  and  C_25
REMARK                            x       y       z     vdW  Elec       q    Type
REMARK                         _______ _______ _______ _____ _____    ______ ____
ROOT
ATOM      1  C   UNL     1       2.319   5.220  19.992  0.00  0.00    +0.000 C 
ATOM      2  C   UNL     1       0.997   4.555  19.534  0.00  0.00    +0.000 C 
ATOM      3  C   UNL     1       2.583   4.758  21.438  0.00  0.00    +0.000 C 
ENDROOT
BRANCH   1   4
ATOM      4  C   UNL     1       2.247   6.785  19.899  0.00  0.00    +0.000 C 
ATOM      5  C   UNL     1       2.407   7.319  18.452  0.00  0.00    +0.000 C 
ATOM      6  C   UNL     1       2.292   8.848  18.379  0.00  0.00    +0.000 C 
ATOM      7  C   UNL     1       1.007   9.341  19.038  0.00  0.00    +0.000 C 
ATOM      8  N   UNL     1       0.942   8.826  20.397  0.00  0.00    +0.000 N 
ATOM      9  C   UNL     1       1.067   9.607  21.535  0.00  0.00    +0.000 C 
ATOM     10  O   UNL     1       1.113   9.125  22.662  0.00  0.00    +0.000 OA
ATOM     11  C   UNL     1       0.955   7.373  20.515  0.00  0.00    +0.000 C 
BRANCH   9  12
ATOM     12  O   UNL     1       1.136  10.938  21.269  0.00  0.00    +0.000 OA
BRANCH  12  13
ATOM     13  C   UNL     1      -0.063  11.759  21.364  0.00  0.00    +0.000 C 
ATOM     14  C   UNL     1      -0.715  11.648  22.748  0.00  0.00    +0.000 C 
ATOM     15  C   UNL     1       0.407  13.212  21.177  0.00  0.00    +0.000 C 
ATOM     16  C   UNL     1      -1.044  11.430  20.232  0.00  0.00    +0.000 C 
ENDBRANCH  12  13
ENDBRANCH   9  12
ENDBRANCH   1   4
BRANCH   1  18
ATOM     17  N   UNL     1       4.712   5.192  19.196  0.00  0.00    +0.000 N 
ATOM     18  C   UNL     1       3.444   4.636  19.099  0.00  0.00    +0.000 C 
ATOM     19  O   UNL     1       3.239   3.680  18.347  0.00  0.00    +0.000 OA
ATOM     20  H   UNL     1       4.854   6.064  19.681  0.00  0.00    +0.000 HD
BRANCH  17  21
ATOM     21  C   UNL     1       5.751   4.626  18.352  0.00  0.00    +0.000 C 
BRANCH  21  22
ATOM     22  C   UNL     1       5.976   5.460  17.085  0.00  0.00    +0.000 C 
ATOM     23  C   UNL     1       5.035   5.088  15.894  0.00  0.00    +0.000 C 
ATOM     24  C   UNL     1       6.094   4.073  15.418  0.00  0.00    +0.000 C 
ATOM     25  C   UNL     1       7.139   4.864  16.220  0.00  0.00    +0.000 C 
BRANCH  22  26
ATOM     26  C   UNL     1       6.155   6.971  17.324  0.00  0.00    +0.000 C 
BRANCH  26  27
ATOM     27  C   UNL     1       7.605   7.397  17.101  0.00  0.00    +0.000 C 
BRANCH  27  28
ATOM     28  O   UNL     1       8.158   7.961  18.289  0.00  0.00    +0.000 OA
BRANCH  28  30
ATOM     29  C   UNL     1       9.178   9.941  19.218  0.00  0.00    +0.000 C 
ATOM     30  C   UNL     1       8.268   9.381  18.144  0.00  0.00    +0.000 C 
ENDBRANCH  28  30
ENDBRANCH  27  28
ENDBRANCH  26  27
ENDBRANCH  22  26
ENDBRANCH  21  22
ENDBRANCH  17  21
ENDBRANCH   1  18
TORSDOF 10
ENDMDL
MODEL 9
REMARK VINA RESULT:      -6.7      1.513      3.248
REMARK  Name = 
REMARK  16 active torsions:
REMARK  status: ('A' for Active; 'I' for Inactive)
REMARK    1  A    between atoms: C_1  and  C_2
REMARK    2  A    between atoms: C_2  and  O_3
REMARK    3  A    between atoms: O_3  and  C_4
REMARK    4  A    between atoms: C_4  and  C_5
REMARK    5  A    between atoms: C_5  and  C_6
REMARK    6  A    between atoms: C_6  and  C_7
REMARK    7  A    between atoms: C_7  and  N_8
REMARK    8  A    between atoms: C_9  and  C_11
REMARK    9  A    between atoms: C_11  and  C_12
REMARK   10  A    between atoms: C_11  and  C_13
REMARK   11  A    between atoms: C_11  and  C_14
REMARK   12  A    between atoms: C_19  and  O_21
REMARK   13  A    between atoms: O_21  and  C_22
REMARK   14  A    between atoms: C_22  and  C_23
REMARK   15  A    between atoms: C_22  and  C_24
REMARK   16  A    between atoms: C_22  and  C_25
REMARK                            x       y       z     vdW  Elec       q    Type
REMARK                         _______ _______ _______ _____ _____    ______ ____
ROOT
ATOM      1  C   UNL     1       2.300   5.507  19.220  0.00  0.00    +0.000 C 
ATOM      2  C   UNL     1       1.610   4.949  17.951  0.00  0.00    +0.000 C 
ATOM      3  C   UNL     1       1.612   4.857  20.435  0.00  0.00    +0.000 C 
ENDROOT
BRANCH   1   4
ATOM      4  C   UNL     1       2.215   7.073  19.288  0.00  0.00    +0.000 C 
ATOM      5  C   UNL     1       2.326   7.752  17.899  0.00  0.00    +0.000 C 
ATOM      6  C   UNL     1       2.199   9.280  17.984  0.00  0.00    +0.000 C 
ATOM      7  C   UNL     1       0.932   9.690  18.729  0.00  0.00    +0.000 C 
ATOM      8  N   UNL     1       0.914   9.040  20.031  0.00  0.00    +0.000 N 
ATOM      9  C   UNL     1       1.069   9.704  21.238  0.00  0.00    +0.000 C 
ATOM     10  O   UNL     1       1.155   9.111  22.308  0.00  0.00    +0.000 OA
ATOM     11  C   UNL     1       0.940   7.583  20.000  0.00  0.00    +0.000 C 
BRANCH   9  12
ATOM     12  O   UNL     1       1.121  11.056  21.106  0.00  0.00    +0.000 OA
BRANCH  12  13
ATOM     13  C   UNL     1      -0.055  11.858  21.406  0.00  0.00    +0.000 C 
ATOM     14  C   UNL     1      -0.733  11.405  22.706  0.00  0.00    +0.000 C 
ATOM     15  C   UNL     1       0.457  13.294  21.615  0.00  0.00    +0.000 C 
ATOM     16  C   UNL     1      -1.027  11.872  20.219  0.00  0.00    +0.000 C 
ENDBRANCH  12  13
ENDBRANCH   9  12
ENDBRANCH   1   4
BRANCH   1  18
ATOM     17  N   UNL     1       4.207   4.339  18.052  0.00  0.00    +0.000 N 
ATOM     18  C   UNL     1       3.767   5.006  19.187  0.00  0.00    +0.000 C 
ATOM     19  O   UNL     1       4.542   5.221  20.122  0.00  0.00    +0.000 OA
ATOM     20  H   UNL     1       3.549   4.021  17.356  0.00  0.00    +0.000 HD
BRANCH  17  21
ATOM     21  C   UNL     1       5.586   3.882  18.042  0.00  0.00    +0.000 C 
BRANCH  21  22
ATOM     22  C   UNL     1       6.447   4.681  17.056  0.00  0.00    +0.000 C 
ATOM     23  C   UNL     1       7.819   5.154  17.636  0.00  0.00    +0.000 C 
ATOM     24  C   UNL     1       7.135   6.456  18.100  0.00  0.00    +0.000 C 
ATOM     25  C   UNL     1       6.040   6.195  17.055  0.00  0.00    +0.000 C 
BRANCH  22  26
ATOM     26  C   UNL     1       6.509   4.102  15.630  0.00  0.00    +0.000 C 
BRANCH  26  27
ATOM     27  C   UNL     1       5.609   4.886  14.677  0.00  0.00    +0.000 C 
BRANCH  27  28
ATOM     28  O   UNL     1       5.151   4.055  13.611  0.00  0.00    +0.000 OA
BRANCH  28  30
ATOM     29  C   UNL     1       5.811   2.593  11.809  0.00  0.00    +0.000 C 
ATOM     30  C   UNL     1       6.264   3.624  12.821  0.00  0.00    +0.000 C 
ENDBRANCH  28  30
ENDBRANCH  27  28
ENDBRANCH  26  27
ENDBRANCH  22  26
ENDBRANCH  21  22
ENDBRANCH  17  21
ENDBRANCH   1  18
TORSDOF 10
ENDMDL
