MODEL 1
REMARK VINA RESULT:      -7.7      0.000      0.000
REMARK  Name = 
REMARK  5 active torsions:
REMARK  status: ('A' for Active; 'I' for Inactive)
REMARK    1  A    between atoms: C_1  and  O_2
REMARK    2  A    between atoms: O_2  and  C_3
REMARK    3  A    between atoms: C_8  and  O_9
REMARK    4  A    between atoms: O_9  and  C_10
REMARK    5  A    between atoms: C_13  and  C_15
REMARK                            x       y       z     vdW  Elec       q    Type
REMARK                         _______ _______ _______ _____ _____    ______ ____
ROOT
ATOM      1  C   UNL     1      -5.384  11.979  18.832  0.00  0.00    +0.000 A 
ATOM      2  C   UNL     1      -4.498  11.439  17.894  0.00  0.00    +0.000 A 
ATOM      3  C   UNL     1      -3.121  11.485  18.110  0.00  0.00    +0.000 A 
ATOM      4  C   UNL     1      -2.612  12.053  19.286  0.00  0.00    +0.000 A 
ATOM      5  C   UNL     1      -3.498  12.602  20.223  0.00  0.00    +0.000 A 
ATOM      6  C   UNL     1      -4.886  12.560  20.017  0.00  0.00    +0.000 A 
ATOM      7  C   UNL     1      -1.113  12.058  19.505  0.00  0.00    +0.000 C 
ATOM      8  N   UNL     1      -0.475  10.804  19.073  0.00  0.00    +0.000 N 
ATOM      9  C   UNL     1       0.652  10.381  19.796  0.00  0.00    +0.000 C 
ATOM     10  O   UNL     1       1.090  11.067  20.719  0.00  0.00    +0.000 OA
ATOM     11  C   UNL     1      -1.100  10.109  17.933  0.00  0.00    +0.000 C 
ATOM     12  C   UNL     1      -2.133  10.905  17.140  0.00  0.00    +0.000 C 
ENDROOT
BRANCH   9  13
ATOM     13  C   UNL     1       1.371   9.102  19.444  0.00  0.00    +0.000 A 
ATOM     14  C   UNL     1       1.445   8.078  20.317  0.00  0.00    +0.000 A 
ATOM     15  C   UNL     1       1.953   6.772  19.955  0.00  0.00    +0.000 A 
ATOM     16  C   UNL     1       1.761   5.662  20.780  0.00  0.00    +0.000 A 
ATOM     17  C   UNL     1       2.250   4.415  20.393  0.00  0.00    +0.000 A 
ATOM     18  C   UNL     1       2.931   4.282  19.183  0.00  0.00    +0.000 A 
ATOM     19  C   UNL     1       3.103   5.389  18.342  0.00  0.00    +0.000 A 
ATOM     20  C   UNL     1       2.594   6.622  18.740  0.00  0.00    +0.000 A 
ATOM     21  O   UNL     1       2.732   7.729  17.887  0.00  0.00    +0.000 OA
ATOM     22  C   UNL     1       2.154   8.982  18.171  0.00  0.00    +0.000 A 
ATOM     23  O   UNL     1       2.326   9.905  17.392  0.00  0.00    +0.000 OA
ENDBRANCH   9  13
BRANCH   1  25
ATOM     24  C   UNL     1      -7.252  12.746  17.591  0.00  0.00    +0.000 C 
ATOM     25  O   UNL     1      -6.704  11.803  18.502  0.00  0.00    +0.000 OA
ENDBRANCH   1  25
BRANCH   6  26
ATOM     26  O   UNL     1      -5.798  13.019  20.927  0.00  0.00    +0.000 OA
ATOM     27  C   UNL     1      -5.707  14.372  21.346  0.00  0.00    +0.000 C 
ENDBRANCH   6  26
TORSDOF 3
ENDMDL
MODEL 2
REMARK VINA RESULT:      -7.6      1.891      8.766
REMARK  Name = 
REMARK  5 active torsions:
REMARK  status: ('A' for Active; 'I' for Inactive)
REMARK    1  A    between atoms: C_1  and  O_2
REMARK    2  A    between atoms: O_2  and  C_3
REMARK    3  A    between atoms: C_8  and  O_9
REMARK    4  A    between atoms: O_9  and  C_10
REMARK    5  A    between atoms: C_13  and  C_15
REMARK                            x       y       z     vdW  Elec       q    Type
REMARK                         _______ _______ _______ _____ _____    ______ ____
ROOT
ATOM      1  C   UNL     1       2.564   3.947  19.926  0.00  0.00    +0.000 A 
ATOM      2  C   UNL     1       2.059   4.944  20.768  0.00  0.00    +0.000 A 
ATOM      3  C   UNL     1       2.107   6.284  20.388  0.00  0.00    +0.000 A 
ATOM      4  C   UNL     1       2.643   6.644  19.144  0.00  0.00    +0.000 A 
ATOM      5  C   UNL     1       3.157   5.648  18.303  0.00  0.00    +0.000 A 
ATOM      6  C   UNL     1       3.112   4.295  18.674  0.00  0.00    +0.000 A 
ATOM      7  C   UNL     1       2.651   8.106  18.748  0.00  0.00    +0.000 C 
ATOM      8  N   UNL     1       1.416   8.805  19.138  0.00  0.00    +0.000 N 
ATOM      9  C   UNL     1       0.978   9.842  18.298  0.00  0.00    +0.000 C 
ATOM     10  O   UNL     1       1.638  10.160  17.310  0.00  0.00    +0.000 OA
ATOM     11  C   UNL     1       0.751   8.326  20.364  0.00  0.00    +0.000 C 
ATOM     12  C   UNL     1       1.564   7.386  21.250  0.00  0.00    +0.000 C 
ENDROOT
BRANCH   9  13
ATOM     13  C   UNL     1      -0.285  10.611  18.600  0.00  0.00    +0.000 A 
ATOM     14  C   UNL     1      -1.407  10.422  17.879  0.00  0.00    +0.000 A 
ATOM     15  C   UNL     1      -2.685  10.990  18.252  0.00  0.00    +0.000 A 
ATOM     16  C   UNL     1      -3.874  10.559  17.661  0.00  0.00    +0.000 A 
ATOM     17  C   UNL     1      -5.089  11.117  18.056  0.00  0.00    +0.000 A 
ATOM     18  C   UNL     1      -5.112  12.107  19.038  0.00  0.00    +0.000 A 
ATOM     19  C   UNL     1      -3.923  12.524  19.650  0.00  0.00    +0.000 A 
ATOM     20  C   UNL     1      -2.722  11.943  19.253  0.00  0.00    +0.000 A 
ATOM     21  O   UNL     1      -1.530  12.331  19.886  0.00  0.00    +0.000 OA
ATOM     22  C   UNL     1      -0.292  11.716  19.613  0.00  0.00    +0.000 A 
ATOM     23  O   UNL     1       0.708  12.113  20.189  0.00  0.00    +0.000 OA
ENDBRANCH   9  13
BRANCH   1  25
ATOM     24  C   UNL     1       1.539   2.556  21.549  0.00  0.00    +0.000 C 
ATOM     25  O   UNL     1       2.389   2.677  20.416  0.00  0.00    +0.000 OA
ENDBRANCH   1  25
BRANCH   6  26
ATOM     26  O   UNL     1       3.537   3.276  17.865  0.00  0.00    +0.000 OA
ATOM     27  C   UNL     1       4.593   3.538  16.954  0.00  0.00    +0.000 C 
ENDBRANCH   6  26
TORSDOF 3
ENDMDL
MODEL 3
REMARK VINA RESULT:      -7.5      1.326      2.005
REMARK  Name = 
REMARK  5 active torsions:
REMARK  status: ('A' for Active; 'I' for Inactive)
REMARK    1  A    between atoms: C_1  and  O_2
REMARK    2  A    between atoms: O_2  and  C_3
REMARK    3  A    between atoms: C_8  and  O_9
REMARK    4  A    between atoms: O_9  and  C_10
REMARK    5  A    between atoms: C_13  and  C_15
REMARK                            x       y       z     vdW  Elec       q    Type
REMARK                         _______ _______ _______ _____ _____    ______ ____
ROOT
ATOM      1  C   UNL     1      -5.733  11.986  19.281  0.00  0.00    +0.000 A 
ATOM      2  C   UNL     1      -4.977  11.205  18.400  0.00  0.00    +0.000 A 
ATOM      3  C   UNL     1      -3.586  11.296  18.388  0.00  0.00    +0.000 A 
ATOM      4  C   UNL     1      -2.929  12.156  19.278  0.00  0.00    +0.000 A 
ATOM      5  C   UNL     1      -3.686  12.945  20.155  0.00  0.00    +0.000 A 
ATOM      6  C   UNL     1      -5.086  12.860  20.178  0.00  0.00    +0.000 A 
ATOM      7  C   UNL     1      -1.415  12.209  19.261  0.00  0.00    +0.000 C 
ATOM      8  N   UNL     1      -0.806  10.880  19.089  0.00  0.00    +0.000 N 
ATOM      9  C   UNL     1       0.427  10.658  19.723  0.00  0.00    +0.000 C 
ATOM     10  O   UNL     1       0.973  11.564  20.351  0.00  0.00    +0.000 OA
ATOM     11  C   UNL     1      -1.569   9.908  18.285  0.00  0.00    +0.000 C 
ATOM     12  C   UNL     1      -2.732  10.469  17.472  0.00  0.00    +0.000 C 
ENDROOT
BRANCH   9  13
ATOM     13  C   UNL     1       1.129   9.325  19.623  0.00  0.00    +0.000 A 
ATOM     14  C   UNL     1       1.772   8.957  18.498  0.00  0.00    +0.000 A 
ATOM     15  C   UNL     1       2.614   7.783  18.423  0.00  0.00    +0.000 A 
ATOM     16  C   UNL     1       3.483   7.577  17.350  0.00  0.00    +0.000 A 
ATOM     17  C   UNL     1       4.293   6.442  17.318  0.00  0.00    +0.000 A 
ATOM     18  C   UNL     1       4.229   5.515  18.358  0.00  0.00    +0.000 A 
ATOM     19  C   UNL     1       3.376   5.731  19.448  0.00  0.00    +0.000 A 
ATOM     20  C   UNL     1       2.588   6.878  19.468  0.00  0.00    +0.000 A 
ATOM     21  O   UNL     1       1.756   7.120  20.573  0.00  0.00    +0.000 OA
ATOM     22  C   UNL     1       1.009   8.306  20.715  0.00  0.00    +0.000 A 
ATOM     23  O   UNL     1       0.294   8.444  21.695  0.00  0.00    +0.000 OA
ENDBRANCH   9  13
BRANCH   1  25
ATOM     24  C   UNL     1      -7.606  10.859  20.200  0.00  0.00    +0.000 C 
ATOM     25  O   UNL     1      -7.081  11.738  19.212  0.00  0.00    +0.000 OA
ENDBRANCH   1  25
BRANCH   6  26
ATOM     26  O   UNL     1      -5.870  13.556  21.059  0.00  0.00    +0.000 OA
ATOM     27  C   UNL     1      -5.519  13.534  22.433  0.00  0.00    +0.000 C 
ENDBRANCH   6  26
TORSDOF 3
ENDMDL
MODEL 4
REMARK VINA RESULT:      -7.3      1.645      8.562
REMARK  Name = 
REMARK  5 active torsions:
REMARK  status: ('A' for Active; 'I' for Inactive)
REMARK    1  A    between atoms: C_1  and  O_2
REMARK    2  A    between atoms: O_2  and  C_3
REMARK    3  A    between atoms: C_8  and  O_9
REMARK    4  A    between atoms: O_9  and  C_10
REMARK    5  A    between atoms: C_13  and  C_15
REMARK                            x       y       z     vdW  Elec       q    Type
REMARK                         _______ _______ _______ _____ _____    ______ ____
ROOT
ATOM      1  C   UNL     1       2.298   6.078  19.666  0.00  0.00    +0.000 A 
ATOM      2  C   UNL     1       1.537   6.753  20.627  0.00  0.00    +0.000 A 
ATOM      3  C   UNL     1       1.229   8.103  20.466  0.00  0.00    +0.000 A 
ATOM      4  C   UNL     1       1.660   8.793  19.325  0.00  0.00    +0.000 A 
ATOM      5  C   UNL     1       2.430   8.120  18.366  0.00  0.00    +0.000 A 
ATOM      6  C   UNL     1       2.745   6.760  18.516  0.00  0.00    +0.000 A 
ATOM      7  C   UNL     1       1.281  10.250  19.165  0.00  0.00    +0.000 C 
ATOM      8  N   UNL     1      -0.100  10.525  19.594  0.00  0.00    +0.000 N 
ATOM      9  C   UNL     1      -0.791  11.536  18.906  0.00  0.00    +0.000 C 
ATOM     10  O   UNL     1      -0.231  12.176  18.017  0.00  0.00    +0.000 OA
ATOM     11  C   UNL     1      -0.624   9.693  20.691  0.00  0.00    +0.000 C 
ATOM     12  C   UNL     1       0.403   8.865  21.461  0.00  0.00    +0.000 C 
ENDROOT
BRANCH   9  13
ATOM     13  C   UNL     1      -2.217  11.886  19.257  0.00  0.00    +0.000 A 
ATOM     14  C   UNL     1      -3.233  11.594  18.423  0.00  0.00    +0.000 A 
ATOM     15  C   UNL     1      -4.624  11.735  18.800  0.00  0.00    +0.000 A 
ATOM     16  C   UNL     1      -5.646  11.170  18.036  0.00  0.00    +0.000 A 
ATOM     17  C   UNL     1      -6.974  11.311  18.437  0.00  0.00    +0.000 A 
ATOM     18  C   UNL     1      -7.276  12.020  19.600  0.00  0.00    +0.000 A 
ATOM     19  C   UNL     1      -6.250  12.568  20.382  0.00  0.00    +0.000 A 
ATOM     20  C   UNL     1      -4.930  12.402  19.971  0.00  0.00    +0.000 A 
ATOM     21  O   UNL     1      -3.895  12.918  20.768  0.00  0.00    +0.000 OA
ATOM     22  C   UNL     1      -2.534  12.701  20.475  0.00  0.00    +0.000 A 
ATOM     23  O   UNL     1      -1.685  13.191  21.202  0.00  0.00    +0.000 OA
ENDBRANCH   9  13
BRANCH   1  25
ATOM     24  C   UNL     1       1.376   3.896  19.597  0.00  0.00    +0.000 C 
ATOM     25  O   UNL     1       2.465   4.744  19.940  0.00  0.00    +0.000 OA
ENDBRANCH   1  25
BRANCH   6  26
ATOM     26  O   UNL     1       3.435   6.038  17.581  0.00  0.00    +0.000 OA
ATOM     27  C   UNL     1       4.580   6.628  16.987  0.00  0.00    +0.000 C 
ENDBRANCH   6  26
TORSDOF 3
ENDMDL
MODEL 5
REMARK VINA RESULT:      -7.3      1.722      2.304
REMARK  Name = 
REMARK  5 active torsions:
REMARK  status: ('A' for Active; 'I' for Inactive)
REMARK    1  A    between atoms: C_1  and  O_2
REMARK    2  A    between atoms: O_2  and  C_3
REMARK    3  A    between atoms: C_8  and  O_9
REMARK    4  A    between atoms: O_9  and  C_10
REMARK    5  A    between atoms: C_13  and  C_15
REMARK                            x       y       z     vdW  Elec       q    Type
REMARK                         _______ _______ _______ _____ _____    ______ ____
ROOT
ATOM      1  C   UNL     1      -3.767  12.740  20.820  0.00  0.00    +0.000 A 
ATOM      2  C   UNL     1      -3.014  12.279  19.735  0.00  0.00    +0.000 A 
ATOM      3  C   UNL     1      -1.727  11.778  19.928  0.00  0.00    +0.000 A 
ATOM      4  C   UNL     1      -1.184  11.709  21.217  0.00  0.00    +0.000 A 
ATOM      5  C   UNL     1      -1.934  12.178  22.304  0.00  0.00    +0.000 A 
ATOM      6  C   UNL     1      -3.231  12.683  22.123  0.00  0.00    +0.000 A 
ATOM      7  C   UNL     1       0.204  11.129  21.396  0.00  0.00    +0.000 C 
ATOM      8  N   UNL     1       0.441   9.956  20.540  0.00  0.00    +0.000 N 
ATOM      9  C   UNL     1       1.288   8.958  21.047  0.00  0.00    +0.000 C 
ATOM     10  O   UNL     1       1.829   9.101  22.143  0.00  0.00    +0.000 OA
ATOM     11  C   UNL     1      -0.257   9.941  19.241  0.00  0.00    +0.000 C 
ATOM     12  C   UNL     1      -0.887  11.258  18.797  0.00  0.00    +0.000 C 
ENDROOT
BRANCH   9  13
ATOM     13  C   UNL     1       1.584   7.708  20.255  0.00  0.00    +0.000 A 
ATOM     14  C   UNL     1       1.404   6.484  20.788  0.00  0.00    +0.000 A 
ATOM     15  C   UNL     1       1.489   5.267  20.009  0.00  0.00    +0.000 A 
ATOM     16  C   UNL     1       1.028   4.048  20.508  0.00  0.00    +0.000 A 
ATOM     17  C   UNL     1       1.111   2.898  19.724  0.00  0.00    +0.000 A 
ATOM     18  C   UNL     1       1.659   2.970  18.443  0.00  0.00    +0.000 A 
ATOM     19  C   UNL     1       2.100   4.197  17.930  0.00  0.00    +0.000 A 
ATOM     20  C   UNL     1       1.994   5.335  18.724  0.00  0.00    +0.000 A 
ATOM     21  O   UNL     1       2.402   6.574  18.204  0.00  0.00    +0.000 OA
ATOM     22  C   UNL     1       2.229   7.785  18.904  0.00  0.00    +0.000 A 
ATOM     23  O   UNL     1       2.621   8.824  18.399  0.00  0.00    +0.000 OA
ENDBRANCH   9  13
BRANCH   1  25
ATOM     24  C   UNL     1      -5.242  14.550  20.410  0.00  0.00    +0.000 C 
ATOM     25  O   UNL     1      -5.032  13.145  20.475  0.00  0.00    +0.000 OA
ENDBRANCH   1  25
BRANCH   6  26
ATOM     26  O   UNL     1      -4.033  13.091  23.154  0.00  0.00    +0.000 OA
ATOM     27  C   UNL     1      -4.008  12.346  24.361  0.00  0.00    +0.000 C 
ENDBRANCH   6  26
TORSDOF 3
ENDMDL
MODEL 6
REMARK VINA RESULT:      -7.2      2.767      8.709
REMARK  Name = 
REMARK  5 active torsions:
REMARK  status: ('A' for Active; 'I' for Inactive)
REMARK    1  A    between atoms: C_1  and  O_2
REMARK    2  A    between atoms: O_2  and  C_3
REMARK    3  A    between atoms: C_8  and  O_9
REMARK    4  A    between atoms: O_9  and  C_10
REMARK    5  A    between atoms: C_13  and  C_15
REMARK                            x       y       z     vdW  Elec       q    Type
REMARK                         _______ _______ _______ _____ _____    ______ ____
ROOT
ATOM      1  C   UNL     1       1.514   3.882  19.755  0.00  0.00    +0.000 A 
ATOM      2  C   UNL     1       1.527   4.937  20.673  0.00  0.00    +0.000 A 
ATOM      3  C   UNL     1       1.884   6.223  20.270  0.00  0.00    +0.000 A 
ATOM      4  C   UNL     1       2.213   6.475  18.931  0.00  0.00    +0.000 A 
ATOM      5  C   UNL     1       2.209   5.417  18.012  0.00  0.00    +0.000 A 
ATOM      6  C   UNL     1       1.848   4.119  18.406  0.00  0.00    +0.000 A 
ATOM      7  C   UNL     1       2.567   7.889  18.519  0.00  0.00    +0.000 C 
ATOM      8  N   UNL     1       1.712   8.897  19.168  0.00  0.00    +0.000 N 
ATOM      9  C   UNL     1       1.427  10.059  18.432  0.00  0.00    +0.000 C 
ATOM     10  O   UNL     1       1.916  10.221  17.315  0.00  0.00    +0.000 OA
ATOM     11  C   UNL     1       1.224   8.571  20.520  0.00  0.00    +0.000 C 
ATOM     12  C   UNL     1       1.898   7.390  21.215  0.00  0.00    +0.000 C 
ENDROOT
BRANCH   9  13
ATOM     13  C   UNL     1       0.548  11.147  19.000  0.00  0.00    +0.000 A 
ATOM     14  C   UNL     1       1.066  12.151  19.732  0.00  0.00    +0.000 A 
ATOM     15  C   UNL     1       0.297  13.311  20.131  0.00  0.00    +0.000 A 
ATOM     16  C   UNL     1       0.914  14.455  20.638  0.00  0.00    +0.000 A 
ATOM     17  C   UNL     1       0.143  15.560  20.997  0.00  0.00    +0.000 A 
ATOM     18  C   UNL     1      -1.243  15.517  20.850  0.00  0.00    +0.000 A 
ATOM     19  C   UNL     1      -1.863  14.379  20.317  0.00  0.00    +0.000 A 
ATOM     20  C   UNL     1      -1.074  13.293  19.951  0.00  0.00    +0.000 A 
ATOM     21  O   UNL     1      -1.684  12.161  19.385  0.00  0.00    +0.000 OA
ATOM     22  C   UNL     1      -0.945  11.067  18.893  0.00  0.00    +0.000 A 
ATOM     23  O   UNL     1      -1.541  10.110  18.427  0.00  0.00    +0.000 OA
ENDBRANCH   9  13
BRANCH   1  25
ATOM     24  C   UNL     1       1.445   2.455  21.647  0.00  0.00    +0.000 C 
ATOM     25  O   UNL     1       1.083   2.695  20.293  0.00  0.00    +0.000 OA
ENDBRANCH   1  25
BRANCH   6  26
ATOM     26  O   UNL     1       1.762   3.064  17.539  0.00  0.00    +0.000 OA
ATOM     27  C   UNL     1       2.809   2.106  17.539  0.00  0.00    +0.000 C 
ENDBRANCH   6  26
TORSDOF 3
ENDMDL
MODEL 7
REMARK VINA RESULT:      -7.1      1.393      1.733
REMARK  Name = 
REMARK  5 active torsions:
REMARK  status: ('A' for Active; 'I' for Inactive)
REMARK    1  A    between atoms: C_1  and  O_2
REMARK    2  A    between atoms: O_2  and  C_3
REMARK    3  A    between atoms: C_8  and  O_9
REMARK    4  A    between atoms: O_9  and  C_10
REMARK    5  A    between atoms: C_13  and  C_15
REMARK                            x       y       z     vdW  Elec       q    Type
REMARK                         _______ _______ _______ _____ _____    ______ ____
ROOT
ATOM      1  C   UNL     1      -5.945  12.504  20.784  0.00  0.00    +0.000 A 
ATOM      2  C   UNL     1      -5.162  12.175  19.673  0.00  0.00    +0.000 A 
ATOM      3  C   UNL     1      -3.772  12.277  19.731  0.00  0.00    +0.000 A 
ATOM      4  C   UNL     1      -3.145  12.689  20.914  0.00  0.00    +0.000 A 
ATOM      5  C   UNL     1      -3.929  13.027  22.025  0.00  0.00    +0.000 A 
ATOM      6  C   UNL     1      -5.329  12.925  21.980  0.00  0.00    +0.000 A 
ATOM      7  C   UNL     1      -1.633  12.759  20.954  0.00  0.00    +0.000 C 
ATOM      8  N   UNL     1      -0.997  11.632  20.252  0.00  0.00    +0.000 N 
ATOM      9  C   UNL     1       0.231  11.176  20.760  0.00  0.00    +0.000 C 
ATOM     10  O   UNL     1       0.750  11.739  21.723  0.00  0.00    +0.000 OA
ATOM     11  C   UNL     1      -1.728  11.081  19.097  0.00  0.00    +0.000 C 
ATOM     12  C   UNL     1      -2.890  11.921  18.570  0.00  0.00    +0.000 C 
ENDROOT
BRANCH   9  13
ATOM     13  C   UNL     1       0.958  10.018  20.123  0.00  0.00    +0.000 A 
ATOM     14  C   UNL     1       1.155   8.864  20.791  0.00  0.00    +0.000 A 
ATOM     15  C   UNL     1       1.672   7.669  20.159  0.00  0.00    +0.000 A 
ATOM     16  C   UNL     1       1.603   6.425  20.788  0.00  0.00    +0.000 A 
ATOM     17  C   UNL     1       2.097   5.291  20.144  0.00  0.00    +0.000 A 
ATOM     18  C   UNL     1       2.660   5.405  18.873  0.00  0.00    +0.000 A 
ATOM     19  C   UNL     1       2.708   6.648  18.229  0.00  0.00    +0.000 A 
ATOM     20  C   UNL     1       2.196   7.765  18.883  0.00  0.00    +0.000 A 
ATOM     21  O   UNL     1       2.208   9.009  18.231  0.00  0.00    +0.000 OA
ATOM     22  C   UNL     1       1.616  10.161  18.783  0.00  0.00    +0.000 A 
ATOM     23  O   UNL     1       1.677  11.213  18.168  0.00  0.00    +0.000 OA
ENDBRANCH   9  13
BRANCH   1  25
ATOM     24  C   UNL     1      -7.714  10.938  20.586  0.00  0.00    +0.000 C 
ATOM     25  O   UNL     1      -7.287  12.294  20.588  0.00  0.00    +0.000 OA
ENDBRANCH   1  25
BRANCH   6  26
ATOM     26  O   UNL     1      -6.138  13.177  23.054  0.00  0.00    +0.000 OA
ATOM     27  C   UNL     1      -6.507  14.522  23.317  0.00  0.00    +0.000 C 
ENDBRANCH   6  26
TORSDOF 3
ENDMDL
MODEL 8
REMARK VINA RESULT:      -7.0      3.792      4.592
REMARK  Name = 
REMARK  5 active torsions:
REMARK  status: ('A' for Active; 'I' for Inactive)
REMARK    1  A    between atoms: C_1  and  O_2
REMARK    2  A    between atoms: O_2  and  C_3
REMARK    3  A    between atoms: C_8  and  O_9
REMARK    4  A    between atoms: O_9  and  C_10
REMARK    5  A    between atoms: C_13  and  C_15
REMARK                            x       y       z     vdW  Elec       q    Type
REMARK                         _______ _______ _______ _____ _____    ______ ____
ROOT
ATOM      1  C   UNL     1       0.317  13.332  21.636  0.00  0.00    +0.000 A 
ATOM      2  C   UNL     1      -0.046  11.997  21.839  0.00  0.00    +0.000 A 
ATOM      3  C   UNL     1       0.112  11.057  20.820  0.00  0.00    +0.000 A 
ATOM      4  C   UNL     1       0.660  11.440  19.588  0.00  0.00    +0.000 A 
ATOM      5  C   UNL     1       1.015  12.780  19.381  0.00  0.00    +0.000 A 
ATOM      6  C   UNL     1       0.863  13.734  20.400  0.00  0.00    +0.000 A 
ATOM      7  C   UNL     1       0.848  10.390  18.514  0.00  0.00    +0.000 C 
ATOM      8  N   UNL     1       1.327   9.107  19.055  0.00  0.00    +0.000 N 
ATOM      9  C   UNL     1       2.171   8.344  18.232  0.00  0.00    +0.000 C 
ATOM     10  O   UNL     1       2.448   8.733  17.098  0.00  0.00    +0.000 OA
ATOM     11  C   UNL     1       0.887   8.766  20.420  0.00  0.00    +0.000 C 
ATOM     12  C   UNL     1      -0.248   9.611  20.995  0.00  0.00    +0.000 C 
ENDROOT
BRANCH   9  13
ATOM     13  C   UNL     1       2.729   7.022  18.698  0.00  0.00    +0.000 A 
ATOM     14  C   UNL     1       2.219   6.387  19.770  0.00  0.00    +0.000 A 
ATOM     15  C   UNL     1       2.591   5.036  20.135  0.00  0.00    +0.000 A 
ATOM     16  C   UNL     1       1.855   4.304  21.067  0.00  0.00    +0.000 A 
ATOM     17  C   UNL     1       2.233   3.000  21.383  0.00  0.00    +0.000 A 
ATOM     18  C   UNL     1       3.348   2.432  20.767  0.00  0.00    +0.000 A 
ATOM     19  C   UNL     1       4.074   3.155  19.812  0.00  0.00    +0.000 A 
ATOM     20  C   UNL     1       3.671   4.451  19.500  0.00  0.00    +0.000 A 
ATOM     21  O   UNL     1       4.373   5.170  18.519  0.00  0.00    +0.000 OA
ATOM     22  C   UNL     1       3.964   6.443  18.074  0.00  0.00    +0.000 A 
ATOM     23  O   UNL     1       4.630   7.018  17.229  0.00  0.00    +0.000 OA
ENDBRANCH   9  13
BRANCH   1  25
ATOM     24  C   UNL     1      -1.108  14.034  23.396  0.00  0.00    +0.000 C 
ATOM     25  O   UNL     1       0.156  14.117  22.751  0.00  0.00    +0.000 OA
ENDBRANCH   1  25
BRANCH   6  26
ATOM     26  O   UNL     1       1.255  15.039  20.277  0.00  0.00    +0.000 OA
ATOM     27  C   UNL     1       1.664  15.500  18.999  0.00  0.00    +0.000 C 
ENDBRANCH   6  26
TORSDOF 3
ENDMDL
MODEL 9
REMARK VINA RESULT:      -7.0      1.602      8.717
REMARK  Name = 
REMARK  5 active torsions:
REMARK  status: ('A' for Active; 'I' for Inactive)
REMARK    1  A    between atoms: C_1  and  O_2
REMARK    2  A    between atoms: O_2  and  C_3
REMARK    3  A    between atoms: C_8  and  O_9
REMARK    4  A    between atoms: O_9  and  C_10
REMARK    5  A    between atoms: C_13  and  C_15
REMARK                            x       y       z     vdW  Elec       q    Type
REMARK                         _______ _______ _______ _____ _____    ______ ____
ROOT
ATOM      1  C   UNL     1       2.430   6.741  19.640  0.00  0.00    +0.000 A 
ATOM      2  C   UNL     1       1.713   7.462  20.600  0.00  0.00    +0.000 A 
ATOM      3  C   UNL     1       1.230   8.738  20.313  0.00  0.00    +0.000 A 
ATOM      4  C   UNL     1       1.439   9.302  19.047  0.00  0.00    +0.000 A 
ATOM      5  C   UNL     1       2.165   8.584  18.087  0.00  0.00    +0.000 A 
ATOM      6  C   UNL     1       2.654   7.297  18.364  0.00  0.00    +0.000 A 
ATOM      7  C   UNL     1       0.874  10.677  18.756  0.00  0.00    +0.000 C 
ATOM      8  N   UNL     1      -0.470  10.867  19.326  0.00  0.00    +0.000 N 
ATOM      9  C   UNL     1      -1.352  11.696  18.614  0.00  0.00    +0.000 C 
ATOM     10  O   UNL     1      -0.980  12.259  17.585  0.00  0.00    +0.000 OA
ATOM     11  C   UNL     1      -0.759  10.147  20.579  0.00  0.00    +0.000 C 
ATOM     12  C   UNL     1       0.442   9.544  21.304  0.00  0.00    +0.000 C 
ENDROOT
BRANCH   9  13
ATOM     13  C   UNL     1      -2.758  11.944  19.104  0.00  0.00    +0.000 A 
ATOM     14  C   UNL     1      -2.992  12.671  20.213  0.00  0.00    +0.000 A 
ATOM     15  C   UNL     1      -4.319  13.095  20.609  0.00  0.00    +0.000 A 
ATOM     16  C   UNL     1      -4.509  14.069  21.590  0.00  0.00    +0.000 A 
ATOM     17  C   UNL     1      -5.801  14.465  21.936  0.00  0.00    +0.000 A 
ATOM     18  C   UNL     1      -6.898  13.883  21.301  0.00  0.00    +0.000 A 
ATOM     19  C   UNL     1      -6.709  12.922  20.299  0.00  0.00    +0.000 A 
ATOM     20  C   UNL     1      -5.411  12.553  19.959  0.00  0.00    +0.000 A 
ATOM     21  O   UNL     1      -5.212  11.616  18.931  0.00  0.00    +0.000 OA
ATOM     22  C   UNL     1      -3.931  11.269  18.459  0.00  0.00    +0.000 A 
ATOM     23  O   UNL     1      -3.830  10.436  17.573  0.00  0.00    +0.000 OA
ENDBRANCH   9  13
BRANCH   1  25
ATOM     24  C   UNL     1       1.712   4.596  20.348  0.00  0.00    +0.000 C 
ATOM     25  O   UNL     1       2.785   5.482  20.055  0.00  0.00    +0.000 OA
ENDBRANCH   1  25
BRANCH   6  26
ATOM     26  O   UNL     1       3.310   6.525  17.444  0.00  0.00    +0.000 OA
ATOM     27  C   UNL     1       4.709   6.705  17.291  0.00  0.00    +0.000 C 
ENDBRANCH   6  26
TORSDOF 3
ENDMDL
