MODEL 1
REMARK VINA RESULT:      -7.6      0.000      0.000
REMARK  Name = 
REMARK  11 active torsions:
REMARK  status: ('A' for Active; 'I' for Inactive)
REMARK    1  A    between atoms: C_1  and  C_2
REMARK    2  A    between atoms: C_2  and  C_3
REMARK    3  A    between atoms: C_3  and  C_4
REMARK    4  A    between atoms: C_4  and  C_5
REMARK    5  A    between atoms: C_6  and  C_7
REMARK    6  A    between atoms: C_10  and  O_11
REMARK    7  A    between atoms: O_11  and  C_12
REMARK    8  A    between atoms: C_12  and  C_13
REMARK    9  A    between atoms: C_17  and  C_18
REMARK   10  A    between atoms: C_18  and  O_20
REMARK   11  A    between atoms: O_20  and  C_21
REMARK                            x       y       z     vdW  Elec       q    Type
REMARK                         _______ _______ _______ _____ _____    ______ ____
ROOT
ATOM      1  C   UNL     1       8.116   7.432  18.246  0.00  0.00    +0.000 A 
ATOM      2  C   UNL     1       8.022   6.324  19.093  0.00  0.00    +0.000 A 
ATOM      3  C   UNL     1       7.458   5.138  18.647  0.00  0.00    +0.000 A 
ATOM      4  C   UNL     1       6.906   5.058  17.368  0.00  0.00    +0.000 A 
ATOM      5  C   UNL     1       6.980   6.161  16.516  0.00  0.00    +0.000 A 
ATOM      6  C   UNL     1       7.576   7.350  16.958  0.00  0.00    +0.000 A 
ENDROOT
BRANCH   1   8
ATOM      7  C   UNL     1       8.491   9.856  18.162  0.00  0.00    +0.000 C 
ATOM      8  C   UNL     1       8.756   8.663  18.720  0.00  0.00    +0.000 C 
BRANCH   7   9
ATOM      9  C   UNL     1       9.142  11.139  18.568  0.00  0.00    +0.000 C 
BRANCH   9  10
ATOM     10  C   UNL     1      10.463  11.330  17.828  0.00  0.00    +0.000 C 
BRANCH  10  12
ATOM     11  C   UNL     1      12.064  13.201  17.320  0.00  0.00    +0.000 C 
ATOM     12  C   UNL     1      10.607  12.773  17.350  0.00  0.00    +0.000 C 
ENDBRANCH  10  12
ENDBRANCH   9  10
ENDBRANCH   7   9
ENDBRANCH   1   8
BRANCH   4  13
ATOM     13  O   UNL     1       6.257   3.950  16.890  0.00  0.00    +0.000 OA
BRANCH  13  14
ATOM     14  C   UNL     1       5.049   4.264  16.189  0.00  0.00    +0.000 C 
BRANCH  14  15
ATOM     15  C   UNL     1       3.903   4.509  17.132  0.00  0.00    +0.000 A 
ATOM     16  C   UNL     1       3.629   5.820  17.546  0.00  0.00    +0.000 A 
ATOM     17  C   UNL     1       2.623   6.072  18.476  0.00  0.00    +0.000 A 
ATOM     18  C   UNL     1       1.891   5.010  19.003  0.00  0.00    +0.000 A 
ATOM     19  C   UNL     1       2.155   3.691  18.607  0.00  0.00    +0.000 A 
ATOM     20  C   UNL     1       3.168   3.446  17.668  0.00  0.00    +0.000 A 
BRANCH  19  21
ATOM     21  C   UNL     1       1.359   2.597  19.212  0.00  0.00    +0.000 C 
ATOM     22  O   UNL     1       0.327   2.164  18.723  0.00  0.00    +0.000 OA
BRANCH  21  23
ATOM     23  O   UNL     1       1.929   2.168  20.365  0.00  0.00    +0.000 OA
ATOM     24  C   UNL     1       1.319   2.703  21.540  0.00  0.00    +0.000 C 
ENDBRANCH  21  23
ENDBRANCH  19  21
ENDBRANCH  14  15
ENDBRANCH  13  14
ENDBRANCH   4  13
TORSDOF 9
ENDMDL
MODEL 2
REMARK VINA RESULT:      -7.5      3.700     10.113
REMARK  Name = 
REMARK  11 active torsions:
REMARK  status: ('A' for Active; 'I' for Inactive)
REMARK    1  A    between atoms: C_1  and  C_2
REMARK    2  A    between atoms: C_2  and  C_3
REMARK    3  A    between atoms: C_3  and  C_4
REMARK    4  A    between atoms: C_4  and  C_5
REMARK    5  A    between atoms: C_6  and  C_7
REMARK    6  A    between atoms: C_10  and  O_11
REMARK    7  A    between atoms: O_11  and  C_12
REMARK    8  A    between atoms: C_12  and  C_13
REMARK    9  A    between atoms: C_17  and  C_18
REMARK   10  A    between atoms: C_18  and  O_20
REMARK   11  A    between atoms: O_20  and  C_21
REMARK                            x       y       z     vdW  Elec       q    Type
REMARK                         _______ _______ _______ _____ _____    ______ ____
ROOT
ATOM      1  C   UNL     1       5.793   5.223  18.181  0.00  0.00    +0.000 A 
ATOM      2  C   UNL     1       5.751   6.339  17.341  0.00  0.00    +0.000 A 
ATOM      3  C   UNL     1       6.750   7.301  17.388  0.00  0.00    +0.000 A 
ATOM      4  C   UNL     1       7.773   7.206  18.331  0.00  0.00    +0.000 A 
ATOM      5  C   UNL     1       7.821   6.105  19.187  0.00  0.00    +0.000 A 
ATOM      6  C   UNL     1       6.827   5.119  19.119  0.00  0.00    +0.000 A 
ENDROOT
BRANCH   1   8
ATOM      7  C   UNL     1       3.691   4.339  17.277  0.00  0.00    +0.000 C 
ATOM      8  C   UNL     1       4.753   4.195  18.086  0.00  0.00    +0.000 C 
BRANCH   7   9
ATOM      9  C   UNL     1       2.575   3.351  17.168  0.00  0.00    +0.000 C 
BRANCH   9  10
ATOM     10  C   UNL     1       1.367   3.811  17.980  0.00  0.00    +0.000 C 
BRANCH  10  12
ATOM     11  C   UNL     1       1.055   3.662  20.470  0.00  0.00    +0.000 C 
ATOM     12  C   UNL     1       1.134   2.883  19.170  0.00  0.00    +0.000 C 
ENDBRANCH  10  12
ENDBRANCH   9  10
ENDBRANCH   7   9
ENDBRANCH   1   8
BRANCH   4  13
ATOM     13  O   UNL     1       8.745   8.159  18.495  0.00  0.00    +0.000 OA
BRANCH  13  14
ATOM     14  C   UNL     1       8.334   9.461  18.062  0.00  0.00    +0.000 C 
BRANCH  14  15
ATOM     15  C   UNL     1       9.208  10.542  18.636  0.00  0.00    +0.000 A 
ATOM     16  C   UNL     1       9.478  10.542  20.012  0.00  0.00    +0.000 A 
ATOM     17  C   UNL     1      10.221  11.569  20.587  0.00  0.00    +0.000 A 
ATOM     18  C   UNL     1      10.692  12.609  19.787  0.00  0.00    +0.000 A 
ATOM     19  C   UNL     1      10.427  12.631  18.410  0.00  0.00    +0.000 A 
ATOM     20  C   UNL     1       9.679  11.590  17.839  0.00  0.00    +0.000 A 
BRANCH  19  21
ATOM     21  C   UNL     1      10.936  13.770  17.609  0.00  0.00    +0.000 C 
ATOM     22  O   UNL     1      11.498  13.638  16.533  0.00  0.00    +0.000 OA
BRANCH  21  23
ATOM     23  O   UNL     1      10.697  14.946  18.239  0.00  0.00    +0.000 OA
ATOM     24  C   UNL     1       9.534  15.625  17.767  0.00  0.00    +0.000 C 
ENDBRANCH  21  23
ENDBRANCH  19  21
ENDBRANCH  14  15
ENDBRANCH  13  14
ENDBRANCH   4  13
TORSDOF 9
ENDMDL
MODEL 3
REMARK VINA RESULT:      -7.5      4.099      6.515
REMARK  Name = 
REMARK  11 active torsions:
REMARK  status: ('A' for Active; 'I' for Inactive)
REMARK    1  A    between atoms: C_1  and  C_2
REMARK    2  A    between atoms: C_2  and  C_3
REMARK    3  A    between atoms: C_3  and  C_4
REMARK    4  A    between atoms: C_4  and  C_5
REMARK    5  A    between atoms: C_6  and  C_7
REMARK    6  A    between atoms: C_10  and  O_11
REMARK    7  A    between atoms: O_11  and  C_12
REMARK    8  A    between atoms: C_12  and  C_13
REMARK    9  A    between atoms: C_17  and  C_18
REMARK   10  A    between atoms: C_18  and  O_20
REMARK   11  A    between atoms: O_20  and  C_21
REMARK                            x       y       z     vdW  Elec       q    Type
REMARK                         _______ _______ _______ _____ _____    ______ ____
ROOT
ATOM      1  C   UNL     1       6.136   4.724  15.327  0.00  0.00    +0.000 A 
ATOM      2  C   UNL     1       5.342   5.862  15.159  0.00  0.00    +0.000 A 
ATOM      3  C   UNL     1       4.841   6.546  16.257  0.00  0.00    +0.000 A 
ATOM      4  C   UNL     1       5.059   6.061  17.546  0.00  0.00    +0.000 A 
ATOM      5  C   UNL     1       5.838   4.918  17.730  0.00  0.00    +0.000 A 
ATOM      6  C   UNL     1       6.367   4.244  16.621  0.00  0.00    +0.000 A 
ENDROOT
BRANCH   1   8
ATOM      7  C   UNL     1       5.991   3.899  13.021  0.00  0.00    +0.000 C 
ATOM      8  C   UNL     1       6.693   4.040  14.157  0.00  0.00    +0.000 C 
BRANCH   7   9
ATOM      9  C   UNL     1       6.483   3.175  11.810  0.00  0.00    +0.000 C 
BRANCH   9  10
ATOM     10  C   UNL     1       5.629   1.940  11.536  0.00  0.00    +0.000 C 
BRANCH  10  12
ATOM     11  C   UNL     1       6.049  -0.531  11.347  0.00  0.00    +0.000 C 
ATOM     12  C   UNL     1       6.460   0.849  10.866  0.00  0.00    +0.000 C 
ENDBRANCH  10  12
ENDBRANCH   9  10
ENDBRANCH   7   9
ENDBRANCH   1   8
BRANCH   4  13
ATOM     13  O   UNL     1       4.525   6.633  18.673  0.00  0.00    +0.000 OA
BRANCH  13  14
ATOM     14  C   UNL     1       3.094   6.674  18.658  0.00  0.00    +0.000 C 
BRANCH  14  15
ATOM     15  C   UNL     1       2.494   5.312  18.874  0.00  0.00    +0.000 A 
ATOM     16  C   UNL     1       1.708   4.744  17.861  0.00  0.00    +0.000 A 
ATOM     17  C   UNL     1       1.078   3.518  18.059  0.00  0.00    +0.000 A 
ATOM     18  C   UNL     1       1.223   2.858  19.278  0.00  0.00    +0.000 A 
ATOM     19  C   UNL     1       1.998   3.413  20.306  0.00  0.00    +0.000 A 
ATOM     20  C   UNL     1       2.632   4.647  20.097  0.00  0.00    +0.000 A 
BRANCH  19  21
ATOM     21  C   UNL     1       2.105   2.678  21.589  0.00  0.00    +0.000 C 
ATOM     22  O   UNL     1       1.140   2.363  22.268  0.00  0.00    +0.000 OA
BRANCH  21  23
ATOM     23  O   UNL     1       3.402   2.424  21.891  0.00  0.00    +0.000 OA
ATOM     24  C   UNL     1       4.145   1.864  20.808  0.00  0.00    +0.000 C 
ENDBRANCH  21  23
ENDBRANCH  19  21
ENDBRANCH  14  15
ENDBRANCH  13  14
ENDBRANCH   4  13
TORSDOF 9
ENDMDL
MODEL 4
REMARK VINA RESULT:      -7.4      3.867      6.536
REMARK  Name = 
REMARK  11 active torsions:
REMARK  status: ('A' for Active; 'I' for Inactive)
REMARK    1  A    between atoms: C_1  and  C_2
REMARK    2  A    between atoms: C_2  and  C_3
REMARK    3  A    between atoms: C_3  and  C_4
REMARK    4  A    between atoms: C_4  and  C_5
REMARK    5  A    between atoms: C_6  and  C_7
REMARK    6  A    between atoms: C_10  and  O_11
REMARK    7  A    between atoms: O_11  and  C_12
REMARK    8  A    between atoms: C_12  and  C_13
REMARK    9  A    between atoms: C_17  and  C_18
REMARK   10  A    between atoms: C_18  and  O_20
REMARK   11  A    between atoms: O_20  and  C_21
REMARK                            x       y       z     vdW  Elec       q    Type
REMARK                         _______ _______ _______ _____ _____    ______ ____
ROOT
ATOM      1  C   UNL     1       6.019   4.465  14.485  0.00  0.00    +0.000 A 
ATOM      2  C   UNL     1       5.276   5.608  14.791  0.00  0.00    +0.000 A 
ATOM      3  C   UNL     1       5.388   6.215  16.034  0.00  0.00    +0.000 A 
ATOM      4  C   UNL     1       6.188   5.645  17.025  0.00  0.00    +0.000 A 
ATOM      5  C   UNL     1       6.925   4.496  16.739  0.00  0.00    +0.000 A 
ATOM      6  C   UNL     1       6.833   3.900  15.473  0.00  0.00    +0.000 A 
ENDROOT
BRANCH   1   8
ATOM      7  C   UNL     1       4.739   3.515  12.620  0.00  0.00    +0.000 C 
ATOM      8  C   UNL     1       5.922   3.864  13.152  0.00  0.00    +0.000 C 
BRANCH   7   9
ATOM      9  C   UNL     1       4.575   2.859  11.288  0.00  0.00    +0.000 C 
BRANCH   9  10
ATOM     10  C   UNL     1       4.198   3.885  10.223  0.00  0.00    +0.000 C 
BRANCH  10  12
ATOM     11  C   UNL     1       2.209   4.923   9.089  0.00  0.00    +0.000 C 
ATOM     12  C   UNL     1       2.757   3.678   9.762  0.00  0.00    +0.000 C 
ENDBRANCH  10  12
ENDBRANCH   9  10
ENDBRANCH   7   9
ENDBRANCH   1   8
BRANCH   4  13
ATOM     13  O   UNL     1       6.281   6.138  18.301  0.00  0.00    +0.000 OA
BRANCH  13  14
ATOM     14  C   UNL     1       5.921   5.180  19.301  0.00  0.00    +0.000 C 
BRANCH  14  15
ATOM     15  C   UNL     1       4.438   5.156  19.545  0.00  0.00    +0.000 A 
ATOM     16  C   UNL     1       3.702   6.340  19.393  0.00  0.00    +0.000 A 
ATOM     17  C   UNL     1       2.340   6.368  19.682  0.00  0.00    +0.000 A 
ATOM     18  C   UNL     1       1.708   5.212  20.134  0.00  0.00    +0.000 A 
ATOM     19  C   UNL     1       2.427   4.019  20.299  0.00  0.00    +0.000 A 
ATOM     20  C   UNL     1       3.799   3.999  20.003  0.00  0.00    +0.000 A 
BRANCH  19  21
ATOM     21  C   UNL     1       1.710   2.823  20.801  0.00  0.00    +0.000 C 
ATOM     22  O   UNL     1       1.254   2.734  21.930  0.00  0.00    +0.000 OA
BRANCH  21  23
ATOM     23  O   UNL     1       1.649   1.863  19.845  0.00  0.00    +0.000 OA
ATOM     24  C   UNL     1       0.795   2.196  18.750  0.00  0.00    +0.000 C 
ENDBRANCH  21  23
ENDBRANCH  19  21
ENDBRANCH  14  15
ENDBRANCH  13  14
ENDBRANCH   4  13
TORSDOF 9
ENDMDL
MODEL 5
REMARK VINA RESULT:      -7.3      0.906      1.359
REMARK  Name = 
REMARK  11 active torsions:
REMARK  status: ('A' for Active; 'I' for Inactive)
REMARK    1  A    between atoms: C_1  and  C_2
REMARK    2  A    between atoms: C_2  and  C_3
REMARK    3  A    between atoms: C_3  and  C_4
REMARK    4  A    between atoms: C_4  and  C_5
REMARK    5  A    between atoms: C_6  and  C_7
REMARK    6  A    between atoms: C_10  and  O_11
REMARK    7  A    between atoms: O_11  and  C_12
REMARK    8  A    between atoms: C_12  and  C_13
REMARK    9  A    between atoms: C_17  and  C_18
REMARK   10  A    between atoms: C_18  and  O_20
REMARK   11  A    between atoms: O_20  and  C_21
REMARK                            x       y       z     vdW  Elec       q    Type
REMARK                         _______ _______ _______ _____ _____    ______ ____
ROOT
ATOM      1  C   UNL     1       8.000   8.024  17.961  0.00  0.00    +0.000 A 
ATOM      2  C   UNL     1       7.458   7.677  16.720  0.00  0.00    +0.000 A 
ATOM      3  C   UNL     1       6.935   6.410  16.504  0.00  0.00    +0.000 A 
ATOM      4  C   UNL     1       7.013   5.438  17.501  0.00  0.00    +0.000 A 
ATOM      5  C   UNL     1       7.565   5.765  18.741  0.00  0.00    +0.000 A 
ATOM      6  C   UNL     1       8.067   7.054  18.967  0.00  0.00    +0.000 A 
ENDROOT
BRANCH   1   8
ATOM      7  C   UNL     1       9.263   9.685  19.252  0.00  0.00    +0.000 C 
ATOM      8  C   UNL     1       8.507   9.381  18.184  0.00  0.00    +0.000 C 
BRANCH   7   9
ATOM      9  C   UNL     1       9.772  11.055  19.561  0.00  0.00    +0.000 C 
BRANCH   9  10
ATOM     10  C   UNL     1      10.234  11.759  18.288  0.00  0.00    +0.000 C 
BRANCH  10  12
ATOM     11  C   UNL     1      12.333  11.880  19.666  0.00  0.00    +0.000 C 
ATOM     12  C   UNL     1      11.756  11.879  18.262  0.00  0.00    +0.000 C 
ENDBRANCH  10  12
ENDBRANCH   9  10
ENDBRANCH   7   9
ENDBRANCH   1   8
BRANCH   4  13
ATOM     13  O   UNL     1       6.598   4.142  17.332  0.00  0.00    +0.000 OA
BRANCH  13  14
ATOM     14  C   UNL     1       5.434   4.028  16.506  0.00  0.00    +0.000 C 
BRANCH  14  15
ATOM     15  C   UNL     1       4.176   4.346  17.266  0.00  0.00    +0.000 A 
ATOM     16  C   UNL     1       3.776   5.684  17.394  0.00  0.00    +0.000 A 
ATOM     17  C   UNL     1       2.658   6.018  18.154  0.00  0.00    +0.000 A 
ATOM     18  C   UNL     1       1.937   5.013  18.797  0.00  0.00    +0.000 A 
ATOM     19  C   UNL     1       2.325   3.670  18.687  0.00  0.00    +0.000 A 
ATOM     20  C   UNL     1       3.452   3.342  17.918  0.00  0.00    +0.000 A 
BRANCH  19  21
ATOM     21  C   UNL     1       1.534   2.643  19.406  0.00  0.00    +0.000 C 
ATOM     22  O   UNL     1       1.375   1.504  18.994  0.00  0.00    +0.000 OA
BRANCH  21  23
ATOM     23  O   UNL     1       1.020   3.149  20.554  0.00  0.00    +0.000 OA
ATOM     24  C   UNL     1       1.712   2.725  21.729  0.00  0.00    +0.000 C 
ENDBRANCH  21  23
ENDBRANCH  19  21
ENDBRANCH  14  15
ENDBRANCH  13  14
ENDBRANCH   4  13
TORSDOF 9
ENDMDL
MODEL 6
REMARK VINA RESULT:      -7.2      1.738      2.505
REMARK  Name = 
REMARK  11 active torsions:
REMARK  status: ('A' for Active; 'I' for Inactive)
REMARK    1  A    between atoms: C_1  and  C_2
REMARK    2  A    between atoms: C_2  and  C_3
REMARK    3  A    between atoms: C_3  and  C_4
REMARK    4  A    between atoms: C_4  and  C_5
REMARK    5  A    between atoms: C_6  and  C_7
REMARK    6  A    between atoms: C_10  and  O_11
REMARK    7  A    between atoms: O_11  and  C_12
REMARK    8  A    between atoms: C_12  and  C_13
REMARK    9  A    between atoms: C_17  and  C_18
REMARK   10  A    between atoms: C_18  and  O_20
REMARK   11  A    between atoms: O_20  and  C_21
REMARK                            x       y       z     vdW  Elec       q    Type
REMARK                         _______ _______ _______ _____ _____    ______ ____
ROOT
ATOM      1  C   UNL     1       7.677   7.826  17.857  0.00  0.00    +0.000 A 
ATOM      2  C   UNL     1       8.183   6.858  18.728  0.00  0.00    +0.000 A 
ATOM      3  C   UNL     1       7.717   5.552  18.685  0.00  0.00    +0.000 A 
ATOM      4  C   UNL     1       6.677   5.205  17.823  0.00  0.00    +0.000 A 
ATOM      5  C   UNL     1       6.152   6.164  16.957  0.00  0.00    +0.000 A 
ATOM      6  C   UNL     1       6.644   7.476  16.981  0.00  0.00    +0.000 A 
ENDROOT
BRANCH   1   8
ATOM      7  C   UNL     1       8.969   9.629  18.907  0.00  0.00    +0.000 C 
ATOM      8  C   UNL     1       8.214   9.189  17.886  0.00  0.00    +0.000 C 
BRANCH   7   9
ATOM      9  C   UNL     1       9.508  11.018  19.019  0.00  0.00    +0.000 C 
BRANCH   9  10
ATOM     10  C   UNL     1      10.266  11.198  20.331  0.00  0.00    +0.000 C 
BRANCH  10  12
ATOM     11  C   UNL     1       8.561  11.853  22.058  0.00  0.00    +0.000 C 
ATOM     12  C   UNL     1       9.670  12.343  21.144  0.00  0.00    +0.000 C 
ENDBRANCH  10  12
ENDBRANCH   9  10
ENDBRANCH   7   9
ENDBRANCH   1   8
BRANCH   4  13
ATOM     13  O   UNL     1       6.106   3.959  17.785  0.00  0.00    +0.000 OA
BRANCH  13  14
ATOM     14  C   UNL     1       4.873   3.927  17.059  0.00  0.00    +0.000 C 
BRANCH  14  15
ATOM     15  C   UNL     1       3.746   3.387  17.896  0.00  0.00    +0.000 A 
ATOM     16  C   UNL     1       2.805   2.533  17.303  0.00  0.00    +0.000 A 
ATOM     17  C   UNL     1       1.709   2.076  18.030  0.00  0.00    +0.000 A 
ATOM     18  C   UNL     1       1.543   2.479  19.353  0.00  0.00    +0.000 A 
ATOM     19  C   UNL     1       2.469   3.338  19.962  0.00  0.00    +0.000 A 
ATOM     20  C   UNL     1       3.572   3.792  19.223  0.00  0.00    +0.000 A 
BRANCH  19  21
ATOM     21  C   UNL     1       2.237   3.750  21.367  0.00  0.00    +0.000 C 
ATOM     22  O   UNL     1       1.952   2.968  22.261  0.00  0.00    +0.000 OA
BRANCH  21  23
ATOM     23  O   UNL     1       2.374   5.093  21.504  0.00  0.00    +0.000 OA
ATOM     24  C   UNL     1       1.398   5.845  20.784  0.00  0.00    +0.000 C 
ENDBRANCH  21  23
ENDBRANCH  19  21
ENDBRANCH  14  15
ENDBRANCH  13  14
ENDBRANCH   4  13
TORSDOF 9
ENDMDL
MODEL 7
REMARK VINA RESULT:      -7.2      0.862      1.600
REMARK  Name = 
REMARK  11 active torsions:
REMARK  status: ('A' for Active; 'I' for Inactive)
REMARK    1  A    between atoms: C_1  and  C_2
REMARK    2  A    between atoms: C_2  and  C_3
REMARK    3  A    between atoms: C_3  and  C_4
REMARK    4  A    between atoms: C_4  and  C_5
REMARK    5  A    between atoms: C_6  and  C_7
REMARK    6  A    between atoms: C_10  and  O_11
REMARK    7  A    between atoms: O_11  and  C_12
REMARK    8  A    between atoms: C_12  and  C_13
REMARK    9  A    between atoms: C_17  and  C_18
REMARK   10  A    between atoms: C_18  and  O_20
REMARK   11  A    between atoms: O_20  and  C_21
REMARK                            x       y       z     vdW  Elec       q    Type
REMARK                         _______ _______ _______ _____ _____    ______ ____
ROOT
ATOM      1  C   UNL     1       8.023   7.457  18.259  0.00  0.00    +0.000 A 
ATOM      2  C   UNL     1       7.357   7.543  17.033  0.00  0.00    +0.000 A 
ATOM      3  C   UNL     1       6.579   6.490  16.575  0.00  0.00    +0.000 A 
ATOM      4  C   UNL     1       6.514   5.298  17.296  0.00  0.00    +0.000 A 
ATOM      5  C   UNL     1       7.185   5.192  18.515  0.00  0.00    +0.000 A 
ATOM      6  C   UNL     1       7.948   6.268  18.991  0.00  0.00    +0.000 A 
ENDROOT
BRANCH   1   8
ATOM      7  C   UNL     1       8.699   9.815  18.192  0.00  0.00    +0.000 C 
ATOM      8  C   UNL     1       8.804   8.597  18.748  0.00  0.00    +0.000 C 
BRANCH   7   9
ATOM      9  C   UNL     1       9.498  11.006  18.613  0.00  0.00    +0.000 C 
BRANCH   9  10
ATOM     10  C   UNL     1       8.958  12.276  17.962  0.00  0.00    +0.000 C 
BRANCH  10  12
ATOM     11  C   UNL     1      11.370  12.917  18.258  0.00  0.00    +0.000 C 
ATOM     12  C   UNL     1      10.102  13.150  17.457  0.00  0.00    +0.000 C 
ENDBRANCH  10  12
ENDBRANCH   9  10
ENDBRANCH   7   9
ENDBRANCH   1   8
BRANCH   4  13
ATOM     13  O   UNL     1       5.838   4.185  16.865  0.00  0.00    +0.000 OA
BRANCH  13  14
ATOM     14  C   UNL     1       4.475   4.454  16.518  0.00  0.00    +0.000 C 
BRANCH  14  15
ATOM     15  C   UNL     1       3.654   4.819  17.724  0.00  0.00    +0.000 A 
ATOM     16  C   UNL     1       3.338   6.166  17.952  0.00  0.00    +0.000 A 
ATOM     17  C   UNL     1       2.642   6.545  19.097  0.00  0.00    +0.000 A 
ATOM     18  C   UNL     1       2.267   5.577  20.027  0.00  0.00    +0.000 A 
ATOM     19  C   UNL     1       2.579   4.226  19.820  0.00  0.00    +0.000 A 
ATOM     20  C   UNL     1       3.278   3.852  18.662  0.00  0.00    +0.000 A 
BRANCH  19  21
ATOM     21  C   UNL     1       2.172   3.239  20.849  0.00  0.00    +0.000 C 
ATOM     22  O   UNL     1       2.290   3.430  22.050  0.00  0.00    +0.000 OA
BRANCH  21  23
ATOM     23  O   UNL     1       1.673   2.119  20.270  0.00  0.00    +0.000 OA
ATOM     24  C   UNL     1       0.595   2.370  19.369  0.00  0.00    +0.000 C 
ENDBRANCH  21  23
ENDBRANCH  19  21
ENDBRANCH  14  15
ENDBRANCH  13  14
ENDBRANCH   4  13
TORSDOF 9
ENDMDL
MODEL 8
REMARK VINA RESULT:      -7.1      4.177      8.008
REMARK  Name = 
REMARK  11 active torsions:
REMARK  status: ('A' for Active; 'I' for Inactive)
REMARK    1  A    between atoms: C_1  and  C_2
REMARK    2  A    between atoms: C_2  and  C_3
REMARK    3  A    between atoms: C_3  and  C_4
REMARK    4  A    between atoms: C_4  and  C_5
REMARK    5  A    between atoms: C_6  and  C_7
REMARK    6  A    between atoms: C_10  and  O_11
REMARK    7  A    between atoms: O_11  and  C_12
REMARK    8  A    between atoms: C_12  and  C_13
REMARK    9  A    between atoms: C_17  and  C_18
REMARK   10  A    between atoms: C_18  and  O_20
REMARK   11  A    between atoms: O_20  and  C_21
REMARK                            x       y       z     vdW  Elec       q    Type
REMARK                         _______ _______ _______ _____ _____    ______ ____
ROOT
ATOM      1  C   UNL     1       1.477   9.178  18.969  0.00  0.00    +0.000 A 
ATOM      2  C   UNL     1       1.359   8.473  20.170  0.00  0.00    +0.000 A 
ATOM      3  C   UNL     1       1.966   7.235  20.328  0.00  0.00    +0.000 A 
ATOM      4  C   UNL     1       2.639   6.641  19.261  0.00  0.00    +0.000 A 
ATOM      5  C   UNL     1       2.753   7.326  18.051  0.00  0.00    +0.000 A 
ATOM      6  C   UNL     1       2.164   8.589  17.901  0.00  0.00    +0.000 A 
ENDROOT
BRANCH   1   8
ATOM      7  C   UNL     1      -0.438  10.656  18.558  0.00  0.00    +0.000 C 
ATOM      8  C   UNL     1       0.868  10.504  18.835  0.00  0.00    +0.000 C 
BRANCH   7   9
ATOM      9  C   UNL     1      -1.110  11.977  18.365  0.00  0.00    +0.000 C 
BRANCH   9  10
ATOM     10  C   UNL     1      -2.596  11.879  18.701  0.00  0.00    +0.000 C 
BRANCH  10  12
ATOM     11  C   UNL     1      -3.749   9.939  17.595  0.00  0.00    +0.000 C 
ATOM     12  C   UNL     1      -3.393  11.411  17.487  0.00  0.00    +0.000 C 
ENDBRANCH  10  12
ENDBRANCH   9  10
ENDBRANCH   7   9
ENDBRANCH   1   8
BRANCH   4  13
ATOM     13  O   UNL     1       3.188   5.385  19.315  0.00  0.00    +0.000 OA
BRANCH  13  14
ATOM     14  C   UNL     1       3.318   4.773  18.028  0.00  0.00    +0.000 C 
BRANCH  14  15
ATOM     15  C   UNL     1       4.753   4.702  17.584  0.00  0.00    +0.000 A 
ATOM     16  C   UNL     1       5.769   4.772  18.549  0.00  0.00    +0.000 A 
ATOM     17  C   UNL     1       7.107   4.785  18.165  0.00  0.00    +0.000 A 
ATOM     18  C   UNL     1       7.437   4.735  16.812  0.00  0.00    +0.000 A 
ATOM     19  C   UNL     1       6.435   4.671  15.832  0.00  0.00    +0.000 A 
ATOM     20  C   UNL     1       5.089   4.657  16.227  0.00  0.00    +0.000 A 
BRANCH  19  21
ATOM     21  C   UNL     1       6.840   4.638  14.407  0.00  0.00    +0.000 C 
ATOM     22  O   UNL     1       7.682   5.382  13.928  0.00  0.00    +0.000 OA
BRANCH  21  23
ATOM     23  O   UNL     1       6.145   3.690  13.731  0.00  0.00    +0.000 OA
ATOM     24  C   UNL     1       6.478   3.613  12.345  0.00  0.00    +0.000 C 
ENDBRANCH  21  23
ENDBRANCH  19  21
ENDBRANCH  14  15
ENDBRANCH  13  14
ENDBRANCH   4  13
TORSDOF 9
ENDMDL
MODEL 9
REMARK VINA RESULT:      -7.1      0.800      1.357
REMARK  Name = 
REMARK  11 active torsions:
REMARK  status: ('A' for Active; 'I' for Inactive)
REMARK    1  A    between atoms: C_1  and  C_2
REMARK    2  A    between atoms: C_2  and  C_3
REMARK    3  A    between atoms: C_3  and  C_4
REMARK    4  A    between atoms: C_4  and  C_5
REMARK    5  A    between atoms: C_6  and  C_7
REMARK    6  A    between atoms: C_10  and  O_11
REMARK    7  A    between atoms: O_11  and  C_12
REMARK    8  A    between atoms: C_12  and  C_13
REMARK    9  A    between atoms: C_17  and  C_18
REMARK   10  A    between atoms: C_18  and  O_20
REMARK   11  A    between atoms: O_20  and  C_21
REMARK                            x       y       z     vdW  Elec       q    Type
REMARK                         _______ _______ _______ _____ _____    ______ ____
ROOT
ATOM      1  C   UNL     1       8.105   7.531  18.322  0.00  0.00    +0.000 A 
ATOM      2  C   UNL     1       7.635   7.558  17.006  0.00  0.00    +0.000 A 
ATOM      3  C   UNL     1       7.022   6.445  16.449  0.00  0.00    +0.000 A 
ATOM      4  C   UNL     1       6.937   5.255  17.171  0.00  0.00    +0.000 A 
ATOM      5  C   UNL     1       7.415   5.208  18.481  0.00  0.00    +0.000 A 
ATOM      6  C   UNL     1       8.008   6.342  19.053  0.00  0.00    +0.000 A 
ENDROOT
BRANCH   1   8
ATOM      7  C   UNL     1       8.697   9.912  18.269  0.00  0.00    +0.000 C 
ATOM      8  C   UNL     1       8.709   8.731  18.909  0.00  0.00    +0.000 C 
BRANCH   7   9
ATOM      9  C   UNL     1       9.333  11.159  18.790  0.00  0.00    +0.000 C 
BRANCH   9  10
ATOM     10  C   UNL     1       9.057  12.335  17.857  0.00  0.00    +0.000 C 
BRANCH  10  12
ATOM     11  C   UNL     1       9.689  13.449  20.020  0.00  0.00    +0.000 C 
ATOM     12  C   UNL     1       9.379  13.658  18.548  0.00  0.00    +0.000 C 
ENDBRANCH  10  12
ENDBRANCH   9  10
ENDBRANCH   7   9
ENDBRANCH   1   8
BRANCH   4  13
ATOM     13  O   UNL     1       6.425   4.091  16.658  0.00  0.00    +0.000 OA
BRANCH  13  14
ATOM     14  C   UNL     1       5.156   4.268  16.020  0.00  0.00    +0.000 C 
BRANCH  14  15
ATOM     15  C   UNL     1       4.067   4.562  17.014  0.00  0.00    +0.000 A 
ATOM     16  C   UNL     1       3.837   5.890  17.401  0.00  0.00    +0.000 A 
ATOM     17  C   UNL     1       2.886   6.188  18.374  0.00  0.00    +0.000 A 
ATOM     18  C   UNL     1       2.166   5.157  18.972  0.00  0.00    +0.000 A 
ATOM     19  C   UNL     1       2.386   3.821  18.604  0.00  0.00    +0.000 A 
ATOM     20  C   UNL     1       3.344   3.530  17.621  0.00  0.00    +0.000 A 
BRANCH  19  21
ATOM     21  C   UNL     1       1.605   2.760  19.284  0.00  0.00    +0.000 C 
ATOM     22  O   UNL     1       0.580   2.280  18.827  0.00  0.00    +0.000 OA
BRANCH  21  23
ATOM     23  O   UNL     1       2.181   2.421  20.464  0.00  0.00    +0.000 OA
ATOM     24  C   UNL     1       1.347   2.657  21.598  0.00  0.00    +0.000 C 
ENDBRANCH  21  23
ENDBRANCH  19  21
ENDBRANCH  14  15
ENDBRANCH  13  14
ENDBRANCH   4  13
TORSDOF 9
ENDMDL
