MODEL 1
REMARK VINA RESULT:      -9.0      0.000      0.000
REMARK  Name = 
REMARK  4 active torsions:
REMARK  status: ('A' for Active; 'I' for Inactive)
REMARK    1  A    between atoms: C_1  and  N_2
REMARK    2  A    between atoms: C_4  and  C_5
REMARK    3  A    between atoms: C_11  and  N_12
REMARK    4  A    between atoms: C_13  and  C_15
REMARK                            x       y       z     vdW  Elec       q    Type
REMARK                         _______ _______ _______ _____ _____    ______ ____
ROOT
ATOM      1  C   UNL     1       4.626   5.211  17.287  0.00  0.00    +0.000 A 
ATOM      2  C   UNL     1       4.383   4.124  18.135  0.00  0.00    +0.000 A 
ATOM      3  C   UNL     1       3.524   4.250  19.224  0.00  0.00    +0.000 A 
ATOM      4  C   UNL     1       2.888   5.472  19.481  0.00  0.00    +0.000 A 
ATOM      5  C   UNL     1       2.031   5.638  20.559  0.00  0.00    +0.000 A 
ATOM      6  N   UNL     1       1.391   6.789  20.845  0.00  0.00    +0.000 NA
ATOM      7  C   UNL     1       1.589   7.851  20.051  0.00  0.00    +0.000 A 
ATOM      8  C   UNL     1       2.434   7.789  18.945  0.00  0.00    +0.000 A 
ATOM      9  C   UNL     1       3.102   6.582  18.644  0.00  0.00    +0.000 A 
ATOM     10  C   UNL     1       3.979   6.435  17.548  0.00  0.00    +0.000 A 
ENDROOT
BRANCH   1  14
ATOM     11  C   UNL     1       6.673   3.974  12.935  0.00  0.00    +0.000 C 
ATOM     12  N   UNL     1       6.445   4.531  14.246  0.00  0.00    +0.000 N 
ATOM     13  C   UNL     1       5.290   4.475  14.974  0.00  0.00    +0.000 A 
ATOM     14  C   UNL     1       5.561   5.086  16.182  0.00  0.00    +0.000 A 
ATOM     15  C   UNL     1       6.911   5.491  16.062  0.00  0.00    +0.000 A 
ATOM     16  N   UNL     1       7.448   5.159  14.884  0.00  0.00    +0.000 NA
ENDBRANCH   1  14
BRANCH   7  17
ATOM     17  N   UNL     1       0.928   9.062  20.334  0.00  0.00    +0.000 N 
ATOM     18  C   UNL     1       0.976   9.690  21.569  0.00  0.00    +0.000 C 
ATOM     19  O   UNL     1       1.595   9.312  22.561  0.00  0.00    +0.000 OA
ATOM     20  H   UNL     1       0.438   9.504  19.574  0.00  0.00    +0.000 HD
BRANCH  18  21
ATOM     21  C   UNL     1       0.217  10.966  21.711  0.00  0.00    +0.000 A 
ATOM     22  C   UNL     1       0.529  12.132  21.005  0.00  0.00    +0.000 A 
ATOM     23  C   UNL     1      -0.280  13.266  21.141  0.00  0.00    +0.000 A 
ATOM     24  C   UNL     1      -1.415  13.248  21.976  0.00  0.00    +0.000 A 
ATOM     25  C   UNL     1      -2.274  14.340  22.132  0.00  0.00    +0.000 A 
ATOM     26  N   UNL     1      -3.376  14.348  22.918  0.00  0.00    +0.000 NA
ATOM     27  C   UNL     1      -3.647  13.208  23.587  0.00  0.00    +0.000 A 
ATOM     28  C   UNL     1      -2.869  12.065  23.508  0.00  0.00    +0.000 A 
ATOM     29  C   UNL     1      -1.733  12.079  22.689  0.00  0.00    +0.000 A 
ATOM     30  C   UNL     1      -0.913  10.950  22.550  0.00  0.00    +0.000 A 
ENDBRANCH  18  21
ENDBRANCH   7  17
TORSDOF 3
ENDMDL
MODEL 2
REMARK VINA RESULT:      -9.0      1.285      1.979
REMARK  Name = 
REMARK  4 active torsions:
REMARK  status: ('A' for Active; 'I' for Inactive)
REMARK    1  A    between atoms: C_1  and  N_2
REMARK    2  A    between atoms: C_4  and  C_5
REMARK    3  A    between atoms: C_11  and  N_12
REMARK    4  A    between atoms: C_13  and  C_15
REMARK                            x       y       z     vdW  Elec       q    Type
REMARK                         _______ _______ _______ _____ _____    ______ ____
ROOT
ATOM      1  C   UNL     1       4.810   4.503  16.942  0.00  0.00    +0.000 A 
ATOM      2  C   UNL     1       4.555   3.231  17.468  0.00  0.00    +0.000 A 
ATOM      3  C   UNL     1       3.710   3.073  18.564  0.00  0.00    +0.000 A 
ATOM      4  C   UNL     1       3.101   4.191  19.151  0.00  0.00    +0.000 A 
ATOM      5  C   UNL     1       2.259   4.074  20.247  0.00  0.00    +0.000 A 
ATOM      6  N   UNL     1       1.645   5.115  20.843  0.00  0.00    +0.000 NA
ATOM      7  C   UNL     1       1.857   6.349  20.361  0.00  0.00    +0.000 A 
ATOM      8  C   UNL     1       2.689   6.573  19.267  0.00  0.00    +0.000 A 
ATOM      9  C   UNL     1       3.329   5.481  18.641  0.00  0.00    +0.000 A 
ATOM     10  C   UNL     1       4.192   5.621  17.532  0.00  0.00    +0.000 A 
ENDROOT
BRANCH   1  14
ATOM     11  C   UNL     1       6.982   4.088  12.495  0.00  0.00    +0.000 C 
ATOM     12  N   UNL     1       6.672   4.470  13.851  0.00  0.00    +0.000 N 
ATOM     13  C   UNL     1       5.566   4.121  14.571  0.00  0.00    +0.000 A 
ATOM     14  C   UNL     1       5.731   4.665  15.829  0.00  0.00    +0.000 A 
ATOM     15  C   UNL     1       6.971   5.341  15.745  0.00  0.00    +0.000 A 
ATOM     16  N   UNL     1       7.542   5.228  14.542  0.00  0.00    +0.000 NA
ENDBRANCH   1  14
BRANCH   7  17
ATOM     17  N   UNL     1       1.223   7.450  20.971  0.00  0.00    +0.000 N 
ATOM     18  C   UNL     1       1.082   8.686  20.361  0.00  0.00    +0.000 C 
ATOM     19  O   UNL     1       1.453   8.994  19.232  0.00  0.00    +0.000 OA
ATOM     20  H   UNL     1       0.818   7.297  21.880  0.00  0.00    +0.000 HD
BRANCH  18  21
ATOM     21  C   UNL     1       0.390   9.752  21.143  0.00  0.00    +0.000 A 
ATOM     22  C   UNL     1      -0.342   9.503  22.308  0.00  0.00    +0.000 A 
ATOM     23  C   UNL     1      -0.898  10.570  23.023  0.00  0.00    +0.000 A 
ATOM     24  C   UNL     1      -0.722  11.899  22.589  0.00  0.00    +0.000 A 
ATOM     25  C   UNL     1      -1.232  13.007  23.274  0.00  0.00    +0.000 A 
ATOM     26  N   UNL     1      -1.069  14.294  22.887  0.00  0.00    +0.000 NA
ATOM     27  C   UNL     1      -0.360  14.499  21.759  0.00  0.00    +0.000 A 
ATOM     28  C   UNL     1       0.193  13.481  21.000  0.00  0.00    +0.000 A 
ATOM     29  C   UNL     1       0.013  12.156  21.418  0.00  0.00    +0.000 A 
ATOM     30  C   UNL     1       0.561  11.079  20.707  0.00  0.00    +0.000 A 
ENDBRANCH  18  21
ENDBRANCH   7  17
TORSDOF 3
ENDMDL
MODEL 3
REMARK VINA RESULT:      -8.8      6.792      9.259
REMARK  Name = 
REMARK  4 active torsions:
REMARK  status: ('A' for Active; 'I' for Inactive)
REMARK    1  A    between atoms: C_1  and  N_2
REMARK    2  A    between atoms: C_4  and  C_5
REMARK    3  A    between atoms: C_11  and  N_12
REMARK    4  A    between atoms: C_13  and  C_15
REMARK                            x       y       z     vdW  Elec       q    Type
REMARK                         _______ _______ _______ _____ _____    ______ ____
ROOT
ATOM      1  C   UNL     1       3.920   4.029  18.225  0.00  0.00    +0.000 A 
ATOM      2  C   UNL     1       4.196   3.551  16.939  0.00  0.00    +0.000 A 
ATOM      3  C   UNL     1       5.227   4.103  16.182  0.00  0.00    +0.000 A 
ATOM      4  C   UNL     1       6.004   5.146  16.705  0.00  0.00    +0.000 A 
ATOM      5  C   UNL     1       7.034   5.726  15.978  0.00  0.00    +0.000 A 
ATOM      6  N   UNL     1       7.813   6.724  16.438  0.00  0.00    +0.000 NA
ATOM      7  C   UNL     1       7.586   7.203  17.670  0.00  0.00    +0.000 A 
ATOM      8  C   UNL     1       6.572   6.693  18.477  0.00  0.00    +0.000 A 
ATOM      9  C   UNL     1       5.759   5.644  17.996  0.00  0.00    +0.000 A 
ATOM     10  C   UNL     1       4.707   5.073  18.747  0.00  0.00    +0.000 A 
ENDROOT
BRANCH   1  14
ATOM     11  C   UNL     1       1.132   2.339  21.970  0.00  0.00    +0.000 C 
ATOM     12  N   UNL     1       1.594   2.743  20.665  0.00  0.00    +0.000 N 
ATOM     13  C   UNL     1       2.785   3.339  20.364  0.00  0.00    +0.000 A 
ATOM     14  C   UNL     1       2.812   3.482  18.990  0.00  0.00    +0.000 A 
ATOM     15  C   UNL     1       1.571   2.951  18.570  0.00  0.00    +0.000 A 
ATOM     16  N   UNL     1       0.827   2.506  19.587  0.00  0.00    +0.000 NA
ENDBRANCH   1  14
BRANCH   7  17
ATOM     17  N   UNL     1       8.391   8.248  18.167  0.00  0.00    +0.000 N 
ATOM     18  C   UNL     1       8.161   9.587  17.893  0.00  0.00    +0.000 C 
ATOM     19  O   UNL     1       7.246  10.052  17.220  0.00  0.00    +0.000 OA
ATOM     20  H   UNL     1       9.139   7.991  18.789  0.00  0.00    +0.000 HD
BRANCH  18  21
ATOM     21  C   UNL     1       9.109  10.573  18.491  0.00  0.00    +0.000 A 
ATOM     22  C   UNL     1       9.691  10.415  19.753  0.00  0.00    +0.000 A 
ATOM     23  C   UNL     1      10.628  11.350  20.209  0.00  0.00    +0.000 A 
ATOM     24  C   UNL     1      11.001  12.448  19.409  0.00  0.00    +0.000 A 
ATOM     25  C   UNL     1      11.948  13.400  19.799  0.00  0.00    +0.000 A 
ATOM     26  N   UNL     1      12.333  14.458  19.047  0.00  0.00    +0.000 NA
ATOM     27  C   UNL     1      11.751  14.580  17.837  0.00  0.00    +0.000 A 
ATOM     28  C   UNL     1      10.802  13.700  17.345  0.00  0.00    +0.000 A 
ATOM     29  C   UNL     1      10.418  12.612  18.139  0.00  0.00    +0.000 A 
ATOM     30  C   UNL     1       9.477  11.672  17.694  0.00  0.00    +0.000 A 
ENDBRANCH  18  21
ENDBRANCH   7  17
TORSDOF 3
ENDMDL
MODEL 4
REMARK VINA RESULT:      -8.8      0.769      1.654
REMARK  Name = 
REMARK  4 active torsions:
REMARK  status: ('A' for Active; 'I' for Inactive)
REMARK    1  A    between atoms: C_1  and  N_2
REMARK    2  A    between atoms: C_4  and  C_5
REMARK    3  A    between atoms: C_11  and  N_12
REMARK    4  A    between atoms: C_13  and  C_15
REMARK                            x       y       z     vdW  Elec       q    Type
REMARK                         _______ _______ _______ _____ _____    ______ ____
ROOT
ATOM      1  C   UNL     1       4.653   5.138  17.482  0.00  0.00    +0.000 A 
ATOM      2  C   UNL     1       4.473   4.061  18.358  0.00  0.00    +0.000 A 
ATOM      3  C   UNL     1       3.617   4.173  19.452  0.00  0.00    +0.000 A 
ATOM      4  C   UNL     1       2.923   5.368  19.684  0.00  0.00    +0.000 A 
ATOM      5  C   UNL     1       2.068   5.518  20.767  0.00  0.00    +0.000 A 
ATOM      6  N   UNL     1       1.373   6.642  21.030  0.00  0.00    +0.000 NA
ATOM      7  C   UNL     1       1.511   7.692  20.207  0.00  0.00    +0.000 A 
ATOM      8  C   UNL     1       2.349   7.644  19.095  0.00  0.00    +0.000 A 
ATOM      9  C   UNL     1       3.075   6.464  18.818  0.00  0.00    +0.000 A 
ATOM     10  C   UNL     1       3.949   6.333  17.717  0.00  0.00    +0.000 A 
ENDROOT
BRANCH   1  14
ATOM     11  C   UNL     1       6.699   3.939  13.118  0.00  0.00    +0.000 C 
ATOM     12  N   UNL     1       6.468   4.492  14.430  0.00  0.00    +0.000 N 
ATOM     13  C   UNL     1       5.319   4.413  15.164  0.00  0.00    +0.000 A 
ATOM     14  C   UNL     1       5.584   5.031  16.371  0.00  0.00    +0.000 A 
ATOM     15  C   UNL     1       6.925   5.463  16.242  0.00  0.00    +0.000 A 
ATOM     16  N   UNL     1       7.461   5.141  15.061  0.00  0.00    +0.000 NA
ENDBRANCH   1  14
BRANCH   7  17
ATOM     17  N   UNL     1       0.792   8.876  20.466  0.00  0.00    +0.000 N 
ATOM     18  C   UNL     1       0.905   9.596  21.645  0.00  0.00    +0.000 C 
ATOM     19  O   UNL     1       1.634   9.336  22.598  0.00  0.00    +0.000 OA
ATOM     20  H   UNL     1       0.208   9.226  19.726  0.00  0.00    +0.000 HD
BRANCH  18  21
ATOM     21  C   UNL     1       0.071  10.828  21.768  0.00  0.00    +0.000 A 
ATOM     22  C   UNL     1      -0.814  11.057  22.826  0.00  0.00    +0.000 A 
ATOM     23  C   UNL     1      -1.504  12.272  22.906  0.00  0.00    +0.000 A 
ATOM     24  C   UNL     1      -1.312  13.277  21.936  0.00  0.00    +0.000 A 
ATOM     25  C   UNL     1      -1.953  14.519  21.976  0.00  0.00    +0.000 A 
ATOM     26  N   UNL     1      -1.780  15.506  21.066  0.00  0.00    +0.000 NA
ATOM     27  C   UNL     1      -0.921  15.251  20.058  0.00  0.00    +0.000 A 
ATOM     28  C   UNL     1      -0.230  14.059  19.916  0.00  0.00    +0.000 A 
ATOM     29  C   UNL     1      -0.424  13.052  20.870  0.00  0.00    +0.000 A 
ATOM     30  C   UNL     1       0.258  11.829  20.797  0.00  0.00    +0.000 A 
ENDBRANCH  18  21
ENDBRANCH   7  17
TORSDOF 3
ENDMDL
MODEL 5
REMARK VINA RESULT:      -8.7      6.558      9.063
REMARK  Name = 
REMARK  4 active torsions:
REMARK  status: ('A' for Active; 'I' for Inactive)
REMARK    1  A    between atoms: C_1  and  N_2
REMARK    2  A    between atoms: C_4  and  C_5
REMARK    3  A    between atoms: C_11  and  N_12
REMARK    4  A    between atoms: C_13  and  C_15
REMARK                            x       y       z     vdW  Elec       q    Type
REMARK                         _______ _______ _______ _____ _____    ______ ____
ROOT
ATOM      1  C   UNL     1       3.767   4.037  18.526  0.00  0.00    +0.000 A 
ATOM      2  C   UNL     1       4.307   3.172  17.568  0.00  0.00    +0.000 A 
ATOM      3  C   UNL     1       5.358   3.584  16.751  0.00  0.00    +0.000 A 
ATOM      4  C   UNL     1       5.889   4.874  16.884  0.00  0.00    +0.000 A 
ATOM      5  C   UNL     1       6.931   5.322  16.085  0.00  0.00    +0.000 A 
ATOM      6  N   UNL     1       7.480   6.549  16.178  0.00  0.00    +0.000 NA
ATOM      7  C   UNL     1       6.997   7.403  17.091  0.00  0.00    +0.000 A 
ATOM      8  C   UNL     1       5.949   7.052  17.939  0.00  0.00    +0.000 A 
ATOM      9  C   UNL     1       5.376   5.765  17.843  0.00  0.00    +0.000 A 
ATOM     10  C   UNL     1       4.308   5.330  18.658  0.00  0.00    +0.000 A 
ENDROOT
BRANCH   1  14
ATOM     11  C   UNL     1       1.035   2.269  22.277  0.00  0.00    +0.000 C 
ATOM     12  N   UNL     1       1.449   2.836  21.017  0.00  0.00    +0.000 N 
ATOM     13  C   UNL     1       2.719   3.174  20.646  0.00  0.00    +0.000 A 
ATOM     14  C   UNL     1       2.639   3.618  19.341  0.00  0.00    +0.000 A 
ATOM     15  C   UNL     1       1.262   3.520  19.034  0.00  0.00    +0.000 A 
ATOM     16  N   UNL     1       0.536   3.051  20.054  0.00  0.00    +0.000 NA
ENDBRANCH   1  14
BRANCH   7  17
ATOM     17  N   UNL     1       7.559   8.691  17.203  0.00  0.00    +0.000 N 
ATOM     18  C   UNL     1       8.432   9.059  18.214  0.00  0.00    +0.000 C 
ATOM     19  O   UNL     1       8.849   8.345  19.121  0.00  0.00    +0.000 OA
ATOM     20  H   UNL     1       7.340   9.349  16.473  0.00  0.00    +0.000 HD
BRANCH  18  21
ATOM     21  C   UNL     1       8.937  10.464  18.195  0.00  0.00    +0.000 A 
ATOM     22  C   UNL     1       8.226  11.531  17.637  0.00  0.00    +0.000 A 
ATOM     23  C   UNL     1       8.738  12.831  17.726  0.00  0.00    +0.000 A 
ATOM     24  C   UNL     1       9.959  13.083  18.383  0.00  0.00    +0.000 A 
ATOM     25  C   UNL     1      10.507  14.361  18.526  0.00  0.00    +0.000 A 
ATOM     26  N   UNL     1      11.672  14.634  19.161  0.00  0.00    +0.000 NA
ATOM     27  C   UNL     1      12.332  13.581  19.686  0.00  0.00    +0.000 A 
ATOM     28  C   UNL     1      11.885  12.273  19.607  0.00  0.00    +0.000 A 
ATOM     29  C   UNL     1      10.678  12.013  18.946  0.00  0.00    +0.000 A 
ATOM     30  C   UNL     1      10.159  10.715  18.845  0.00  0.00    +0.000 A 
ENDBRANCH  18  21
ENDBRANCH   7  17
TORSDOF 3
ENDMDL
MODEL 6
REMARK VINA RESULT:      -8.7      1.294      1.392
REMARK  Name = 
REMARK  4 active torsions:
REMARK  status: ('A' for Active; 'I' for Inactive)
REMARK    1  A    between atoms: C_1  and  N_2
REMARK    2  A    between atoms: C_4  and  C_5
REMARK    3  A    between atoms: C_11  and  N_12
REMARK    4  A    between atoms: C_13  and  C_15
REMARK                            x       y       z     vdW  Elec       q    Type
REMARK                         _______ _______ _______ _____ _____    ______ ____
ROOT
ATOM      1  C   UNL     1       4.857   4.905  16.582  0.00  0.00    +0.000 A 
ATOM      2  C   UNL     1       4.537   3.747  17.301  0.00  0.00    +0.000 A 
ATOM      3  C   UNL     1       3.702   3.811  18.414  0.00  0.00    +0.000 A 
ATOM      4  C   UNL     1       3.168   5.040  18.825  0.00  0.00    +0.000 A 
ATOM      5  C   UNL     1       2.339   5.143  19.933  0.00  0.00    +0.000 A 
ATOM      6  N   UNL     1       1.796   6.298  20.364  0.00  0.00    +0.000 NA
ATOM      7  C   UNL     1       2.070   7.428  19.696  0.00  0.00    +0.000 A 
ATOM      8  C   UNL     1       2.896   7.432  18.574  0.00  0.00    +0.000 A 
ATOM      9  C   UNL     1       3.462   6.220  18.121  0.00  0.00    +0.000 A 
ATOM     10  C   UNL     1       4.313   6.136  16.997  0.00  0.00    +0.000 A 
ENDROOT
BRANCH   1  14
ATOM     11  C   UNL     1       6.894   3.737  12.207  0.00  0.00    +0.000 C 
ATOM     12  N   UNL     1       6.648   4.312  13.506  0.00  0.00    +0.000 N 
ATOM     13  C   UNL     1       5.527   4.163  14.272  0.00  0.00    +0.000 A 
ATOM     14  C   UNL     1       5.767   4.840  15.452  0.00  0.00    +0.000 A 
ATOM     15  C   UNL     1       7.064   5.376  15.275  0.00  0.00    +0.000 A 
ATOM     16  N   UNL     1       7.598   5.061  14.092  0.00  0.00    +0.000 NA
ENDBRANCH   1  14
BRANCH   7  17
ATOM     17  N   UNL     1       1.511   8.645  20.133  0.00  0.00    +0.000 N 
ATOM     18  C   UNL     1       0.917   9.564  19.282  0.00  0.00    +0.000 C 
ATOM     19  O   UNL     1       0.774   9.454  18.067  0.00  0.00    +0.000 OA
ATOM     20  H   UNL     1       1.510   8.817  21.125  0.00  0.00    +0.000 HD
BRANCH  18  21
ATOM     21  C   UNL     1       0.376  10.810  19.900  0.00  0.00    +0.000 A 
ATOM     22  C   UNL     1       0.504  12.076  19.321  0.00  0.00    +0.000 A 
ATOM     23  C   UNL     1      -0.098  13.184  19.930  0.00  0.00    +0.000 A 
ATOM     24  C   UNL     1      -0.840  13.040  21.118  0.00  0.00    +0.000 A 
ATOM     25  C   UNL     1      -1.484  14.103  21.758  0.00  0.00    +0.000 A 
ATOM     26  N   UNL     1      -2.213  13.993  22.894  0.00  0.00    +0.000 NA
ATOM     27  C   UNL     1      -2.314  12.758  23.427  0.00  0.00    +0.000 A 
ATOM     28  C   UNL     1      -1.721  11.632  22.881  0.00  0.00    +0.000 A 
ATOM     29  C   UNL     1      -0.971  11.769  21.706  0.00  0.00    +0.000 A 
ATOM     30  C   UNL     1      -0.361  10.667  21.090  0.00  0.00    +0.000 A 
ENDBRANCH  18  21
ENDBRANCH   7  17
TORSDOF 3
ENDMDL
MODEL 7
REMARK VINA RESULT:      -8.6      2.368     10.905
REMARK  Name = 
REMARK  4 active torsions:
REMARK  status: ('A' for Active; 'I' for Inactive)
REMARK    1  A    between atoms: C_1  and  N_2
REMARK    2  A    between atoms: C_4  and  C_5
REMARK    3  A    between atoms: C_11  and  N_12
REMARK    4  A    between atoms: C_13  and  C_15
REMARK                            x       y       z     vdW  Elec       q    Type
REMARK                         _______ _______ _______ _____ _____    ______ ____
ROOT
ATOM      1  C   UNL     1      -2.303  12.555  20.024  0.00  0.00    +0.000 A 
ATOM      2  C   UNL     1      -1.564  13.739  19.920  0.00  0.00    +0.000 A 
ATOM      3  C   UNL     1      -0.258  13.720  19.435  0.00  0.00    +0.000 A 
ATOM      4  C   UNL     1       0.331  12.510  19.043  0.00  0.00    +0.000 A 
ATOM      5  C   UNL     1       1.631  12.452  18.563  0.00  0.00    +0.000 A 
ATOM      6  N   UNL     1       2.239  11.316  18.167  0.00  0.00    +0.000 NA
ATOM      7  C   UNL     1       1.561  10.162  18.243  0.00  0.00    +0.000 A 
ATOM      8  C   UNL     1       0.251  10.114  18.716  0.00  0.00    +0.000 A 
ATOM      9  C   UNL     1      -0.386  11.304  19.127  0.00  0.00    +0.000 A 
ATOM     10  C   UNL     1      -1.708  11.343  19.624  0.00  0.00    +0.000 A 
ENDROOT
BRANCH   1  14
ATOM     11  C   UNL     1      -7.249  12.716  20.435  0.00  0.00    +0.000 C 
ATOM     12  N   UNL     1      -5.840  12.642  20.733  0.00  0.00    +0.000 N 
ATOM     13  C   UNL     1      -4.813  12.563  19.836  0.00  0.00    +0.000 A 
ATOM     14  C   UNL     1      -3.647  12.575  20.576  0.00  0.00    +0.000 A 
ATOM     15  C   UNL     1      -4.097  12.644  21.915  0.00  0.00    +0.000 A 
ATOM     16  N   UNL     1      -5.429  12.679  22.012  0.00  0.00    +0.000 NA
ENDBRANCH   1  14
BRANCH   7  17
ATOM     17  N   UNL     1       2.181   8.965  17.833  0.00  0.00    +0.000 N 
ATOM     18  C   UNL     1       2.376   7.879  18.672  0.00  0.00    +0.000 C 
ATOM     19  O   UNL     1       2.035   7.789  19.848  0.00  0.00    +0.000 OA
ATOM     20  H   UNL     1       2.446   8.896  16.865  0.00  0.00    +0.000 HD
BRANCH  18  21
ATOM     21  C   UNL     1       3.054   6.685  18.088  0.00  0.00    +0.000 A 
ATOM     22  C   UNL     1       2.505   5.399  18.108  0.00  0.00    +0.000 A 
ATOM     23  C   UNL     1       3.172   4.346  17.472  0.00  0.00    +0.000 A 
ATOM     24  C   UNL     1       4.391   4.565  16.800  0.00  0.00    +0.000 A 
ATOM     25  C   UNL     1       5.091   3.560  16.126  0.00  0.00    +0.000 A 
ATOM     26  N   UNL     1       6.257   3.743  15.463  0.00  0.00    +0.000 NA
ATOM     27  C   UNL     1       6.760   4.995  15.464  0.00  0.00    +0.000 A 
ATOM     28  C   UNL     1       6.155   6.068  16.096  0.00  0.00    +0.000 A 
ATOM     29  C   UNL     1       4.949   5.856  16.776  0.00  0.00    +0.000 A 
ATOM     30  C   UNL     1       4.274   6.902  17.421  0.00  0.00    +0.000 A 
ENDBRANCH  18  21
ENDBRANCH   7  17
TORSDOF 3
ENDMDL
MODEL 8
REMARK VINA RESULT:      -8.5      3.282     10.881
REMARK  Name = 
REMARK  4 active torsions:
REMARK  status: ('A' for Active; 'I' for Inactive)
REMARK    1  A    between atoms: C_1  and  N_2
REMARK    2  A    between atoms: C_4  and  C_5
REMARK    3  A    between atoms: C_11  and  N_12
REMARK    4  A    between atoms: C_13  and  C_15
REMARK                            x       y       z     vdW  Elec       q    Type
REMARK                         _______ _______ _______ _____ _____    ______ ____
ROOT
ATOM      1  C   UNL     1      -3.203  11.825  18.793  0.00  0.00    +0.000 A 
ATOM      2  C   UNL     1      -2.534  12.825  19.509  0.00  0.00    +0.000 A 
ATOM      3  C   UNL     1      -1.164  12.734  19.745  0.00  0.00    +0.000 A 
ATOM      4  C   UNL     1      -0.438  11.637  19.262  0.00  0.00    +0.000 A 
ATOM      5  C   UNL     1       0.926  11.508  19.483  0.00  0.00    +0.000 A 
ATOM      6  N   UNL     1       1.669  10.478  19.035  0.00  0.00    +0.000 NA
ATOM      7  C   UNL     1       1.067   9.505  18.336  0.00  0.00    +0.000 A 
ATOM      8  C   UNL     1      -0.299   9.538  18.064  0.00  0.00    +0.000 A 
ATOM      9  C   UNL     1      -1.077  10.620  18.532  0.00  0.00    +0.000 A 
ATOM     10  C   UNL     1      -2.466  10.729  18.306  0.00  0.00    +0.000 A 
ENDROOT
BRANCH   1  14
ATOM     11  C   UNL     1      -7.917  13.386  18.872  0.00  0.00    +0.000 C 
ATOM     12  N   UNL     1      -6.720  12.616  18.635  0.00  0.00    +0.000 N 
ATOM     13  C   UNL     1      -5.439  12.971  18.949  0.00  0.00    +0.000 A 
ATOM     14  C   UNL     1      -4.640  11.903  18.592  0.00  0.00    +0.000 A 
ATOM     15  C   UNL     1      -5.551  10.964  18.053  0.00  0.00    +0.000 A 
ATOM     16  N   UNL     1      -6.814  11.399  18.073  0.00  0.00    +0.000 NA
ENDBRANCH   1  14
BRANCH   7  17
ATOM     17  N   UNL     1       1.829   8.420  17.859  0.00  0.00    +0.000 N 
ATOM     18  C   UNL     1       2.355   7.435  18.681  0.00  0.00    +0.000 C 
ATOM     19  O   UNL     1       2.225   7.348  19.899  0.00  0.00    +0.000 OA
ATOM     20  H   UNL     1       1.947   8.348  16.863  0.00  0.00    +0.000 HD
BRANCH  18  21
ATOM     21  C   UNL     1       3.144   6.354  18.022  0.00  0.00    +0.000 A 
ATOM     22  C   UNL     1       2.687   5.039  17.884  0.00  0.00    +0.000 A 
ATOM     23  C   UNL     1       3.459   4.103  17.187  0.00  0.00    +0.000 A 
ATOM     24  C   UNL     1       4.692   4.468  16.612  0.00  0.00    +0.000 A 
ATOM     25  C   UNL     1       5.495   3.585  15.884  0.00  0.00    +0.000 A 
ATOM     26  N   UNL     1       6.678   3.911  15.311  0.00  0.00    +0.000 NA
ATOM     27  C   UNL     1       7.090   5.186  15.465  0.00  0.00    +0.000 A 
ATOM     28  C   UNL     1       6.379   6.148  16.163  0.00  0.00    +0.000 A 
ATOM     29  C   UNL     1       5.158   5.789  16.748  0.00  0.00    +0.000 A 
ATOM     30  C   UNL     1       4.379   6.717  17.452  0.00  0.00    +0.000 A 
ENDBRANCH  18  21
ENDBRANCH   7  17
TORSDOF 3
ENDMDL
MODEL 9
REMARK VINA RESULT:      -8.3      3.057      4.255
REMARK  Name = 
REMARK  4 active torsions:
REMARK  status: ('A' for Active; 'I' for Inactive)
REMARK    1  A    between atoms: C_1  and  N_2
REMARK    2  A    between atoms: C_4  and  C_5
REMARK    3  A    between atoms: C_11  and  N_12
REMARK    4  A    between atoms: C_13  and  C_15
REMARK                            x       y       z     vdW  Elec       q    Type
REMARK                         _______ _______ _______ _____ _____    ______ ____
ROOT
ATOM      1  C   UNL     1       2.466   6.475  19.584  0.00  0.00    +0.000 A 
ATOM      2  C   UNL     1       2.981   6.925  18.362  0.00  0.00    +0.000 A 
ATOM      3  C   UNL     1       2.670   8.198  17.888  0.00  0.00    +0.000 A 
ATOM      4  C   UNL     1       1.838   9.044  18.633  0.00  0.00    +0.000 A 
ATOM      5  C   UNL     1       1.501  10.315  18.189  0.00  0.00    +0.000 A 
ATOM      6  N   UNL     1       0.712  11.168  18.871  0.00  0.00    +0.000 NA
ATOM      7  C   UNL     1       0.208  10.776  20.050  0.00  0.00    +0.000 A 
ATOM      8  C   UNL     1       0.482   9.518  20.581  0.00  0.00    +0.000 A 
ATOM      9  C   UNL     1       1.312   8.626  19.868  0.00  0.00    +0.000 A 
ATOM     10  C   UNL     1       1.635   7.331  20.330  0.00  0.00    +0.000 A 
ENDROOT
BRANCH   1  14
ATOM     11  C   UNL     1       4.415   1.926  20.002  0.00  0.00    +0.000 C 
ATOM     12  N   UNL     1       3.636   3.121  20.219  0.00  0.00    +0.000 N 
ATOM     13  C   UNL     1       3.736   4.301  19.540  0.00  0.00    +0.000 A 
ATOM     14  C   UNL     1       2.755   5.129  20.049  0.00  0.00    +0.000 A 
ATOM     15  C   UNL     1       2.135   4.343  21.049  0.00  0.00    +0.000 A 
ATOM     16  N   UNL     1       2.673   3.124  21.157  0.00  0.00    +0.000 NA
ENDBRANCH   1  14
BRANCH   7  17
ATOM     17  N   UNL     1      -0.620  11.655  20.777  0.00  0.00    +0.000 N 
ATOM     18  C   UNL     1      -0.708  11.656  22.160  0.00  0.00    +0.000 C 
ATOM     19  O   UNL     1      -0.087  10.934  22.936  0.00  0.00    +0.000 OA
ATOM     20  H   UNL     1      -1.131  12.343  20.249  0.00  0.00    +0.000 HD
BRANCH  18  21
ATOM     21  C   UNL     1      -1.635  12.647  22.780  0.00  0.00    +0.000 A 
ATOM     22  C   UNL     1      -1.201  13.789  23.460  0.00  0.00    +0.000 A 
ATOM     23  C   UNL     1      -2.138  14.707  23.949  0.00  0.00    +0.000 A 
ATOM     24  C   UNL     1      -3.519  14.501  23.756  0.00  0.00    +0.000 A 
ATOM     25  C   UNL     1      -4.500  15.394  24.198  0.00  0.00    +0.000 A 
ATOM     26  N   UNL     1      -5.832  15.228  24.017  0.00  0.00    +0.000 NA
ATOM     27  C   UNL     1      -6.216  14.116  23.358  0.00  0.00    +0.000 A 
ATOM     28  C   UNL     1      -5.335  13.163  22.874  0.00  0.00    +0.000 A 
ATOM     29  C   UNL     1      -3.961  13.354  23.073  0.00  0.00    +0.000 A 
ATOM     30  C   UNL     1      -3.014  12.439  22.592  0.00  0.00    +0.000 A 
ENDBRANCH  18  21
ENDBRANCH   7  17
TORSDOF 3
ENDMDL
