MODEL 1
REMARK VINA RESULT:      -7.7      0.000      0.000
REMARK  Name = 
REMARK  7 active torsions:
REMARK  status: ('A' for Active; 'I' for Inactive)
REMARK    1  A    between atoms: N_1  and  S_2
REMARK    2  A    between atoms: S_2  and  C_5
REMARK    3  A    between atoms: C_8  and  O_9
REMARK    4  A    between atoms: O_9  and  C_10
REMARK    5  A    between atoms: C_10  and  C_11
REMARK    6  A    between atoms: N_13  and  C_14
REMARK    7  A    between atoms: C_17  and  C_18
REMARK                            x       y       z     vdW  Elec       q    Type
REMARK                         _______ _______ _______ _____ _____    ______ ____
ROOT
ATOM      1  C   UNL     1       7.256   6.811  17.436  0.00  0.00    +0.000 A 
ATOM      2  C   UNL     1       7.392   8.173  17.279  0.00  0.00    +0.000 A 
ATOM      3  N   UNL     1       8.231   8.570  18.293  0.00  0.00    +0.000 N 
ATOM      4  N   UNL     1       8.547   7.494  19.056  0.00  0.00    +0.000 NA
ATOM      5  N   UNL     1       7.962   6.421  18.538  0.00  0.00    +0.000 NA
ENDROOT
BRANCH   3   6
ATOM      6  C   UNL     1       8.760   9.863  18.545  0.00  0.00    +0.000 A 
ATOM      7  C   UNL     1       8.566  10.904  17.628  0.00  0.00    +0.000 A 
ATOM      8  C   UNL     1       9.085  12.176  17.887  0.00  0.00    +0.000 A 
ATOM      9  C   UNL     1       9.808  12.430  19.061  0.00  0.00    +0.000 A 
ATOM     10  C   UNL     1      10.012  11.380  19.969  0.00  0.00    +0.000 A 
ATOM     11  C   UNL     1       9.491  10.105  19.717  0.00  0.00    +0.000 A 
BRANCH   9  12
ATOM     12  C   UNL     1      10.350  13.809  19.355  0.00  0.00    +0.000 C 
ATOM     13  F   UNL     1       9.381  14.723  19.638  0.00  0.00    +0.000 F 
ATOM     14  F   UNL     1      11.193  13.818  20.424  0.00  0.00    +0.000 F 
ATOM     15  F   UNL     1      11.058  14.326  18.314  0.00  0.00    +0.000 F 
ENDBRANCH   9  12
ENDBRANCH   3   6
BRANCH   1  16
ATOM     16  C   UNL     1       6.584   5.833  16.540  0.00  0.00    +0.000 C 
BRANCH  16  17
ATOM     17  O   UNL     1       5.196   6.132  16.342  0.00  0.00    +0.000 OA
BRANCH  17  21
ATOM     18  C   UNL     1       2.492   3.801  18.492  0.00  0.00    +0.000 A 
ATOM     19  C   UNL     1       2.570   5.181  18.695  0.00  0.00    +0.000 A 
ATOM     20  C   UNL     1       3.487   5.934  17.950  0.00  0.00    +0.000 A 
ATOM     21  C   UNL     1       4.336   5.310  17.029  0.00  0.00    +0.000 A 
ATOM     22  C   UNL     1       4.237   3.930  16.829  0.00  0.00    +0.000 A 
ATOM     23  C   UNL     1       3.323   3.174  17.561  0.00  0.00    +0.000 A 
BRANCH  18  24
ATOM     24  S   UNL     1       1.314   2.827  19.383  0.00  0.00    +0.000 S 
ATOM     25  O   UNL     1       2.026   1.955  20.291  0.00  0.00    +0.000 OA
ATOM     26  O   UNL     1       0.312   2.344  18.464  0.00  0.00    +0.000 OA
BRANCH  24  27
ATOM     27  N   UNL     1       0.530   3.972  20.322  0.00  0.00    +0.000 NA
ATOM     28  H   UNL     1       0.490   3.639  21.287  0.00  0.00    +0.000 HD
ATOM     29  H   UNL     1      -0.386   4.182  19.927  0.00  0.00    +0.000 HD
ENDBRANCH  24  27
ENDBRANCH  18  24
ENDBRANCH  17  21
ENDBRANCH  16  17
ENDBRANCH   1  16
TORSDOF 7
ENDMDL
MODEL 2
REMARK VINA RESULT:      -7.7      6.685     10.457
REMARK  Name = 
REMARK  7 active torsions:
REMARK  status: ('A' for Active; 'I' for Inactive)
REMARK    1  A    between atoms: N_1  and  S_2
REMARK    2  A    between atoms: S_2  and  C_5
REMARK    3  A    between atoms: C_8  and  O_9
REMARK    4  A    between atoms: O_9  and  C_10
REMARK    5  A    between atoms: C_10  and  C_11
REMARK    6  A    between atoms: N_13  and  C_14
REMARK    7  A    between atoms: C_17  and  C_18
REMARK                            x       y       z     vdW  Elec       q    Type
REMARK                         _______ _______ _______ _____ _____    ______ ____
ROOT
ATOM      1  C   UNL     1       7.236   7.394  17.332  0.00  0.00    +0.000 A 
ATOM      2  C   UNL     1       5.996   7.205  17.903  0.00  0.00    +0.000 A 
ATOM      3  N   UNL     1       5.705   5.876  17.699  0.00  0.00    +0.000 N 
ATOM      4  N   UNL     1       6.711   5.304  16.991  0.00  0.00    +0.000 NA
ATOM      5  N   UNL     1       7.646   6.219  16.769  0.00  0.00    +0.000 NA
ENDROOT
BRANCH   3   6
ATOM      6  C   UNL     1       4.582   5.139  18.156  0.00  0.00    +0.000 A 
ATOM      7  C   UNL     1       4.753   3.991  18.941  0.00  0.00    +0.000 A 
ATOM      8  C   UNL     1       3.641   3.275  19.392  0.00  0.00    +0.000 A 
ATOM      9  C   UNL     1       2.341   3.687  19.065  0.00  0.00    +0.000 A 
ATOM     10  C   UNL     1       2.176   4.828  18.266  0.00  0.00    +0.000 A 
ATOM     11  C   UNL     1       3.286   5.552  17.815  0.00  0.00    +0.000 A 
BRANCH   9  12
ATOM     12  C   UNL     1       1.137   2.928  19.570  0.00  0.00    +0.000 C 
ATOM     13  F   UNL     1       0.258   3.705  20.263  0.00  0.00    +0.000 F 
ATOM     14  F   UNL     1       0.417   2.364  18.560  0.00  0.00    +0.000 F 
ATOM     15  F   UNL     1       1.473   1.909  20.407  0.00  0.00    +0.000 F 
ENDBRANCH   9  12
ENDBRANCH   3   6
BRANCH   1  16
ATOM     16  C   UNL     1       8.109   8.596  17.381  0.00  0.00    +0.000 C 
BRANCH  16  17
ATOM     17  O   UNL     1       8.668   8.817  18.683  0.00  0.00    +0.000 OA
BRANCH  17  21
ATOM     18  C   UNL     1       9.539  12.844  19.312  0.00  0.00    +0.000 A 
ATOM     19  C   UNL     1       9.100  12.390  18.066  0.00  0.00    +0.000 A 
ATOM     20  C   UNL     1       8.811  11.030  17.893  0.00  0.00    +0.000 A 
ATOM     21  C   UNL     1       8.984  10.127  18.947  0.00  0.00    +0.000 A 
ATOM     22  C   UNL     1       9.412  10.599  20.192  0.00  0.00    +0.000 A 
ATOM     23  C   UNL     1       9.695  11.951  20.375  0.00  0.00    +0.000 A 
BRANCH  18  24
ATOM     24  S   UNL     1       9.870  14.561  19.579  0.00  0.00    +0.000 S 
ATOM     25  O   UNL     1       8.650  15.207  20.008  0.00  0.00    +0.000 OA
ATOM     26  O   UNL     1      10.675  15.059  18.490  0.00  0.00    +0.000 OA
BRANCH  24  27
ATOM     27  N   UNL     1      10.897  14.532  20.903  0.00  0.00    +0.000 NA
ATOM     28  H   UNL     1      10.444  14.022  21.663  0.00  0.00    +0.000 HD
ATOM     29  H   UNL     1      11.168  15.481  21.157  0.00  0.00    +0.000 HD
ENDBRANCH  24  27
ENDBRANCH  18  24
ENDBRANCH  17  21
ENDBRANCH  16  17
ENDBRANCH   1  16
TORSDOF 7
ENDMDL
MODEL 3
REMARK VINA RESULT:      -7.7      1.281      1.943
REMARK  Name = 
REMARK  7 active torsions:
REMARK  status: ('A' for Active; 'I' for Inactive)
REMARK    1  A    between atoms: N_1  and  S_2
REMARK    2  A    between atoms: S_2  and  C_5
REMARK    3  A    between atoms: C_8  and  O_9
REMARK    4  A    between atoms: O_9  and  C_10
REMARK    5  A    between atoms: C_10  and  C_11
REMARK    6  A    between atoms: N_13  and  C_14
REMARK    7  A    between atoms: C_17  and  C_18
REMARK                            x       y       z     vdW  Elec       q    Type
REMARK                         _______ _______ _______ _____ _____    ______ ____
ROOT
ATOM      1  C   UNL     1       7.752   6.813  18.076  0.00  0.00    +0.000 A 
ATOM      2  C   UNL     1       8.528   7.684  18.809  0.00  0.00    +0.000 A 
ATOM      3  N   UNL     1       8.350   8.912  18.215  0.00  0.00    +0.000 N 
ATOM      4  N   UNL     1       7.536   8.772  17.139  0.00  0.00    +0.000 NA
ATOM      5  N   UNL     1       7.165   7.500  17.052  0.00  0.00    +0.000 NA
ENDROOT
BRANCH   3   6
ATOM      6  C   UNL     1       8.863  10.171  18.622  0.00  0.00    +0.000 A 
ATOM      7  C   UNL     1       9.564  10.300  19.829  0.00  0.00    +0.000 A 
ATOM      8  C   UNL     1      10.071  11.543  20.218  0.00  0.00    +0.000 A 
ATOM      9  C   UNL     1       9.885  12.678  19.416  0.00  0.00    +0.000 A 
ATOM     10  C   UNL     1       9.169  12.545  18.216  0.00  0.00    +0.000 A 
ATOM     11  C   UNL     1       8.663  11.303  17.818  0.00  0.00    +0.000 A 
BRANCH   9  12
ATOM     12  C   UNL     1      10.451  14.017  19.823  0.00  0.00    +0.000 C 
ATOM     13  F   UNL     1      10.389  14.954  18.836  0.00  0.00    +0.000 F 
ATOM     14  F   UNL     1       9.796  14.556  20.888  0.00  0.00    +0.000 F 
ATOM     15  F   UNL     1      11.761  13.944  20.185  0.00  0.00    +0.000 F 
ENDBRANCH   9  12
ENDBRANCH   3   6
BRANCH   1  16
ATOM     16  C   UNL     1       7.443   5.385  18.351  0.00  0.00    +0.000 C 
BRANCH  16  17
ATOM     17  O   UNL     1       6.508   4.835  17.413  0.00  0.00    +0.000 OA
BRANCH  17  21
ATOM     18  C   UNL     1       2.773   3.741  18.903  0.00  0.00    +0.000 A 
ATOM     19  C   UNL     1       3.183   3.341  17.629  0.00  0.00    +0.000 A 
ATOM     20  C   UNL     1       4.448   3.723  17.164  0.00  0.00    +0.000 A 
ATOM     21  C   UNL     1       5.285   4.519  17.953  0.00  0.00    +0.000 A 
ATOM     22  C   UNL     1       4.866   4.900  19.231  0.00  0.00    +0.000 A 
ATOM     23  C   UNL     1       3.611   4.520  19.704  0.00  0.00    +0.000 A 
BRANCH  18  24
ATOM     24  S   UNL     1       1.200   3.240  19.541  0.00  0.00    +0.000 S 
ATOM     25  O   UNL     1       0.522   2.455  18.536  0.00  0.00    +0.000 OA
ATOM     26  O   UNL     1       0.581   4.364  20.202  0.00  0.00    +0.000 OA
BRANCH  24  27
ATOM     27  N   UNL     1       1.627   2.189  20.774  0.00  0.00    +0.000 NA
ATOM     28  H   UNL     1       1.776   2.726  21.631  0.00  0.00    +0.000 HD
ATOM     29  H   UNL     1       2.437   1.635  20.498  0.00  0.00    +0.000 HD
ENDBRANCH  24  27
ENDBRANCH  18  24
ENDBRANCH  17  21
ENDBRANCH  16  17
ENDBRANCH   1  16
TORSDOF 7
ENDMDL
MODEL 4
REMARK VINA RESULT:      -7.6      0.538      1.456
REMARK  Name = 
REMARK  7 active torsions:
REMARK  status: ('A' for Active; 'I' for Inactive)
REMARK    1  A    between atoms: N_1  and  S_2
REMARK    2  A    between atoms: S_2  and  C_5
REMARK    3  A    between atoms: C_8  and  O_9
REMARK    4  A    between atoms: O_9  and  C_10
REMARK    5  A    between atoms: C_10  and  C_11
REMARK    6  A    between atoms: N_13  and  C_14
REMARK    7  A    between atoms: C_17  and  C_18
REMARK                            x       y       z     vdW  Elec       q    Type
REMARK                         _______ _______ _______ _____ _____    ______ ____
ROOT
ATOM      1  C   UNL     1       7.276   6.963  17.433  0.00  0.00    +0.000 A 
ATOM      2  C   UNL     1       7.460   8.324  17.312  0.00  0.00    +0.000 A 
ATOM      3  N   UNL     1       8.300   8.666  18.346  0.00  0.00    +0.000 N 
ATOM      4  N   UNL     1       8.569   7.561  19.085  0.00  0.00    +0.000 NA
ATOM      5  N   UNL     1       7.955   6.522  18.533  0.00  0.00    +0.000 NA
ENDROOT
BRANCH   3   6
ATOM      6  C   UNL     1       8.869   9.933  18.638  0.00  0.00    +0.000 A 
ATOM      7  C   UNL     1       9.594  10.135  19.820  0.00  0.00    +0.000 A 
ATOM      8  C   UNL     1      10.157  11.384  20.096  0.00  0.00    +0.000 A 
ATOM      9  C   UNL     1      10.003  12.453  19.202  0.00  0.00    +0.000 A 
ATOM     10  C   UNL     1       9.263  12.250  18.028  0.00  0.00    +0.000 A 
ATOM     11  C   UNL     1       8.701  11.000  17.744  0.00  0.00    +0.000 A 
BRANCH   9  12
ATOM     12  C   UNL     1      10.629  13.798  19.487  0.00  0.00    +0.000 C 
ATOM     13  F   UNL     1      10.626  14.128  20.809  0.00  0.00    +0.000 F 
ATOM     14  F   UNL     1      11.932  13.858  19.093  0.00  0.00    +0.000 F 
ATOM     15  F   UNL     1       9.995  14.817  18.847  0.00  0.00    +0.000 F 
ENDBRANCH   9  12
ENDBRANCH   3   6
BRANCH   1  16
ATOM     16  C   UNL     1       6.583   6.032  16.504  0.00  0.00    +0.000 C 
BRANCH  16  17
ATOM     17  O   UNL     1       5.190   6.340  16.354  0.00  0.00    +0.000 OA
BRANCH  17  21
ATOM     18  C   UNL     1       2.796   3.934  18.772  0.00  0.00    +0.000 A 
ATOM     19  C   UNL     1       3.883   3.398  18.077  0.00  0.00    +0.000 A 
ATOM     20  C   UNL     1       4.669   4.239  17.278  0.00  0.00    +0.000 A 
ATOM     21  C   UNL     1       4.357   5.597  17.154  0.00  0.00    +0.000 A 
ATOM     22  C   UNL     1       3.275   6.121  17.866  0.00  0.00    +0.000 A 
ATOM     23  C   UNL     1       2.491   5.293  18.669  0.00  0.00    +0.000 A 
BRANCH  18  24
ATOM     24  S   UNL     1       1.809   2.911  19.826  0.00  0.00    +0.000 S 
ATOM     25  O   UNL     1       2.601   2.525  20.971  0.00  0.00    +0.000 OA
ATOM     26  O   UNL     1       1.092   1.957  19.015  0.00  0.00    +0.000 OA
BRANCH  24  27
ATOM     27  N   UNL     1       0.642   3.979  20.379  0.00  0.00    +0.000 NA
ATOM     28  H   UNL     1      -0.157   3.447  20.726  0.00  0.00    +0.000 HD
ATOM     29  H   UNL     1       0.398   4.643  19.644  0.00  0.00    +0.000 HD
ENDBRANCH  24  27
ENDBRANCH  18  24
ENDBRANCH  17  21
ENDBRANCH  16  17
ENDBRANCH   1  16
TORSDOF 7
ENDMDL
MODEL 5
REMARK VINA RESULT:      -7.6      7.482      9.267
REMARK  Name = 
REMARK  7 active torsions:
REMARK  status: ('A' for Active; 'I' for Inactive)
REMARK    1  A    between atoms: N_1  and  S_2
REMARK    2  A    between atoms: S_2  and  C_5
REMARK    3  A    between atoms: C_8  and  O_9
REMARK    4  A    between atoms: O_9  and  C_10
REMARK    5  A    between atoms: C_10  and  C_11
REMARK    6  A    between atoms: N_13  and  C_14
REMARK    7  A    between atoms: C_17  and  C_18
REMARK                            x       y       z     vdW  Elec       q    Type
REMARK                         _______ _______ _______ _____ _____    ______ ____
ROOT
ATOM      1  C   UNL     1       1.359   8.751  19.640  0.00  0.00    +0.000 A 
ATOM      2  C   UNL     1       2.073   8.496  18.489  0.00  0.00    +0.000 A 
ATOM      3  N   UNL     1       2.689   7.287  18.708  0.00  0.00    +0.000 N 
ATOM      4  N   UNL     1       2.394   6.857  19.961  0.00  0.00    +0.000 NA
ATOM      5  N   UNL     1       1.582   7.740  20.531  0.00  0.00    +0.000 NA
ENDROOT
BRANCH   3   6
ATOM      6  C   UNL     1       3.484   6.526  17.811  0.00  0.00    +0.000 A 
ATOM      7  C   UNL     1       3.383   5.129  17.778  0.00  0.00    +0.000 A 
ATOM      8  C   UNL     1       4.165   4.388  16.887  0.00  0.00    +0.000 A 
ATOM      9  C   UNL     1       5.062   5.026  16.018  0.00  0.00    +0.000 A 
ATOM     10  C   UNL     1       5.169   6.424  16.067  0.00  0.00    +0.000 A 
ATOM     11  C   UNL     1       4.386   7.172  16.954  0.00  0.00    +0.000 A 
BRANCH   9  12
ATOM     12  C   UNL     1       5.891   4.230  15.039  0.00  0.00    +0.000 C 
ATOM     13  F   UNL     1       5.300   4.086  13.820  0.00  0.00    +0.000 F 
ATOM     14  F   UNL     1       7.103   4.804  14.798  0.00  0.00    +0.000 F 
ATOM     15  F   UNL     1       6.153   2.969  15.478  0.00  0.00    +0.000 F 
ENDBRANCH   9  12
ENDBRANCH   3   6
BRANCH   1  16
ATOM     16  C   UNL     1       0.388   9.844  19.910  0.00  0.00    +0.000 C 
BRANCH  16  17
ATOM     17  O   UNL     1       0.008  10.549  18.721  0.00  0.00    +0.000 OA
BRANCH  17  21
ATOM     18  C   UNL     1      -4.066  11.382  18.451  0.00  0.00    +0.000 A 
ATOM     19  C   UNL     1      -3.236  12.121  19.298  0.00  0.00    +0.000 A 
ATOM     20  C   UNL     1      -1.871  11.816  19.359  0.00  0.00    +0.000 A 
ATOM     21  C   UNL     1      -1.343  10.766  18.600  0.00  0.00    +0.000 A 
ATOM     22  C   UNL     1      -2.183  10.044  17.747  0.00  0.00    +0.000 A 
ATOM     23  C   UNL     1      -3.543  10.345  17.676  0.00  0.00    +0.000 A 
BRANCH  18  24
ATOM     24  S   UNL     1      -5.788  11.769  18.316  0.00  0.00    +0.000 S 
ATOM     25  O   UNL     1      -6.043  13.001  19.027  0.00  0.00    +0.000 OA
ATOM     26  O   UNL     1      -6.557  10.568  18.536  0.00  0.00    +0.000 OA
BRANCH  24  27
ATOM     27  N   UNL     1      -5.957  12.104  16.683  0.00  0.00    +0.000 NA
ATOM     28  H   UNL     1      -5.683  13.072  16.513  0.00  0.00    +0.000 HD
ATOM     29  H   UNL     1      -6.907  11.893  16.379  0.00  0.00    +0.000 HD
ENDBRANCH  24  27
ENDBRANCH  18  24
ENDBRANCH  17  21
ENDBRANCH  16  17
ENDBRANCH   1  16
TORSDOF 7
ENDMDL
MODEL 6
REMARK VINA RESULT:      -7.6      6.805     10.618
REMARK  Name = 
REMARK  7 active torsions:
REMARK  status: ('A' for Active; 'I' for Inactive)
REMARK    1  A    between atoms: N_1  and  S_2
REMARK    2  A    between atoms: S_2  and  C_5
REMARK    3  A    between atoms: C_8  and  O_9
REMARK    4  A    between atoms: O_9  and  C_10
REMARK    5  A    between atoms: C_10  and  C_11
REMARK    6  A    between atoms: N_13  and  C_14
REMARK    7  A    between atoms: C_17  and  C_18
REMARK                            x       y       z     vdW  Elec       q    Type
REMARK                         _______ _______ _______ _____ _____    ______ ____
ROOT
ATOM      1  C   UNL     1       7.241   7.382  17.511  0.00  0.00    +0.000 A 
ATOM      2  C   UNL     1       5.923   7.144  17.833  0.00  0.00    +0.000 A 
ATOM      3  N   UNL     1       5.799   5.774  17.856  0.00  0.00    +0.000 N 
ATOM      4  N   UNL     1       6.987   5.215  17.514  0.00  0.00    +0.000 NA
ATOM      5  N   UNL     1       7.869   6.186  17.308  0.00  0.00    +0.000 NA
ENDROOT
BRANCH   3   6
ATOM      6  C   UNL     1       4.666   4.996  18.208  0.00  0.00    +0.000 A 
ATOM      7  C   UNL     1       4.279   3.903  17.422  0.00  0.00    +0.000 A 
ATOM      8  C   UNL     1       3.165   3.138  17.780  0.00  0.00    +0.000 A 
ATOM      9  C   UNL     1       2.416   3.451  18.923  0.00  0.00    +0.000 A 
ATOM     10  C   UNL     1       2.800   4.557  19.698  0.00  0.00    +0.000 A 
ATOM     11  C   UNL     1       3.917   5.324  19.347  0.00  0.00    +0.000 A 
BRANCH   9  12
ATOM     12  C   UNL     1       1.226   2.614  19.325  0.00  0.00    +0.000 C 
ATOM     13  F   UNL     1       0.663   3.002  20.503  0.00  0.00    +0.000 F 
ATOM     14  F   UNL     1       0.225   2.657  18.403  0.00  0.00    +0.000 F 
ATOM     15  F   UNL     1       1.540   1.298  19.478  0.00  0.00    +0.000 F 
ENDBRANCH   9  12
ENDBRANCH   3   6
BRANCH   1  16
ATOM     16  C   UNL     1       7.975   8.674  17.490  0.00  0.00    +0.000 C 
BRANCH  16  17
ATOM     17  O   UNL     1       8.683   8.925  18.712  0.00  0.00    +0.000 OA
BRANCH  17  21
ATOM     18  C   UNL     1      10.097  12.840  18.903  0.00  0.00    +0.000 A 
ATOM     19  C   UNL     1       9.221  12.441  17.891  0.00  0.00    +0.000 A 
ATOM     20  C   UNL     1       8.762  11.118  17.861  0.00  0.00    +0.000 A 
ATOM     21  C   UNL     1       9.194  10.195  18.820  0.00  0.00    +0.000 A 
ATOM     22  C   UNL     1      10.060  10.612  19.834  0.00  0.00    +0.000 A 
ATOM     23  C   UNL     1      10.517  11.929  19.875  0.00  0.00    +0.000 A 
BRANCH  18  24
ATOM     24  S   UNL     1      10.662  14.514  18.997  0.00  0.00    +0.000 S 
ATOM     25  O   UNL     1      10.848  15.016  17.655  0.00  0.00    +0.000 OA
ATOM     26  O   UNL     1      11.681  14.610  20.014  0.00  0.00    +0.000 OA
BRANCH  24  27
ATOM     27  N   UNL     1       9.333  15.311  19.635  0.00  0.00    +0.000 NA
ATOM     28  H   UNL     1       9.120  16.121  19.051  0.00  0.00    +0.000 HD
ATOM     29  H   UNL     1       9.502  15.549  20.612  0.00  0.00    +0.000 HD
ENDBRANCH  24  27
ENDBRANCH  18  24
ENDBRANCH  17  21
ENDBRANCH  16  17
ENDBRANCH   1  16
TORSDOF 7
ENDMDL
MODEL 7
REMARK VINA RESULT:      -7.6      6.770     10.571
REMARK  Name = 
REMARK  7 active torsions:
REMARK  status: ('A' for Active; 'I' for Inactive)
REMARK    1  A    between atoms: N_1  and  S_2
REMARK    2  A    between atoms: S_2  and  C_5
REMARK    3  A    between atoms: C_8  and  O_9
REMARK    4  A    between atoms: O_9  and  C_10
REMARK    5  A    between atoms: C_10  and  C_11
REMARK    6  A    between atoms: N_13  and  C_14
REMARK    7  A    between atoms: C_17  and  C_18
REMARK                            x       y       z     vdW  Elec       q    Type
REMARK                         _______ _______ _______ _____ _____    ______ ____
ROOT
ATOM      1  C   UNL     1       7.257   7.341  17.539  0.00  0.00    +0.000 A 
ATOM      2  C   UNL     1       5.928   7.112  17.823  0.00  0.00    +0.000 A 
ATOM      3  N   UNL     1       5.798   5.744  17.859  0.00  0.00    +0.000 N 
ATOM      4  N   UNL     1       6.994   5.175  17.561  0.00  0.00    +0.000 NA
ATOM      5  N   UNL     1       7.885   6.140  17.371  0.00  0.00    +0.000 NA
ENDROOT
BRANCH   3   6
ATOM      6  C   UNL     1       4.651   4.975  18.186  0.00  0.00    +0.000 A 
ATOM      7  C   UNL     1       3.993   4.223  17.204  0.00  0.00    +0.000 A 
ATOM      8  C   UNL     1       2.867   3.463  17.536  0.00  0.00    +0.000 A 
ATOM      9  C   UNL     1       2.377   3.443  18.850  0.00  0.00    +0.000 A 
ATOM     10  C   UNL     1       3.032   4.210  19.826  0.00  0.00    +0.000 A 
ATOM     11  C   UNL     1       4.161   4.969  19.500  0.00  0.00    +0.000 A 
BRANCH   9  12
ATOM     12  C   UNL     1       1.176   2.606  19.216  0.00  0.00    +0.000 C 
ATOM     13  F   UNL     1       0.163   2.684  18.308  0.00  0.00    +0.000 F 
ATOM     14  F   UNL     1       1.477   1.282  19.322  0.00  0.00    +0.000 F 
ATOM     15  F   UNL     1       0.632   2.964  20.411  0.00  0.00    +0.000 F 
ENDBRANCH   9  12
ENDBRANCH   3   6
BRANCH   1  16
ATOM     16  C   UNL     1       7.997   8.630  17.525  0.00  0.00    +0.000 C 
BRANCH  16  17
ATOM     17  O   UNL     1       8.648   8.905  18.772  0.00  0.00    +0.000 OA
BRANCH  17  21
ATOM     18  C   UNL     1       9.766  12.908  19.072  0.00  0.00    +0.000 A 
ATOM     19  C   UNL     1       9.133  12.423  17.925  0.00  0.00    +0.000 A 
ATOM     20  C   UNL     1       8.766  11.073  17.862  0.00  0.00    +0.000 A 
ATOM     21  C   UNL     1       9.053  10.208  18.924  0.00  0.00    +0.000 A 
ATOM     22  C   UNL     1       9.675  10.711  20.070  0.00  0.00    +0.000 A 
ATOM     23  C   UNL     1      10.038  12.056  20.144  0.00  0.00    +0.000 A 
BRANCH  18  24
ATOM     24  S   UNL     1      10.203  14.618  19.204  0.00  0.00    +0.000 S 
ATOM     25  O   UNL     1       8.993  15.394  19.357  0.00  0.00    +0.000 OA
ATOM     26  O   UNL     1      11.206  14.924  18.213  0.00  0.00    +0.000 OA
BRANCH  24  27
ATOM     27  N   UNL     1      11.007  14.674  20.673  0.00  0.00    +0.000 NA
ATOM     28  H   UNL     1      10.449  14.187  21.376  0.00  0.00    +0.000 HD
ATOM     29  H   UNL     1      11.217  15.641  20.921  0.00  0.00    +0.000 HD
ENDBRANCH  24  27
ENDBRANCH  18  24
ENDBRANCH  17  21
ENDBRANCH  16  17
ENDBRANCH   1  16
TORSDOF 7
ENDMDL
MODEL 8
REMARK VINA RESULT:      -7.5      6.809     10.563
REMARK  Name = 
REMARK  7 active torsions:
REMARK  status: ('A' for Active; 'I' for Inactive)
REMARK    1  A    between atoms: N_1  and  S_2
REMARK    2  A    between atoms: S_2  and  C_5
REMARK    3  A    between atoms: C_8  and  O_9
REMARK    4  A    between atoms: O_9  and  C_10
REMARK    5  A    between atoms: C_10  and  C_11
REMARK    6  A    between atoms: N_13  and  C_14
REMARK    7  A    between atoms: C_17  and  C_18
REMARK                            x       y       z     vdW  Elec       q    Type
REMARK                         _______ _______ _______ _____ _____    ______ ____
ROOT
ATOM      1  C   UNL     1       7.377   7.237  18.037  0.00  0.00    +0.000 A 
ATOM      2  C   UNL     1       6.044   6.918  17.894  0.00  0.00    +0.000 A 
ATOM      3  N   UNL     1       5.909   5.674  18.464  0.00  0.00    +0.000 N 
ATOM      4  N   UNL     1       7.123   5.245  18.889  0.00  0.00    +0.000 NA
ATOM      5  N   UNL     1       8.019   6.191  18.637  0.00  0.00    +0.000 NA
ENDROOT
BRANCH   3   6
ATOM      6  C   UNL     1       4.725   4.915  18.655  0.00  0.00    +0.000 A 
ATOM      7  C   UNL     1       4.781   3.635  19.222  0.00  0.00    +0.000 A 
ATOM      8  C   UNL     1       3.609   2.897  19.412  0.00  0.00    +0.000 A 
ATOM      9  C   UNL     1       2.363   3.420  19.036  0.00  0.00    +0.000 A 
ATOM     10  C   UNL     1       2.315   4.696  18.454  0.00  0.00    +0.000 A 
ATOM     11  C   UNL     1       3.484   5.441  18.265  0.00  0.00    +0.000 A 
BRANCH   9  12
ATOM     12  C   UNL     1       1.094   2.634  19.260  0.00  0.00    +0.000 C 
ATOM     13  F   UNL     1       0.294   2.570  18.158  0.00  0.00    +0.000 F 
ATOM     14  F   UNL     1       1.338   1.342  19.617  0.00  0.00    +0.000 F 
ATOM     15  F   UNL     1       0.322   3.158  20.250  0.00  0.00    +0.000 F 
ENDBRANCH   9  12
ENDBRANCH   3   6
BRANCH   1  16
ATOM     16  C   UNL     1       8.065   8.520  17.737  0.00  0.00    +0.000 C 
BRANCH  16  17
ATOM     17  O   UNL     1       8.928   8.943  18.800  0.00  0.00    +0.000 OA
BRANCH  17  21
ATOM     18  C   UNL     1       9.519  13.044  19.246  0.00  0.00    +0.000 A 
ATOM     19  C   UNL     1       9.780  12.163  20.298  0.00  0.00    +0.000 A 
ATOM     20  C   UNL     1       9.575  10.790  20.110  0.00  0.00    +0.000 A 
ATOM     21  C   UNL     1       9.089  10.304  18.891  0.00  0.00    +0.000 A 
ATOM     22  C   UNL     1       8.845  11.198  17.844  0.00  0.00    +0.000 A 
ATOM     23  C   UNL     1       9.052  12.565  18.020  0.00  0.00    +0.000 A 
BRANCH  18  24
ATOM     24  S   UNL     1       9.808  14.780  19.434  0.00  0.00    +0.000 S 
ATOM     25  O   UNL     1      10.379  15.289  18.208  0.00  0.00    +0.000 OA
ATOM     26  O   UNL     1      10.399  15.020  20.728  0.00  0.00    +0.000 OA
BRANCH  24  27
ATOM     27  N   UNL     1       8.255  15.398  19.541  0.00  0.00    +0.000 NA
ATOM     28  H   UNL     1       8.097  16.038  18.761  0.00  0.00    +0.000 HD
ATOM     29  H   UNL     1       8.111  15.829  20.454  0.00  0.00    +0.000 HD
ENDBRANCH  24  27
ENDBRANCH  18  24
ENDBRANCH  17  21
ENDBRANCH  16  17
ENDBRANCH   1  16
TORSDOF 7
ENDMDL
MODEL 9
REMARK VINA RESULT:      -7.5      6.814     10.544
REMARK  Name = 
REMARK  7 active torsions:
REMARK  status: ('A' for Active; 'I' for Inactive)
REMARK    1  A    between atoms: N_1  and  S_2
REMARK    2  A    between atoms: S_2  and  C_5
REMARK    3  A    between atoms: C_8  and  O_9
REMARK    4  A    between atoms: O_9  and  C_10
REMARK    5  A    between atoms: C_10  and  C_11
REMARK    6  A    between atoms: N_13  and  C_14
REMARK    7  A    between atoms: C_17  and  C_18
REMARK                            x       y       z     vdW  Elec       q    Type
REMARK                         _______ _______ _______ _____ _____    ______ ____
ROOT
ATOM      1  C   UNL     1       7.384   7.204  18.001  0.00  0.00    +0.000 A 
ATOM      2  C   UNL     1       6.045   6.900  17.879  0.00  0.00    +0.000 A 
ATOM      3  N   UNL     1       5.912   5.641  18.417  0.00  0.00    +0.000 N 
ATOM      4  N   UNL     1       7.132   5.190  18.803  0.00  0.00    +0.000 NA
ATOM      5  N   UNL     1       8.030   6.137  18.557  0.00  0.00    +0.000 NA
ENDROOT
BRANCH   3   6
ATOM      6  C   UNL     1       4.726   4.886  18.612  0.00  0.00    +0.000 A 
ATOM      7  C   UNL     1       3.565   5.181  17.885  0.00  0.00    +0.000 A 
ATOM      8  C   UNL     1       2.403   4.428  18.079  0.00  0.00    +0.000 A 
ATOM      9  C   UNL     1       2.378   3.372  19.001  0.00  0.00    +0.000 A 
ATOM     10  C   UNL     1       3.539   3.091  19.737  0.00  0.00    +0.000 A 
ATOM     11  C   UNL     1       4.707   3.839  19.545  0.00  0.00    +0.000 A 
BRANCH   9  12
ATOM     12  C   UNL     1       1.131   2.543  19.196  0.00  0.00    +0.000 C 
ATOM     13  F   UNL     1       0.474   2.816  20.358  0.00  0.00    +0.000 F 
ATOM     14  F   UNL     1       0.220   2.732  18.201  0.00  0.00    +0.000 F 
ATOM     15  F   UNL     1       1.390   1.207  19.220  0.00  0.00    +0.000 F 
ENDBRANCH   9  12
ENDBRANCH   3   6
BRANCH   1  16
ATOM     16  C   UNL     1       8.075   8.490  17.722  0.00  0.00    +0.000 C 
BRANCH  16  17
ATOM     17  O   UNL     1       8.931   8.899  18.797  0.00  0.00    +0.000 OA
BRANCH  17  21
ATOM     18  C   UNL     1       9.530  12.994  19.290  0.00  0.00    +0.000 A 
ATOM     19  C   UNL     1       9.699  12.109  20.358  0.00  0.00    +0.000 A 
ATOM     20  C   UNL     1       9.494  10.739  20.154  0.00  0.00    +0.000 A 
ATOM     21  C   UNL     1       9.099  10.258  18.901  0.00  0.00    +0.000 A 
ATOM     22  C   UNL     1       8.947  11.154  17.838  0.00  0.00    +0.000 A 
ATOM     23  C   UNL     1       9.154  12.519  18.031  0.00  0.00    +0.000 A 
BRANCH  18  24
ATOM     24  S   UNL     1       9.823  14.726  19.500  0.00  0.00    +0.000 S 
ATOM     25  O   UNL     1      11.033  14.900  20.271  0.00  0.00    +0.000 OA
ATOM     26  O   UNL     1       8.580  15.374  19.842  0.00  0.00    +0.000 OA
BRANCH  24  27
ATOM     27  N   UNL     1      10.163  15.229  17.939  0.00  0.00    +0.000 NA
ATOM     28  H   UNL     1       9.497  15.956  17.672  0.00  0.00    +0.000 HD
ATOM     29  H   UNL     1      10.164  14.430  17.305  0.00  0.00    +0.000 HD
ENDBRANCH  24  27
ENDBRANCH  18  24
ENDBRANCH  17  21
ENDBRANCH  16  17
ENDBRANCH   1  16
TORSDOF 7
ENDMDL
