MODEL 1
REMARK VINA RESULT:      -7.2      0.000      0.000
REMARK  Name = 
REMARK  2 active torsions:
REMARK  status: ('A' for Active; 'I' for Inactive)
REMARK    1  A    between atoms: N_1  and  C_2
REMARK    2  A    between atoms: C_6  and  C_7
REMARK                            x       y       z     vdW  Elec       q    Type
REMARK                         _______ _______ _______ _____ _____    ______ ____
ROOT
ATOM      1  C   UNL     1       1.649   8.652  18.936  0.00  0.00    +0.000 A 
ATOM      2  N   UNL     1       1.759   7.527  19.621  0.00  0.00    +0.000 NA
ATOM      3  C   UNL     1       2.735   6.784  18.984  0.00  0.00    +0.000 A 
ATOM      4  C   UNL     1       3.296   5.514  19.216  0.00  0.00    +0.000 A 
ATOM      5  N   UNL     1       2.889   4.623  20.181  0.00  0.00    +0.000 N 
ATOM      6  C   UNL     1       3.852   3.693  20.771  0.00  0.00    +0.000 C 
ATOM      7  C   UNL     1       3.165   2.335  20.975  0.00  0.00    +0.000 C 
ATOM      8  O   UNL     1       1.959   2.459  21.753  0.00  0.00    +0.000 OA
ATOM      9  C   UNL     1       1.036   3.356  21.107  0.00  0.00    +0.000 C 
ATOM     10  C   UNL     1       1.636   4.762  20.920  0.00  0.00    +0.000 C 
ATOM     11  N   UNL     1       4.286   5.127  18.357  0.00  0.00    +0.000 NA
ATOM     12  C   UNL     1       4.690   5.897  17.322  0.00  0.00    +0.000 A 
ATOM     13  N   UNL     1       5.655   5.393  16.491  0.00  0.00    +0.000 N 
ATOM     14  C   UNL     1       6.190   6.152  15.366  0.00  0.00    +0.000 C 
ATOM     15  C   UNL     1       6.016   5.352  14.065  0.00  0.00    +0.000 C 
ATOM     16  O   UNL     1       6.566   4.028  14.176  0.00  0.00    +0.000 OA
ATOM     17  C   UNL     1       5.915   3.306  15.236  0.00  0.00    +0.000 C 
ATOM     18  C   UNL     1       6.104   4.005  16.592  0.00  0.00    +0.000 C 
ATOM     19  N   UNL     1       4.192   7.116  17.054  0.00  0.00    +0.000 NA
ATOM     20  C   UNL     1       3.238   7.488  17.910  0.00  0.00    +0.000 A 
ATOM     21  N   UNL     1       2.546   8.662  17.891  0.00  0.00    +0.000 N 
ATOM     22  H   UNL     1       2.697   9.410  17.235  0.00  0.00    +0.000 HD
ENDROOT
BRANCH   1  27
ATOM     23  C   UNL     1      -0.837  11.483  18.551  0.00  0.00    +0.000 A 
ATOM     24  C   UNL     1      -0.932  11.905  19.878  0.00  0.00    +0.000 A 
ATOM     25  C   UNL     1      -0.254  11.227  20.892  0.00  0.00    +0.000 A 
ATOM     26  C   UNL     1       0.569  10.148  20.575  0.00  0.00    +0.000 A 
ATOM     27  C   UNL     1       0.745   9.759  19.242  0.00  0.00    +0.000 A 
ATOM     28  C   UNL     1       0.048  10.445  18.236  0.00  0.00    +0.000 A 
BRANCH  23  29
ATOM     29  N   UNL     1      -1.434  12.231  17.528  0.00  0.00    +0.000 N 
ATOM     30  H   UNL     1      -1.137  11.952  16.597  0.00  0.00    +0.000 HD
ATOM     31  H   UNL     1      -1.367  13.235  17.659  0.00  0.00    +0.000 HD
ENDBRANCH  23  29
ENDBRANCH   1  27
TORSDOF 2
ENDMDL
MODEL 2
REMARK VINA RESULT:      -7.2      2.359      7.210
REMARK  Name = 
REMARK  2 active torsions:
REMARK  status: ('A' for Active; 'I' for Inactive)
REMARK    1  A    between atoms: N_1  and  C_2
REMARK    2  A    between atoms: C_6  and  C_7
REMARK                            x       y       z     vdW  Elec       q    Type
REMARK                         _______ _______ _______ _____ _____    ______ ____
ROOT
ATOM      1  C   UNL     1       4.809   5.449  16.135  0.00  0.00    +0.000 A 
ATOM      2  N   UNL     1       4.399   4.663  17.117  0.00  0.00    +0.000 NA
ATOM      3  C   UNL     1       3.607   5.450  17.931  0.00  0.00    +0.000 A 
ATOM      4  C   UNL     1       2.897   5.209  19.123  0.00  0.00    +0.000 A 
ATOM      5  N   UNL     1       2.910   4.035  19.839  0.00  0.00    +0.000 N 
ATOM      6  C   UNL     1       1.738   3.641  20.621  0.00  0.00    +0.000 C 
ATOM      7  C   UNL     1       2.211   3.016  21.940  0.00  0.00    +0.000 C 
ATOM      8  O   UNL     1       3.126   1.926  21.716  0.00  0.00    +0.000 OA
ATOM      9  C   UNL     1       4.275   2.379  20.977  0.00  0.00    +0.000 C 
ATOM     10  C   UNL     1       3.883   2.969  19.609  0.00  0.00    +0.000 C 
ATOM     11  N   UNL     1       2.190   6.265  19.627  0.00  0.00    +0.000 NA
ATOM     12  C   UNL     1       2.190   7.484  19.042  0.00  0.00    +0.000 A 
ATOM     13  N   UNL     1       1.488   8.486  19.656  0.00  0.00    +0.000 N 
ATOM     14  C   UNL     1       1.391   9.828  19.093  0.00  0.00    +0.000 C 
ATOM     15  C   UNL     1       1.888  10.861  20.118  0.00  0.00    +0.000 C 
ATOM     16  O   UNL     1       1.222  10.721  21.384  0.00  0.00    +0.000 OA
ATOM     17  C   UNL     1       1.451   9.408  21.924  0.00  0.00    +0.000 C 
ATOM     18  C   UNL     1       0.914   8.312  20.990  0.00  0.00    +0.000 C 
ATOM     19  N   UNL     1       2.848   7.770  17.905  0.00  0.00    +0.000 NA
ATOM     20  C   UNL     1       3.520   6.726  17.415  0.00  0.00    +0.000 A 
ATOM     21  N   UNL     1       4.281   6.712  16.285  0.00  0.00    +0.000 N 
ATOM     22  H   UNL     1       4.403   7.493  15.661  0.00  0.00    +0.000 HD
ENDROOT
BRANCH   1  27
ATOM     23  C   UNL     1       7.715   5.268  13.713  0.00  0.00    +0.000 A 
ATOM     24  C   UNL     1       7.241   4.290  12.838  0.00  0.00    +0.000 A 
ATOM     25  C   UNL     1       6.026   3.646  13.078  0.00  0.00    +0.000 A 
ATOM     26  C   UNL     1       5.250   4.017  14.174  0.00  0.00    +0.000 A 
ATOM     27  C   UNL     1       5.665   5.052  15.019  0.00  0.00    +0.000 A 
ATOM     28  C   UNL     1       6.894   5.682  14.769  0.00  0.00    +0.000 A 
BRANCH  23  29
ATOM     29  N   UNL     1       8.880   5.982  13.409  0.00  0.00    +0.000 N 
ATOM     30  H   UNL     1       9.247   5.782  12.483  0.00  0.00    +0.000 HD
ATOM     31  H   UNL     1       9.601   5.917  14.121  0.00  0.00    +0.000 HD
ENDBRANCH  23  29
ENDBRANCH   1  27
TORSDOF 2
ENDMDL
MODEL 3
REMARK VINA RESULT:      -7.2      5.410     10.838
REMARK  Name = 
REMARK  2 active torsions:
REMARK  status: ('A' for Active; 'I' for Inactive)
REMARK    1  A    between atoms: N_1  and  C_2
REMARK    2  A    between atoms: C_6  and  C_7
REMARK                            x       y       z     vdW  Elec       q    Type
REMARK                         _______ _______ _______ _____ _____    ______ ____
ROOT
ATOM      1  C   UNL     1       0.669  10.253  20.558  0.00  0.00    +0.000 A 
ATOM      2  N   UNL     1       1.123  11.494  20.596  0.00  0.00    +0.000 NA
ATOM      3  C   UNL     1       0.224  12.205  21.369  0.00  0.00    +0.000 A 
ATOM      4  C   UNL     1       0.141  13.552  21.773  0.00  0.00    +0.000 A 
ATOM      5  N   UNL     1       0.987  14.560  21.374  0.00  0.00    +0.000 N 
ATOM      6  C   UNL     1       1.251  15.690  22.265  0.00  0.00    +0.000 C 
ATOM      7  C   UNL     1       1.316  16.975  21.428  0.00  0.00    +0.000 C 
ATOM      8  O   UNL     1       2.279  16.868  20.362  0.00  0.00    +0.000 OA
ATOM      9  C   UNL     1       1.949  15.765  19.497  0.00  0.00    +0.000 C 
ATOM     10  C   UNL     1       1.921  14.426  20.258  0.00  0.00    +0.000 C 
ATOM     11  N   UNL     1      -0.914  13.875  22.580  0.00  0.00    +0.000 NA
ATOM     12  C   UNL     1      -1.847  12.971  22.950  0.00  0.00    +0.000 A 
ATOM     13  N   UNL     1      -2.891  13.411  23.720  0.00  0.00    +0.000 N 
ATOM     14  C   UNL     1      -3.934  12.513  24.206  0.00  0.00    +0.000 C 
ATOM     15  C   UNL     1      -5.312  13.023  23.755  0.00  0.00    +0.000 C 
ATOM     16  O   UNL     1      -5.521  14.397  24.124  0.00  0.00    +0.000 OA
ATOM     17  C   UNL     1      -4.516  15.232  23.522  0.00  0.00    +0.000 C 
ATOM     18  C   UNL     1      -3.104  14.834  23.980  0.00  0.00    +0.000 C 
ATOM     19  N   UNL     1      -1.818  11.674  22.596  0.00  0.00    +0.000 NA
ATOM     20  C   UNL     1      -0.774  11.369  21.822  0.00  0.00    +0.000 A 
ATOM     21  N   UNL     1      -0.482  10.143  21.305  0.00  0.00    +0.000 N 
ATOM     22  H   UNL     1      -1.013   9.304  21.472  0.00  0.00    +0.000 HD
ENDROOT
BRANCH   1  27
ATOM     23  C   UNL     1       2.228   6.875  19.849  0.00  0.00    +0.000 A 
ATOM     24  C   UNL     1       2.551   7.034  18.500  0.00  0.00    +0.000 A 
ATOM     25  C   UNL     1       2.196   8.198  17.815  0.00  0.00    +0.000 A 
ATOM     26  C   UNL     1       1.559   9.234  18.493  0.00  0.00    +0.000 A 
ATOM     27  C   UNL     1       1.299   9.131  19.864  0.00  0.00    +0.000 A 
ATOM     28  C   UNL     1       1.653   7.950  20.535  0.00  0.00    +0.000 A 
BRANCH  23  29
ATOM     29  N   UNL     1       2.680   5.753  20.554  0.00  0.00    +0.000 N 
ATOM     30  H   UNL     1       2.210   4.892  20.288  0.00  0.00    +0.000 HD
ATOM     31  H   UNL     1       2.695   5.877  21.562  0.00  0.00    +0.000 HD
ENDBRANCH  23  29
ENDBRANCH   1  27
TORSDOF 2
ENDMDL
MODEL 4
REMARK VINA RESULT:      -7.1      2.342      7.163
REMARK  Name = 
REMARK  2 active torsions:
REMARK  status: ('A' for Active; 'I' for Inactive)
REMARK    1  A    between atoms: N_1  and  C_2
REMARK    2  A    between atoms: C_6  and  C_7
REMARK                            x       y       z     vdW  Elec       q    Type
REMARK                         _______ _______ _______ _____ _____    ______ ____
ROOT
ATOM      1  C   UNL     1       4.684   5.653  16.647  0.00  0.00    +0.000 A 
ATOM      2  N   UNL     1       4.150   4.830  17.533  0.00  0.00    +0.000 NA
ATOM      3  C   UNL     1       3.316   5.603  18.319  0.00  0.00    +0.000 A 
ATOM      4  C   UNL     1       2.485   5.324  19.421  0.00  0.00    +0.000 A 
ATOM      5  N   UNL     1       2.382   4.110  20.059  0.00  0.00    +0.000 N 
ATOM      6  C   UNL     1       1.125   3.725  20.701  0.00  0.00    +0.000 C 
ATOM      7  C   UNL     1       1.444   3.001  22.016  0.00  0.00    +0.000 C 
ATOM      8  O   UNL     1       2.332   1.885  21.809  0.00  0.00    +0.000 OA
ATOM      9  C   UNL     1       3.564   2.329  21.212  0.00  0.00    +0.000 C 
ATOM     10  C   UNL     1       3.329   3.016  19.854  0.00  0.00    +0.000 C 
ATOM     11  N   UNL     1       1.776   6.379  19.923  0.00  0.00    +0.000 NA
ATOM     12  C   UNL     1       1.881   7.629  19.419  0.00  0.00    +0.000 A 
ATOM     13  N   UNL     1       1.164   8.625  20.028  0.00  0.00    +0.000 N 
ATOM     14  C   UNL     1       1.176  10.001  19.544  0.00  0.00    +0.000 C 
ATOM     15  C   UNL     1       1.613  10.947  20.675  0.00  0.00    +0.000 C 
ATOM     16  O   UNL     1       0.823  10.763  21.861  0.00  0.00    +0.000 OA
ATOM     17  C   UNL     1       0.946   9.411  22.336  0.00  0.00    +0.000 C 
ATOM     18  C   UNL     1       0.458   8.398  21.288  0.00  0.00    +0.000 C 
ATOM     19  N   UNL     1       2.656   7.952  18.369  0.00  0.00    +0.000 NA
ATOM     20  C   UNL     1       3.330   6.910  17.879  0.00  0.00    +0.000 A 
ATOM     21  N   UNL     1       4.195   6.928  16.826  0.00  0.00    +0.000 N 
ATOM     22  H   UNL     1       4.407   7.738  16.267  0.00  0.00    +0.000 HD
ENDROOT
BRANCH   1  27
ATOM     23  C   UNL     1       6.186   4.070  13.552  0.00  0.00    +0.000 A 
ATOM     24  C   UNL     1       7.486   4.571  13.629  0.00  0.00    +0.000 A 
ATOM     25  C   UNL     1       7.845   5.472  14.633  0.00  0.00    +0.000 A 
ATOM     26  C   UNL     1       6.912   5.838  15.602  0.00  0.00    +0.000 A 
ATOM     27  C   UNL     1       5.627   5.285  15.592  0.00  0.00    +0.000 A 
ATOM     28  C   UNL     1       5.280   4.388  14.569  0.00  0.00    +0.000 A 
BRANCH  23  29
ATOM     29  N   UNL     1       5.864   3.088  12.607  0.00  0.00    +0.000 N 
ATOM     30  H   UNL     1       6.535   3.023  11.846  0.00  0.00    +0.000 HD
ATOM     31  H   UNL     1       4.910   3.144  12.262  0.00  0.00    +0.000 HD
ENDBRANCH  23  29
ENDBRANCH   1  27
TORSDOF 2
ENDMDL
MODEL 5
REMARK VINA RESULT:      -7.1      4.110      8.001
REMARK  Name = 
REMARK  2 active torsions:
REMARK  status: ('A' for Active; 'I' for Inactive)
REMARK    1  A    between atoms: N_1  and  C_2
REMARK    2  A    between atoms: C_6  and  C_7
REMARK                            x       y       z     vdW  Elec       q    Type
REMARK                         _______ _______ _______ _____ _____    ______ ____
ROOT
ATOM      1  C   UNL     1       2.362   8.215  18.379  0.00  0.00    +0.000 A 
ATOM      2  N   UNL     1       1.483   8.576  19.298  0.00  0.00    +0.000 NA
ATOM      3  C   UNL     1       1.445   9.957  19.271  0.00  0.00    +0.000 A 
ATOM      4  C   UNL     1       0.729  10.925  20.000  0.00  0.00    +0.000 A 
ATOM      5  N   UNL     1      -0.114  10.669  21.056  0.00  0.00    +0.000 N 
ATOM      6  C   UNL     1      -1.252  11.552  21.316  0.00  0.00    +0.000 C 
ATOM      7  C   UNL     1      -1.404  11.729  22.833  0.00  0.00    +0.000 C 
ATOM      8  O   UNL     1      -1.515  10.461  23.508  0.00  0.00    +0.000 OA
ATOM      9  C   UNL     1      -0.354   9.650  23.248  0.00  0.00    +0.000 C 
ATOM     10  C   UNL     1      -0.168   9.380  21.743  0.00  0.00    +0.000 C 
ATOM     11  N   UNL     1       0.953  12.228  19.654  0.00  0.00    +0.000 NA
ATOM     12  C   UNL     1       1.833  12.582  18.691  0.00  0.00    +0.000 A 
ATOM     13  N   UNL     1       2.019  13.919  18.457  0.00  0.00    +0.000 N 
ATOM     14  C   UNL     1       2.916  14.410  17.417  0.00  0.00    +0.000 C 
ATOM     15  C   UNL     1       3.959  15.358  18.032  0.00  0.00    +0.000 C 
ATOM     16  O   UNL     1       3.341  16.405  18.799  0.00  0.00    +0.000 OA
ATOM     17  C   UNL     1       2.560  15.844  19.869  0.00  0.00    +0.000 C 
ATOM     18  C   UNL     1       1.441  14.937  19.333  0.00  0.00    +0.000 C 
ATOM     19  N   UNL     1       2.542  11.702  17.963  0.00  0.00    +0.000 NA
ATOM     20  C   UNL     1       2.301  10.433  18.300  0.00  0.00    +0.000 A 
ATOM     21  N   UNL     1       2.871   9.327  17.746  0.00  0.00    +0.000 N 
ATOM     22  H   UNL     1       3.531   9.337  16.985  0.00  0.00    +0.000 HD
ENDROOT
BRANCH   1  27
ATOM     23  C   UNL     1       2.228   4.458  17.923  0.00  0.00    +0.000 A 
ATOM     24  C   UNL     1       3.504   4.230  17.407  0.00  0.00    +0.000 A 
ATOM     25  C   UNL     1       4.367   5.295  17.140  0.00  0.00    +0.000 A 
ATOM     26  C   UNL     1       3.972   6.598  17.440  0.00  0.00    +0.000 A 
ATOM     27  C   UNL     1       2.730   6.843  18.035  0.00  0.00    +0.000 A 
ATOM     28  C   UNL     1       1.871   5.762  18.287  0.00  0.00    +0.000 A 
BRANCH  23  29
ATOM     29  N   UNL     1       1.411   3.380  18.286  0.00  0.00    +0.000 N 
ATOM     30  H   UNL     1       0.466   3.656  18.538  0.00  0.00    +0.000 HD
ATOM     31  H   UNL     1       1.823   2.767  18.983  0.00  0.00    +0.000 HD
ENDBRANCH  23  29
ENDBRANCH   1  27
TORSDOF 2
ENDMDL
MODEL 6
REMARK VINA RESULT:      -7.0      4.066      7.993
REMARK  Name = 
REMARK  2 active torsions:
REMARK  status: ('A' for Active; 'I' for Inactive)
REMARK    1  A    between atoms: N_1  and  C_2
REMARK    2  A    between atoms: C_6  and  C_7
REMARK                            x       y       z     vdW  Elec       q    Type
REMARK                         _______ _______ _______ _____ _____    ______ ____
ROOT
ATOM      1  C   UNL     1       2.366   8.155  18.349  0.00  0.00    +0.000 A 
ATOM      2  N   UNL     1       1.493   8.520  19.273  0.00  0.00    +0.000 NA
ATOM      3  C   UNL     1       1.464   9.902  19.247  0.00  0.00    +0.000 A 
ATOM      4  C   UNL     1       0.757  10.873  19.980  0.00  0.00    +0.000 A 
ATOM      5  N   UNL     1      -0.083  10.621  21.040  0.00  0.00    +0.000 N 
ATOM      6  C   UNL     1      -1.214  11.511  21.306  0.00  0.00    +0.000 C 
ATOM      7  C   UNL     1      -1.357  11.687  22.824  0.00  0.00    +0.000 C 
ATOM      8  O   UNL     1      -1.472  10.420  23.499  0.00  0.00    +0.000 OA
ATOM      9  C   UNL     1      -0.317   9.603  23.232  0.00  0.00    +0.000 C 
ATOM     10  C   UNL     1      -0.140   9.333  21.727  0.00  0.00    +0.000 C 
ATOM     11  N   UNL     1       0.986  12.175  19.634  0.00  0.00    +0.000 NA
ATOM     12  C   UNL     1       1.863  12.525  18.666  0.00  0.00    +0.000 A 
ATOM     13  N   UNL     1       2.055  13.860  18.432  0.00  0.00    +0.000 N 
ATOM     14  C   UNL     1       2.950  14.348  17.387  0.00  0.00    +0.000 C 
ATOM     15  C   UNL     1       4.001  15.289  17.998  0.00  0.00    +0.000 C 
ATOM     16  O   UNL     1       3.394  16.339  18.769  0.00  0.00    +0.000 OA
ATOM     17  C   UNL     1       2.614  15.782  19.842  0.00  0.00    +0.000 C 
ATOM     18  C   UNL     1       1.488  14.881  19.311  0.00  0.00    +0.000 C 
ATOM     19  N   UNL     1       2.563  11.641  17.934  0.00  0.00    +0.000 NA
ATOM     20  C   UNL     1       2.317  10.374  18.272  0.00  0.00    +0.000 A 
ATOM     21  N   UNL     1       2.878   9.264  17.714  0.00  0.00    +0.000 N 
ATOM     22  H   UNL     1       3.534   9.271  16.949  0.00  0.00    +0.000 HD
ENDROOT
BRANCH   1  27
ATOM     23  C   UNL     1       4.319   5.130  17.176  0.00  0.00    +0.000 A 
ATOM     24  C   UNL     1       3.341   4.143  17.307  0.00  0.00    +0.000 A 
ATOM     25  C   UNL     1       2.088   4.448  17.841  0.00  0.00    +0.000 A 
ATOM     26  C   UNL     1       1.789   5.760  18.201  0.00  0.00    +0.000 A 
ATOM     27  C   UNL     1       2.724   6.781  18.002  0.00  0.00    +0.000 A 
ATOM     28  C   UNL     1       3.983   6.456  17.473  0.00  0.00    +0.000 A 
BRANCH  23  29
ATOM     29  N   UNL     1       5.534   4.840  16.542  0.00  0.00    +0.000 N 
ATOM     30  H   UNL     1       5.708   3.844  16.440  0.00  0.00    +0.000 HD
ATOM     31  H   UNL     1       6.333   5.322  16.942  0.00  0.00    +0.000 HD
ENDBRANCH  23  29
ENDBRANCH   1  27
TORSDOF 2
ENDMDL
MODEL 7
REMARK VINA RESULT:      -6.9      9.099     11.707
REMARK  Name = 
REMARK  2 active torsions:
REMARK  status: ('A' for Active; 'I' for Inactive)
REMARK    1  A    between atoms: N_1  and  C_2
REMARK    2  A    between atoms: C_6  and  C_7
REMARK                            x       y       z     vdW  Elec       q    Type
REMARK                         _______ _______ _______ _____ _____    ______ ____
ROOT
ATOM      1  C   UNL     1       9.029  12.885  21.351  0.00  0.00    +0.000 A 
ATOM      2  N   UNL     1       7.932  13.621  21.287  0.00  0.00    +0.000 NA
ATOM      3  C   UNL     1       7.334  13.525  22.529  0.00  0.00    +0.000 A 
ATOM      4  C   UNL     1       6.156  14.060  23.085  0.00  0.00    +0.000 A 
ATOM      5  N   UNL     1       5.219  14.806  22.409  0.00  0.00    +0.000 N 
ATOM      6  C   UNL     1       4.436  15.816  23.121  0.00  0.00    +0.000 C 
ATOM      7  C   UNL     1       2.995  15.786  22.592  0.00  0.00    +0.000 C 
ATOM      8  O   UNL     1       2.949  15.949  21.161  0.00  0.00    +0.000 OA
ATOM      9  C   UNL     1       3.704  14.908  20.514  0.00  0.00    +0.000 C 
ATOM     10  C   UNL     1       5.181  14.912  20.952  0.00  0.00    +0.000 C 
ATOM     11  N   UNL     1       5.911  13.747  24.393  0.00  0.00    +0.000 NA
ATOM     12  C   UNL     1       6.728  12.945  25.112  0.00  0.00    +0.000 A 
ATOM     13  N   UNL     1       6.364  12.655  26.400  0.00  0.00    +0.000 N 
ATOM     14  C   UNL     1       7.189  11.831  27.277  0.00  0.00    +0.000 C 
ATOM     15  C   UNL     1       6.368  10.640  27.798  0.00  0.00    +0.000 C 
ATOM     16  O   UNL     1       5.136  11.065  28.404  0.00  0.00    +0.000 OA
ATOM     17  C   UNL     1       4.332  11.778  27.448  0.00  0.00    +0.000 C 
ATOM     18  C   UNL     1       5.054  13.032  26.929  0.00  0.00    +0.000 C 
ATOM     19  N   UNL     1       7.864  12.409  24.634  0.00  0.00    +0.000 NA
ATOM     20  C   UNL     1       8.099  12.735  23.362  0.00  0.00    +0.000 A 
ATOM     21  N   UNL     1       9.163  12.340  22.608  0.00  0.00    +0.000 N 
ATOM     22  H   UNL     1       9.924  11.769  22.938  0.00  0.00    +0.000 HD
ENDROOT
BRANCH   1  27
ATOM     23  C   UNL     1      10.797  13.139  18.012  0.00  0.00    +0.000 A 
ATOM     24  C   UNL     1      11.852  12.250  18.227  0.00  0.00    +0.000 A 
ATOM     25  C   UNL     1      12.025  11.636  19.469  0.00  0.00    +0.000 A 
ATOM     26  C   UNL     1      11.108  11.871  20.492  0.00  0.00    +0.000 A 
ATOM     27  C   UNL     1       9.998  12.693  20.274  0.00  0.00    +0.000 A 
ATOM     28  C   UNL     1       9.844  13.311  19.022  0.00  0.00    +0.000 A 
BRANCH  23  29
ATOM     29  N   UNL     1      10.570  13.668  16.735  0.00  0.00    +0.000 N 
ATOM     30  H   UNL     1      11.418  13.981  16.271  0.00  0.00    +0.000 HD
ATOM     31  H   UNL     1       9.841  14.374  16.705  0.00  0.00    +0.000 HD
ENDBRANCH  23  29
ENDBRANCH   1  27
TORSDOF 2
ENDMDL
MODEL 8
REMARK VINA RESULT:      -6.8      0.932      1.305
REMARK  Name = 
REMARK  2 active torsions:
REMARK  status: ('A' for Active; 'I' for Inactive)
REMARK    1  A    between atoms: N_1  and  C_2
REMARK    2  A    between atoms: C_6  and  C_7
REMARK                            x       y       z     vdW  Elec       q    Type
REMARK                         _______ _______ _______ _____ _____    ______ ____
ROOT
ATOM      1  C   UNL     1       1.651   8.558  19.019  0.00  0.00    +0.000 A 
ATOM      2  N   UNL     1       1.783   7.429  19.694  0.00  0.00    +0.000 NA
ATOM      3  C   UNL     1       2.757   6.702  19.037  0.00  0.00    +0.000 A 
ATOM      4  C   UNL     1       3.335   5.436  19.249  0.00  0.00    +0.000 A 
ATOM      5  N   UNL     1       2.952   4.534  20.214  0.00  0.00    +0.000 N 
ATOM      6  C   UNL     1       3.934   3.609  20.782  0.00  0.00    +0.000 C 
ATOM      7  C   UNL     1       3.265   2.243  20.986  0.00  0.00    +0.000 C 
ATOM      8  O   UNL     1       2.070   2.348  21.783  0.00  0.00    +0.000 OA
ATOM      9  C   UNL     1       1.127   3.239  21.159  0.00  0.00    +0.000 C 
ATOM     10  C   UNL     1       1.709   4.653  20.974  0.00  0.00    +0.000 C 
ATOM     11  N   UNL     1       4.315   5.066  18.372  0.00  0.00    +0.000 NA
ATOM     12  C   UNL     1       4.695   5.848  17.337  0.00  0.00    +0.000 A 
ATOM     13  N   UNL     1       5.653   5.360  16.488  0.00  0.00    +0.000 N 
ATOM     14  C   UNL     1       6.162   6.134  15.361  0.00  0.00    +0.000 C 
ATOM     15  C   UNL     1       5.976   5.341  14.057  0.00  0.00    +0.000 C 
ATOM     16  O   UNL     1       6.541   4.022  14.148  0.00  0.00    +0.000 OA
ATOM     17  C   UNL     1       5.915   3.286  15.213  0.00  0.00    +0.000 C 
ATOM     18  C   UNL     1       6.118   3.976  16.572  0.00  0.00    +0.000 C 
ATOM     19  N   UNL     1       4.180   7.063  17.087  0.00  0.00    +0.000 NA
ATOM     20  C   UNL     1       3.235   7.419  17.960  0.00  0.00    +0.000 A 
ATOM     21  N   UNL     1       2.531   8.585  17.960  0.00  0.00    +0.000 N 
ATOM     22  H   UNL     1       2.664   9.340  17.308  0.00  0.00    +0.000 HD
ENDROOT
BRANCH   1  27
ATOM     23  C   UNL     1      -0.257  11.198  20.952  0.00  0.00    +0.000 A 
ATOM     24  C   UNL     1      -1.057  11.715  19.932  0.00  0.00    +0.000 A 
ATOM     25  C   UNL     1      -0.921  11.261  18.619  0.00  0.00    +0.000 A 
ATOM     26  C   UNL     1      -0.014  10.244  18.328  0.00  0.00    +0.000 A 
ATOM     27  C   UNL     1       0.740   9.653  19.348  0.00  0.00    +0.000 A 
ATOM     28  C   UNL     1       0.598  10.129  20.661  0.00  0.00    +0.000 A 
BRANCH  23  29
ATOM     29  N   UNL     1      -0.472  11.582  22.281  0.00  0.00    +0.000 N 
ATOM     30  H   UNL     1      -0.410  12.586  22.427  0.00  0.00    +0.000 HD
ATOM     31  H   UNL     1       0.089  11.069  22.955  0.00  0.00    +0.000 HD
ENDBRANCH  23  29
ENDBRANCH   1  27
TORSDOF 2
ENDMDL
MODEL 9
REMARK VINA RESULT:      -6.7      4.883     10.257
REMARK  Name = 
REMARK  2 active torsions:
REMARK  status: ('A' for Active; 'I' for Inactive)
REMARK    1  A    between atoms: N_1  and  C_2
REMARK    2  A    between atoms: C_6  and  C_7
REMARK                            x       y       z     vdW  Elec       q    Type
REMARK                         _______ _______ _______ _____ _____    ______ ____
ROOT
ATOM      1  C   UNL     1       1.051   9.254  20.537  0.00  0.00    +0.000 A 
ATOM      2  N   UNL     1       1.538  10.464  20.320  0.00  0.00    +0.000 NA
ATOM      3  C   UNL     1       0.701  11.339  20.985  0.00  0.00    +0.000 A 
ATOM      4  C   UNL     1       0.675  12.740  21.131  0.00  0.00    +0.000 A 
ATOM      5  N   UNL     1       1.524  13.624  20.509  0.00  0.00    +0.000 N 
ATOM      6  C   UNL     1       1.865  14.891  21.158  0.00  0.00    +0.000 C 
ATOM      7  C   UNL     1       1.919  15.993  20.091  0.00  0.00    +0.000 C 
ATOM      8  O   UNL     1       2.821  15.654  19.020  0.00  0.00    +0.000 OA
ATOM      9  C   UNL     1       2.417  14.421  18.396  0.00  0.00    +0.000 C 
ATOM     10  C   UNL     1       2.394  13.251  19.396  0.00  0.00    +0.000 C 
ATOM     11  N   UNL     1      -0.327  13.246  21.911  0.00  0.00    +0.000 NA
ATOM     12  C   UNL     1      -1.263  12.461  22.490  0.00  0.00    +0.000 A 
ATOM     13  N   UNL     1      -2.252  13.074  23.211  0.00  0.00    +0.000 N 
ATOM     14  C   UNL     1      -3.291  12.321  23.906  0.00  0.00    +0.000 C 
ATOM     15  C   UNL     1      -4.678  12.787  23.433  0.00  0.00    +0.000 C 
ATOM     16  O   UNL     1      -4.830  14.212  23.545  0.00  0.00    +0.000 OA
ATOM     17  C   UNL     1      -3.837  14.883  22.749  0.00  0.00    +0.000 C 
ATOM     18  C   UNL     1      -2.413  14.527  23.208  0.00  0.00    +0.000 C 
ATOM     19  N   UNL     1      -1.286  11.121  22.386  0.00  0.00    +0.000 NA
ATOM     20  C   UNL     1      -0.294  10.639  21.635  0.00  0.00    +0.000 A 
ATOM     21  N   UNL     1      -0.061   9.328  21.345  0.00  0.00    +0.000 N 
ATOM     22  H   UNL     1      -0.604   8.555  21.693  0.00  0.00    +0.000 HD
ENDROOT
BRANCH   1  27
ATOM     23  C   UNL     1       2.079   5.618  20.284  0.00  0.00    +0.000 A 
ATOM     24  C   UNL     1       2.753   5.641  19.062  0.00  0.00    +0.000 A 
ATOM     25  C   UNL     1       2.805   6.808  18.297  0.00  0.00    +0.000 A 
ATOM     26  C   UNL     1       2.223   7.978  18.780  0.00  0.00    +0.000 A 
ATOM     27  C   UNL     1       1.614   8.001  20.039  0.00  0.00    +0.000 A 
ATOM     28  C   UNL     1       1.561   6.816  20.790  0.00  0.00    +0.000 A 
BRANCH  23  29
ATOM     29  N   UNL     1       2.121   4.475  21.092  0.00  0.00    +0.000 N 
ATOM     30  H   UNL     1       2.130   4.683  22.087  0.00  0.00    +0.000 HD
ATOM     31  H   UNL     1       2.854   3.819  20.839  0.00  0.00    +0.000 HD
ENDBRANCH  23  29
ENDBRANCH   1  27
TORSDOF 2
ENDMDL
