MODEL 1
REMARK VINA RESULT:      -8.2      0.000      0.000
REMARK  Name = 
REMARK  11 active torsions:
REMARK  status: ('A' for Active; 'I' for Inactive)
REMARK    1  A    between atoms: C_1  and  C_2
REMARK    2  A    between atoms: C_2  and  C_3
REMARK    3  A    between atoms: C_2  and  N_17
REMARK    4  A    between atoms: C_3  and  C_4
REMARK    5  A    between atoms: C_7  and  S_8
REMARK    6  A    between atoms: S_8  and  C_9
REMARK    7  A    between atoms: N_17  and  C_18
REMARK    8  A    between atoms: C_18  and  C_19
REMARK    9  A    between atoms: C_19  and  O_20
REMARK   10  A    between atoms: C_19  and  C_21
REMARK   11  A    between atoms: C_25  and  C_26
REMARK                            x       y       z     vdW  Elec       q    Type
REMARK                         _______ _______ _______ _____ _____    ______ ____
ROOT
ATOM      1  C   UNL     1       1.247   2.749  21.358  0.00  0.00    +0.000 C 
ATOM      2  C   UNL     1       1.141   3.952  20.408  0.00  0.00    +0.000 C 
ENDROOT
BRANCH   2   3
ATOM      3  N   UNL     1       1.346   3.551  19.006  0.00  0.00    +0.000 NA
ATOM      4  H   UNL     1       1.966   4.197  18.517  0.00  0.00    +0.000 HD
BRANCH   3   5
ATOM      5  C   UNL     1       1.839   2.175  18.849  0.00  0.00    +0.000 C 
BRANCH   5   6
ATOM      6  C   UNL     1       3.379   2.082  18.989  0.00  0.00    +0.000 C 
BRANCH   6   7
ATOM      7  C   UNL     1       4.085   3.167  18.194  0.00  0.00    +0.000 A 
ATOM      8  C   UNL     1       3.665   3.531  16.903  0.00  0.00    +0.000 A 
ATOM      9  C   UNL     1       4.313   4.546  16.198  0.00  0.00    +0.000 A 
ATOM     10  C   UNL     1       5.395   5.213  16.768  0.00  0.00    +0.000 A 
ATOM     11  C   UNL     1       5.842   4.871  18.052  0.00  0.00    +0.000 A 
ATOM     12  C   UNL     1       5.180   3.847  18.754  0.00  0.00    +0.000 A 
BRANCH  11  13
ATOM     13  C   UNL     1       7.011   5.586  18.683  0.00  0.00    +0.000 C 
ATOM     14  F   UNL     1       6.966   5.609  20.045  0.00  0.00    +0.000 F 
ATOM     15  F   UNL     1       8.206   5.016  18.361  0.00  0.00    +0.000 F 
ATOM     16  F   UNL     1       7.100   6.888  18.293  0.00  0.00    +0.000 F 
ENDBRANCH  11  13
ENDBRANCH   6   7
BRANCH   6  17
ATOM     17  O   UNL     1       3.835   0.798  18.542  0.00  0.00    +0.000 OA
ATOM     18  H   UNL     1       3.435   0.129  19.119  0.00  0.00    +0.000 HD
ENDBRANCH   6  17
ENDBRANCH   5   6
ENDBRANCH   3   5
ENDBRANCH   2   3
BRANCH   2  19
ATOM     19  C   UNL     1       2.177   5.020  20.859  0.00  0.00    +0.000 C 
BRANCH  19  20
ATOM     20  C   UNL     1       2.066   6.369  20.187  0.00  0.00    +0.000 A 
ATOM     21  C   UNL     1       1.377   7.428  20.792  0.00  0.00    +0.000 A 
ATOM     22  C   UNL     1       1.281   8.674  20.154  0.00  0.00    +0.000 A 
ATOM     23  C   UNL     1       1.866   8.871  18.900  0.00  0.00    +0.000 A 
ATOM     24  C   UNL     1       2.555   7.821  18.295  0.00  0.00    +0.000 A 
ATOM     25  C   UNL     1       2.660   6.582  18.936  0.00  0.00    +0.000 A 
BRANCH  23  26
ATOM     26  S   UNL     1       1.657  10.426  18.049  0.00  0.00    +0.000 S 
BRANCH  26  27
ATOM     27  C   UNL     1      -0.034  10.833  18.446  0.00  0.00    +0.000 A 
ATOM     28  C   UNL     1      -0.330  11.819  19.393  0.00  0.00    +0.000 A 
ATOM     29  C   UNL     1      -1.656  12.155  19.671  0.00  0.00    +0.000 A 
ATOM     30  C   UNL     1      -2.696  11.507  19.008  0.00  0.00    +0.000 A 
ATOM     31  C   UNL     1      -2.409  10.536  18.049  0.00  0.00    +0.000 A 
ATOM     32  C   UNL     1      -1.081  10.205  17.769  0.00  0.00    +0.000 A 
ENDBRANCH  26  27
ENDBRANCH  23  26
ENDBRANCH  19  20
ENDBRANCH   2  19
TORSDOF 10
ENDMDL
MODEL 2
REMARK VINA RESULT:      -8.0      3.518      4.468
REMARK  Name = 
REMARK  11 active torsions:
REMARK  status: ('A' for Active; 'I' for Inactive)
REMARK    1  A    between atoms: C_1  and  C_2
REMARK    2  A    between atoms: C_2  and  C_3
REMARK    3  A    between atoms: C_2  and  N_17
REMARK    4  A    between atoms: C_3  and  C_4
REMARK    5  A    between atoms: C_7  and  S_8
REMARK    6  A    between atoms: S_8  and  C_9
REMARK    7  A    between atoms: N_17  and  C_18
REMARK    8  A    between atoms: C_18  and  C_19
REMARK    9  A    between atoms: C_19  and  O_20
REMARK   10  A    between atoms: C_19  and  C_21
REMARK   11  A    between atoms: C_25  and  C_26
REMARK                            x       y       z     vdW  Elec       q    Type
REMARK                         _______ _______ _______ _____ _____    ______ ____
ROOT
ATOM      1  C   UNL     1       1.670   3.967  18.017  0.00  0.00    +0.000 C 
ATOM      2  C   UNL     1       2.961   4.796  18.085  0.00  0.00    +0.000 C 
ENDROOT
BRANCH   2   3
ATOM      3  N   UNL     1       4.156   3.936  18.039  0.00  0.00    +0.000 NA
ATOM      4  H   UNL     1       3.999   3.048  18.516  0.00  0.00    +0.000 HD
BRANCH   3   5
ATOM      5  C   UNL     1       4.656   3.687  16.680  0.00  0.00    +0.000 C 
BRANCH   5   6
ATOM      6  C   UNL     1       5.835   4.620  16.305  0.00  0.00    +0.000 C 
BRANCH   6   7
ATOM      7  C   UNL     1       6.191   4.515  14.831  0.00  0.00    +0.000 A 
ATOM      8  C   UNL     1       7.431   4.952  14.336  0.00  0.00    +0.000 A 
ATOM      9  C   UNL     1       7.747   4.826  12.983  0.00  0.00    +0.000 A 
ATOM     10  C   UNL     1       6.828   4.265  12.099  0.00  0.00    +0.000 A 
ATOM     11  C   UNL     1       5.580   3.824  12.560  0.00  0.00    +0.000 A 
ATOM     12  C   UNL     1       5.273   3.955  13.927  0.00  0.00    +0.000 A 
BRANCH  11  13
ATOM     13  C   UNL     1       4.575   3.212  11.615  0.00  0.00    +0.000 C 
ATOM     14  F   UNL     1       3.386   2.908  12.206  0.00  0.00    +0.000 F 
ATOM     15  F   UNL     1       4.272   4.036  10.573  0.00  0.00    +0.000 F 
ATOM     16  F   UNL     1       5.020   2.053  11.057  0.00  0.00    +0.000 F 
ENDBRANCH  11  13
ENDBRANCH   6   7
BRANCH   6  17
ATOM     17  O   UNL     1       6.988   4.294  17.092  0.00  0.00    +0.000 OA
ATOM     18  H   UNL     1       7.752   4.729  16.683  0.00  0.00    +0.000 HD
ENDBRANCH   6  17
ENDBRANCH   5   6
ENDBRANCH   3   5
ENDBRANCH   2   3
BRANCH   2  19
ATOM     19  C   UNL     1       2.921   5.655  19.381  0.00  0.00    +0.000 C 
BRANCH  19  20
ATOM     20  C   UNL     1       2.333   7.040  19.234  0.00  0.00    +0.000 A 
ATOM     21  C   UNL     1       2.417   7.740  18.023  0.00  0.00    +0.000 A 
ATOM     22  C   UNL     1       1.867   9.026  17.904  0.00  0.00    +0.000 A 
ATOM     23  C   UNL     1       1.236   9.628  18.996  0.00  0.00    +0.000 A 
ATOM     24  C   UNL     1       1.148   8.934  20.202  0.00  0.00    +0.000 A 
ATOM     25  C   UNL     1       1.686   7.647  20.318  0.00  0.00    +0.000 A 
BRANCH  23  26
ATOM     26  S   UNL     1       0.627  11.300  18.868  0.00  0.00    +0.000 S 
BRANCH  26  27
ATOM     27  C   UNL     1      -1.073  11.033  18.393  0.00  0.00    +0.000 A 
ATOM     28  C   UNL     1      -1.417   9.995  17.521  0.00  0.00    +0.000 A 
ATOM     29  C   UNL     1      -2.753   9.773  17.182  0.00  0.00    +0.000 A 
ATOM     30  C   UNL     1      -3.754  10.586  17.709  0.00  0.00    +0.000 A 
ATOM     31  C   UNL     1      -3.421  11.611  18.594  0.00  0.00    +0.000 A 
ATOM     32  C   UNL     1      -2.083  11.829  18.935  0.00  0.00    +0.000 A 
ENDBRANCH  26  27
ENDBRANCH  23  26
ENDBRANCH  19  20
ENDBRANCH   2  19
TORSDOF 10
ENDMDL
MODEL 3
REMARK VINA RESULT:      -7.9      1.181      1.770
REMARK  Name = 
REMARK  11 active torsions:
REMARK  status: ('A' for Active; 'I' for Inactive)
REMARK    1  A    between atoms: C_1  and  C_2
REMARK    2  A    between atoms: C_2  and  C_3
REMARK    3  A    between atoms: C_2  and  N_17
REMARK    4  A    between atoms: C_3  and  C_4
REMARK    5  A    between atoms: C_7  and  S_8
REMARK    6  A    between atoms: S_8  and  C_9
REMARK    7  A    between atoms: N_17  and  C_18
REMARK    8  A    between atoms: C_18  and  C_19
REMARK    9  A    between atoms: C_19  and  O_20
REMARK   10  A    between atoms: C_19  and  C_21
REMARK   11  A    between atoms: C_25  and  C_26
REMARK                            x       y       z     vdW  Elec       q    Type
REMARK                         _______ _______ _______ _____ _____    ______ ____
ROOT
ATOM      1  C   UNL     1       1.187   3.664  20.875  0.00  0.00    +0.000 C 
ATOM      2  C   UNL     1       1.450   4.257  19.482  0.00  0.00    +0.000 C 
ENDROOT
BRANCH   2   3
ATOM      3  N   UNL     1       1.772   3.206  18.501  0.00  0.00    +0.000 NA
ATOM      4  H   UNL     1       0.932   2.835  18.059  0.00  0.00    +0.000 HD
BRANCH   3   5
ATOM      5  C   UNL     1       2.729   3.631  17.471  0.00  0.00    +0.000 C 
BRANCH   5   6
ATOM      6  C   UNL     1       4.175   3.167  17.782  0.00  0.00    +0.000 C 
BRANCH   6   7
ATOM      7  C   UNL     1       5.205   3.974  17.009  0.00  0.00    +0.000 A 
ATOM      8  C   UNL     1       5.599   3.618  15.708  0.00  0.00    +0.000 A 
ATOM      9  C   UNL     1       6.530   4.385  15.006  0.00  0.00    +0.000 A 
ATOM     10  C   UNL     1       7.086   5.519  15.593  0.00  0.00    +0.000 A 
ATOM     11  C   UNL     1       6.718   5.899  16.890  0.00  0.00    +0.000 A 
ATOM     12  C   UNL     1       5.778   5.119  17.588  0.00  0.00    +0.000 A 
BRANCH  11  13
ATOM     13  C   UNL     1       7.311   7.126  17.538  0.00  0.00    +0.000 C 
ATOM     14  F   UNL     1       7.972   6.864  18.700  0.00  0.00    +0.000 F 
ATOM     15  F   UNL     1       8.211   7.757  16.733  0.00  0.00    +0.000 F 
ATOM     16  F   UNL     1       6.369   8.059  17.849  0.00  0.00    +0.000 F 
ENDBRANCH  11  13
ENDBRANCH   6   7
BRANCH   6  17
ATOM     17  O   UNL     1       4.325   1.779  17.459  0.00  0.00    +0.000 OA
ATOM     18  H   UNL     1       4.068   1.666  16.531  0.00  0.00    +0.000 HD
ENDBRANCH   6  17
ENDBRANCH   5   6
ENDBRANCH   3   5
ENDBRANCH   2   3
BRANCH   2  19
ATOM     19  C   UNL     1       2.597   5.300  19.606  0.00  0.00    +0.000 C 
BRANCH  19  20
ATOM     20  C   UNL     1       2.199   6.744  19.401  0.00  0.00    +0.000 A 
ATOM     21  C   UNL     1       2.423   7.392  18.179  0.00  0.00    +0.000 A 
ATOM     22  C   UNL     1       2.049   8.733  18.006  0.00  0.00    +0.000 A 
ATOM     23  C   UNL     1       1.455   9.443  19.054  0.00  0.00    +0.000 A 
ATOM     24  C   UNL     1       1.228   8.801  20.270  0.00  0.00    +0.000 A 
ATOM     25  C   UNL     1       1.591   7.460  20.440  0.00  0.00    +0.000 A 
BRANCH  23  26
ATOM     26  S   UNL     1       1.072  11.174  18.859  0.00  0.00    +0.000 S 
BRANCH  26  27
ATOM     27  C   UNL     1      -0.693  11.130  18.604  0.00  0.00    +0.000 A 
ATOM     28  C   UNL     1      -1.528  12.075  19.209  0.00  0.00    +0.000 A 
ATOM     29  C   UNL     1      -2.904  12.053  18.976  0.00  0.00    +0.000 A 
ATOM     30  C   UNL     1      -3.458  11.086  18.139  0.00  0.00    +0.000 A 
ATOM     31  C   UNL     1      -2.630  10.151  17.518  0.00  0.00    +0.000 A 
ATOM     32  C   UNL     1      -1.252  10.178  17.750  0.00  0.00    +0.000 A 
ENDBRANCH  26  27
ENDBRANCH  23  26
ENDBRANCH  19  20
ENDBRANCH   2  19
TORSDOF 10
ENDMDL
MODEL 4
REMARK VINA RESULT:      -7.9      1.163      1.537
REMARK  Name = 
REMARK  11 active torsions:
REMARK  status: ('A' for Active; 'I' for Inactive)
REMARK    1  A    between atoms: C_1  and  C_2
REMARK    2  A    between atoms: C_2  and  C_3
REMARK    3  A    between atoms: C_2  and  N_17
REMARK    4  A    between atoms: C_3  and  C_4
REMARK    5  A    between atoms: C_7  and  S_8
REMARK    6  A    between atoms: S_8  and  C_9
REMARK    7  A    between atoms: N_17  and  C_18
REMARK    8  A    between atoms: C_18  and  C_19
REMARK    9  A    between atoms: C_19  and  O_20
REMARK   10  A    between atoms: C_19  and  C_21
REMARK   11  A    between atoms: C_25  and  C_26
REMARK                            x       y       z     vdW  Elec       q    Type
REMARK                         _______ _______ _______ _____ _____    ______ ____
ROOT
ATOM      1  C   UNL     1       1.520   3.337  21.084  0.00  0.00    +0.000 C 
ATOM      2  C   UNL     1       1.367   4.464  20.051  0.00  0.00    +0.000 C 
ENDROOT
BRANCH   2   3
ATOM      3  N   UNL     1       1.556   3.967  18.678  0.00  0.00    +0.000 NA
ATOM      4  H   UNL     1       1.632   4.732  18.008  0.00  0.00    +0.000 HD
BRANCH   3   5
ATOM      5  C   UNL     1       2.704   3.061  18.529  0.00  0.00    +0.000 C 
BRANCH   5   6
ATOM      6  C   UNL     1       4.022   3.690  19.047  0.00  0.00    +0.000 C 
BRANCH   6   7
ATOM      7  C   UNL     1       4.796   4.375  17.934  0.00  0.00    +0.000 A 
ATOM      8  C   UNL     1       4.627   4.017  16.585  0.00  0.00    +0.000 A 
ATOM      9  C   UNL     1       5.331   4.673  15.575  0.00  0.00    +0.000 A 
ATOM     10  C   UNL     1       6.220   5.697  15.894  0.00  0.00    +0.000 A 
ATOM     11  C   UNL     1       6.415   6.076  17.230  0.00  0.00    +0.000 A 
ATOM     12  C   UNL     1       5.699   5.408  18.239  0.00  0.00    +0.000 A 
BRANCH  11  13
ATOM     13  C   UNL     1       7.373   7.185  17.590  0.00  0.00    +0.000 C 
ATOM     14  F   UNL     1       6.756   8.357  17.909  0.00  0.00    +0.000 F 
ATOM     15  F   UNL     1       8.151   6.872  18.664  0.00  0.00    +0.000 F 
ATOM     16  F   UNL     1       8.234   7.482  16.578  0.00  0.00    +0.000 F 
ENDBRANCH  11  13
ENDBRANCH   6   7
BRANCH   6  17
ATOM     17  O   UNL     1       4.847   2.679  19.642  0.00  0.00    +0.000 OA
ATOM     18  H   UNL     1       5.308   2.220  18.923  0.00  0.00    +0.000 HD
ENDBRANCH   6  17
ENDBRANCH   5   6
ENDBRANCH   3   5
ENDBRANCH   2   3
BRANCH   2  19
ATOM     19  C   UNL     1       2.384   5.587  20.402  0.00  0.00    +0.000 C 
BRANCH  19  20
ATOM     20  C   UNL     1       1.968   6.992  20.031  0.00  0.00    +0.000 A 
ATOM     21  C   UNL     1       1.178   7.766  20.891  0.00  0.00    +0.000 A 
ATOM     22  C   UNL     1       0.798   9.068  20.530  0.00  0.00    +0.000 A 
ATOM     23  C   UNL     1       1.196   9.606  19.302  0.00  0.00    +0.000 A 
ATOM     24  C   UNL     1       1.984   8.839  18.445  0.00  0.00    +0.000 A 
ATOM     25  C   UNL     1       2.372   7.545  18.809  0.00  0.00    +0.000 A 
BRANCH  23  26
ATOM     26  S   UNL     1       0.629  11.223  18.807  0.00  0.00    +0.000 S 
BRANCH  26  27
ATOM     27  C   UNL     1      -1.071  10.896  18.374  0.00  0.00    +0.000 A 
ATOM     28  C   UNL     1      -2.108  11.657  18.922  0.00  0.00    +0.000 A 
ATOM     29  C   UNL     1      -3.433  11.416  18.551  0.00  0.00    +0.000 A 
ATOM     30  C   UNL     1      -3.731  10.411  17.633  0.00  0.00    +0.000 A 
ATOM     31  C   UNL     1      -2.700   9.659  17.069  0.00  0.00    +0.000 A 
ATOM     32  C   UNL     1      -1.376   9.905  17.439  0.00  0.00    +0.000 A 
ENDBRANCH  26  27
ENDBRANCH  23  26
ENDBRANCH  19  20
ENDBRANCH   2  19
TORSDOF 10
ENDMDL
MODEL 5
REMARK VINA RESULT:      -7.8      2.780      4.274
REMARK  Name = 
REMARK  11 active torsions:
REMARK  status: ('A' for Active; 'I' for Inactive)
REMARK    1  A    between atoms: C_1  and  C_2
REMARK    2  A    between atoms: C_2  and  C_3
REMARK    3  A    between atoms: C_2  and  N_17
REMARK    4  A    between atoms: C_3  and  C_4
REMARK    5  A    between atoms: C_7  and  S_8
REMARK    6  A    between atoms: S_8  and  C_9
REMARK    7  A    between atoms: N_17  and  C_18
REMARK    8  A    between atoms: C_18  and  C_19
REMARK    9  A    between atoms: C_19  and  O_20
REMARK   10  A    between atoms: C_19  and  C_21
REMARK   11  A    between atoms: C_25  and  C_26
REMARK                            x       y       z     vdW  Elec       q    Type
REMARK                         _______ _______ _______ _____ _____    ______ ____
ROOT
ATOM      1  C   UNL     1       5.010   6.594  15.451  0.00  0.00    +0.000 C 
ATOM      2  C   UNL     1       4.723   7.163  16.849  0.00  0.00    +0.000 C 
ENDROOT
BRANCH   2   3
ATOM      3  N   UNL     1       5.787   6.807  17.804  0.00  0.00    +0.000 NA
ATOM      4  H   UNL     1       5.421   6.699  18.751  0.00  0.00    +0.000 HD
BRANCH   3   5
ATOM      5  C   UNL     1       6.546   5.607  17.426  0.00  0.00    +0.000 C 
BRANCH   5   6
ATOM      6  C   UNL     1       6.385   4.459  18.454  0.00  0.00    +0.000 C 
BRANCH   6   7
ATOM      7  C   UNL     1       4.960   3.932  18.492  0.00  0.00    +0.000 A 
ATOM      8  C   UNL     1       4.336   3.400  17.350  0.00  0.00    +0.000 A 
ATOM      9  C   UNL     1       3.035   2.901  17.411  0.00  0.00    +0.000 A 
ATOM     10  C   UNL     1       2.331   2.928  18.613  0.00  0.00    +0.000 A 
ATOM     11  C   UNL     1       2.922   3.456  19.769  0.00  0.00    +0.000 A 
ATOM     12  C   UNL     1       4.235   3.955  19.696  0.00  0.00    +0.000 A 
BRANCH  11  13
ATOM     13  C   UNL     1       2.173   3.489  21.078  0.00  0.00    +0.000 C 
ATOM     14  F   UNL     1       2.696   2.664  22.028  0.00  0.00    +0.000 F 
ATOM     15  F   UNL     1       2.155   4.732  21.636  0.00  0.00    +0.000 F 
ATOM     16  F   UNL     1       0.869   3.121  20.944  0.00  0.00    +0.000 F 
ENDBRANCH  11  13
ENDBRANCH   6   7
BRANCH   6  17
ATOM     17  O   UNL     1       6.752   4.916  19.762  0.00  0.00    +0.000 OA
ATOM     18  H   UNL     1       5.936   5.014  20.277  0.00  0.00    +0.000 HD
ENDBRANCH   6  17
ENDBRANCH   5   6
ENDBRANCH   3   5
ENDBRANCH   2   3
BRANCH   2  19
ATOM     19  C   UNL     1       3.334   6.639  17.312  0.00  0.00    +0.000 C 
BRANCH  19  20
ATOM     20  C   UNL     1       2.546   7.567  18.207  0.00  0.00    +0.000 A 
ATOM     21  C   UNL     1       2.026   8.775  17.723  0.00  0.00    +0.000 A 
ATOM     22  C   UNL     1       1.297   9.626  18.567  0.00  0.00    +0.000 A 
ATOM     23  C   UNL     1       1.089   9.284  19.907  0.00  0.00    +0.000 A 
ATOM     24  C   UNL     1       1.603   8.082  20.392  0.00  0.00    +0.000 A 
ATOM     25  C   UNL     1       2.320   7.228  19.547  0.00  0.00    +0.000 A 
BRANCH  23  26
ATOM     26  S   UNL     1       0.248  10.416  21.000  0.00  0.00    +0.000 S 
BRANCH  26  27
ATOM     27  C   UNL     1       0.502  11.977  20.173  0.00  0.00    +0.000 A 
ATOM     28  C   UNL     1       1.674  12.712  20.377  0.00  0.00    +0.000 A 
ATOM     29  C   UNL     1       1.878  13.916  19.700  0.00  0.00    +0.000 A 
ATOM     30  C   UNL     1       0.914  14.395  18.816  0.00  0.00    +0.000 A 
ATOM     31  C   UNL     1      -0.250  13.658  18.593  0.00  0.00    +0.000 A 
ATOM     32  C   UNL     1      -0.450  12.452  19.269  0.00  0.00    +0.000 A 
ENDBRANCH  26  27
ENDBRANCH  23  26
ENDBRANCH  19  20
ENDBRANCH   2  19
TORSDOF 10
ENDMDL
MODEL 6
REMARK VINA RESULT:      -7.7      4.871      9.234
REMARK  Name = 
REMARK  11 active torsions:
REMARK  status: ('A' for Active; 'I' for Inactive)
REMARK    1  A    between atoms: C_1  and  C_2
REMARK    2  A    between atoms: C_2  and  C_3
REMARK    3  A    between atoms: C_2  and  N_17
REMARK    4  A    between atoms: C_3  and  C_4
REMARK    5  A    between atoms: C_7  and  S_8
REMARK    6  A    between atoms: S_8  and  C_9
REMARK    7  A    between atoms: N_17  and  C_18
REMARK    8  A    between atoms: C_18  and  C_19
REMARK    9  A    between atoms: C_19  and  O_20
REMARK   10  A    between atoms: C_19  and  C_21
REMARK   11  A    between atoms: C_25  and  C_26
REMARK                            x       y       z     vdW  Elec       q    Type
REMARK                         _______ _______ _______ _____ _____    ______ ____
ROOT
ATOM      1  C   UNL     1      -0.130   9.765  22.999  0.00  0.00    +0.000 C 
ATOM      2  C   UNL     1       0.354  10.591  21.797  0.00  0.00    +0.000 C 
ENDROOT
BRANCH   2   3
ATOM      3  N   UNL     1      -0.117  11.984  21.877  0.00  0.00    +0.000 NA
ATOM      4  H   UNL     1       0.528  12.569  22.409  0.00  0.00    +0.000 HD
BRANCH   3   5
ATOM      5  C   UNL     1      -0.377  12.598  20.568  0.00  0.00    +0.000 C 
BRANCH   5   6
ATOM      6  C   UNL     1      -1.754  13.309  20.513  0.00  0.00    +0.000 C 
BRANCH   6   7
ATOM      7  C   UNL     1      -2.747  12.550  19.651  0.00  0.00    +0.000 A 
ATOM      8  C   UNL     1      -4.128  12.577  19.913  0.00  0.00    +0.000 A 
ATOM      9  C   UNL     1      -5.026  11.890  19.096  0.00  0.00    +0.000 A 
ATOM     10  C   UNL     1      -4.562  11.161  18.004  0.00  0.00    +0.000 A 
ATOM     11  C   UNL     1      -3.191  11.110  17.718  0.00  0.00    +0.000 A 
ATOM     12  C   UNL     1      -2.294  11.807  18.548  0.00  0.00    +0.000 A 
BRANCH  11  13
ATOM     13  C   UNL     1      -2.673  10.325  16.537  0.00  0.00    +0.000 C 
ATOM     14  F   UNL     1      -3.520   9.342  16.121  0.00  0.00    +0.000 F 
ATOM     15  F   UNL     1      -2.452  11.111  15.446  0.00  0.00    +0.000 F 
ATOM     16  F   UNL     1      -1.488   9.708  16.799  0.00  0.00    +0.000 F 
ENDBRANCH  11  13
ENDBRANCH   6   7
BRANCH   6  17
ATOM     17  O   UNL     1      -1.599  14.637  19.995  0.00  0.00    +0.000 OA
ATOM     18  H   UNL     1      -0.729  14.684  19.569  0.00  0.00    +0.000 HD
ENDBRANCH   6  17
ENDBRANCH   5   6
ENDBRANCH   3   5
ENDBRANCH   2   3
BRANCH   2  19
ATOM     19  C   UNL     1      -0.137   9.891  20.497  0.00  0.00    +0.000 C 
BRANCH  19  20
ATOM     20  C   UNL     1       0.898   9.072  19.761  0.00  0.00    +0.000 A 
ATOM     21  C   UNL     1       1.271   9.384  18.447  0.00  0.00    +0.000 A 
ATOM     22  C   UNL     1       2.232   8.611  17.777  0.00  0.00    +0.000 A 
ATOM     23  C   UNL     1       2.822   7.513  18.410  0.00  0.00    +0.000 A 
ATOM     24  C   UNL     1       2.455   7.201  19.718  0.00  0.00    +0.000 A 
ATOM     25  C   UNL     1       1.506   7.977  20.390  0.00  0.00    +0.000 A 
BRANCH  23  26
ATOM     26  S   UNL     1       3.969   6.477  17.519  0.00  0.00    +0.000 S 
BRANCH  26  27
ATOM     27  C   UNL     1       3.309   4.849  17.834  0.00  0.00    +0.000 A 
ATOM     28  C   UNL     1       1.930   4.617  17.799  0.00  0.00    +0.000 A 
ATOM     29  C   UNL     1       1.425   3.333  18.013  0.00  0.00    +0.000 A 
ATOM     30  C   UNL     1       2.292   2.272  18.265  0.00  0.00    +0.000 A 
ATOM     31  C   UNL     1       3.669   2.492  18.283  0.00  0.00    +0.000 A 
ATOM     32  C   UNL     1       4.172   3.777  18.065  0.00  0.00    +0.000 A 
ENDBRANCH  26  27
ENDBRANCH  23  26
ENDBRANCH  19  20
ENDBRANCH   2  19
TORSDOF 10
ENDMDL
MODEL 7
REMARK VINA RESULT:      -7.7      1.214      1.808
REMARK  Name = 
REMARK  11 active torsions:
REMARK  status: ('A' for Active; 'I' for Inactive)
REMARK    1  A    between atoms: C_1  and  C_2
REMARK    2  A    between atoms: C_2  and  C_3
REMARK    3  A    between atoms: C_2  and  N_17
REMARK    4  A    between atoms: C_3  and  C_4
REMARK    5  A    between atoms: C_7  and  S_8
REMARK    6  A    between atoms: S_8  and  C_9
REMARK    7  A    between atoms: N_17  and  C_18
REMARK    8  A    between atoms: C_18  and  C_19
REMARK    9  A    between atoms: C_19  and  O_20
REMARK   10  A    between atoms: C_19  and  C_21
REMARK   11  A    between atoms: C_25  and  C_26
REMARK                            x       y       z     vdW  Elec       q    Type
REMARK                         _______ _______ _______ _____ _____    ______ ____
ROOT
ATOM      1  C   UNL     1       1.583   3.740  20.720  0.00  0.00    +0.000 C 
ATOM      2  C   UNL     1       1.504   4.920  19.739  0.00  0.00    +0.000 C 
ENDROOT
BRANCH   2   3
ATOM      3  N   UNL     1       1.971   4.535  18.396  0.00  0.00    +0.000 NA
ATOM      4  H   UNL     1       2.632   5.215  18.019  0.00  0.00    +0.000 HD
BRANCH   3   5
ATOM      5  C   UNL     1       2.555   3.189  18.334  0.00  0.00    +0.000 C 
BRANCH   5   6
ATOM      6  C   UNL     1       4.058   3.180  18.715  0.00  0.00    +0.000 C 
BRANCH   6   7
ATOM      7  C   UNL     1       4.903   3.921  17.691  0.00  0.00    +0.000 A 
ATOM      8  C   UNL     1       4.972   3.508  16.350  0.00  0.00    +0.000 A 
ATOM      9  C   UNL     1       5.736   4.215  15.421  0.00  0.00    +0.000 A 
ATOM     10  C   UNL     1       6.447   5.345  15.816  0.00  0.00    +0.000 A 
ATOM     11  C   UNL     1       6.403   5.781  17.147  0.00  0.00    +0.000 A 
ATOM     12  C   UNL     1       5.629   5.061  18.075  0.00  0.00    +0.000 A 
BRANCH  11  13
ATOM     13  C   UNL     1       7.167   7.005  17.590  0.00  0.00    +0.000 C 
ATOM     14  F   UNL     1       6.383   8.107  17.757  0.00  0.00    +0.000 F 
ATOM     15  F   UNL     1       7.804   6.819  18.779  0.00  0.00    +0.000 F 
ATOM     16  F   UNL     1       8.133   7.368  16.701  0.00  0.00    +0.000 F 
ENDBRANCH  11  13
ENDBRANCH   6   7
BRANCH   6  17
ATOM     17  O   UNL     1       4.528   1.830  18.825  0.00  0.00    +0.000 OA
ATOM     18  H   UNL     1       3.960   1.277  18.267  0.00  0.00    +0.000 HD
ENDBRANCH   6  17
ENDBRANCH   5   6
ENDBRANCH   3   5
ENDBRANCH   2   3
BRANCH   2  19
ATOM     19  C   UNL     1       2.339   6.095  20.324  0.00  0.00    +0.000 C 
BRANCH  19  20
ATOM     20  C   UNL     1       1.859   7.483  19.969  0.00  0.00    +0.000 A 
ATOM     21  C   UNL     1       1.112   8.248  20.875  0.00  0.00    +0.000 A 
ATOM     22  C   UNL     1       0.673   9.535  20.528  0.00  0.00    +0.000 A 
ATOM     23  C   UNL     1       0.967  10.066  19.269  0.00  0.00    +0.000 A 
ATOM     24  C   UNL     1       1.711   9.310  18.365  0.00  0.00    +0.000 A 
ATOM     25  C   UNL     1       2.159   8.031  18.714  0.00  0.00    +0.000 A 
BRANCH  23  26
ATOM     26  S   UNL     1       0.321  11.662  18.797  0.00  0.00    +0.000 S 
BRANCH  26  27
ATOM     27  C   UNL     1      -1.358  11.257  18.349  0.00  0.00    +0.000 A 
ATOM     28  C   UNL     1      -1.629  10.215  17.456  0.00  0.00    +0.000 A 
ATOM     29  C   UNL     1      -2.947   9.884  17.138  0.00  0.00    +0.000 A 
ATOM     30  C   UNL     1      -4.004  10.592  17.706  0.00  0.00    +0.000 A 
ATOM     31  C   UNL     1      -3.742  11.621  18.611  0.00  0.00    +0.000 A 
ATOM     32  C   UNL     1      -2.422  11.948  18.931  0.00  0.00    +0.000 A 
ENDBRANCH  26  27
ENDBRANCH  23  26
ENDBRANCH  19  20
ENDBRANCH   2  19
TORSDOF 10
ENDMDL
MODEL 8
REMARK VINA RESULT:      -7.6      4.877      9.183
REMARK  Name = 
REMARK  11 active torsions:
REMARK  status: ('A' for Active; 'I' for Inactive)
REMARK    1  A    between atoms: C_1  and  C_2
REMARK    2  A    between atoms: C_2  and  C_3
REMARK    3  A    between atoms: C_2  and  N_17
REMARK    4  A    between atoms: C_3  and  C_4
REMARK    5  A    between atoms: C_7  and  S_8
REMARK    6  A    between atoms: S_8  and  C_9
REMARK    7  A    between atoms: N_17  and  C_18
REMARK    8  A    between atoms: C_18  and  C_19
REMARK    9  A    between atoms: C_19  and  O_20
REMARK   10  A    between atoms: C_19  and  C_21
REMARK   11  A    between atoms: C_25  and  C_26
REMARK                            x       y       z     vdW  Elec       q    Type
REMARK                         _______ _______ _______ _____ _____    ______ ____
ROOT
ATOM      1  C   UNL     1      -0.086   9.211  22.357  0.00  0.00    +0.000 C 
ATOM      2  C   UNL     1       0.927   9.974  21.491  0.00  0.00    +0.000 C 
ENDROOT
BRANCH   2   3
ATOM      3  N   UNL     1       0.872  11.424  21.747  0.00  0.00    +0.000 NA
ATOM      4  H   UNL     1       1.721  11.758  22.202  0.00  0.00    +0.000 HD
BRANCH   3   5
ATOM      5  C   UNL     1       0.602  12.228  20.548  0.00  0.00    +0.000 C 
BRANCH   5   6
ATOM      6  C   UNL     1      -0.660  13.115  20.704  0.00  0.00    +0.000 C 
BRANCH   6   7
ATOM      7  C   UNL     1      -1.840  12.560  19.925  0.00  0.00    +0.000 A 
ATOM      8  C   UNL     1      -3.167  12.852  20.283  0.00  0.00    +0.000 A 
ATOM      9  C   UNL     1      -4.237  12.350  19.540  0.00  0.00    +0.000 A 
ATOM     10  C   UNL     1      -3.999  11.545  18.429  0.00  0.00    +0.000 A 
ATOM     11  C   UNL     1      -2.688  11.231  18.047  0.00  0.00    +0.000 A 
ATOM     12  C   UNL     1      -1.617  11.744  18.803  0.00  0.00    +0.000 A 
BRANCH  11  13
ATOM     13  C   UNL     1      -2.415  10.362  16.844  0.00  0.00    +0.000 C 
ATOM     14  F   UNL     1      -2.371  11.053  15.671  0.00  0.00    +0.000 F 
ATOM     15  F   UNL     1      -1.224   9.707  16.934  0.00  0.00    +0.000 F 
ATOM     16  F   UNL     1      -3.360   9.397  16.672  0.00  0.00    +0.000 F 
ENDBRANCH  11  13
ENDBRANCH   6   7
BRANCH   6  17
ATOM     17  O   UNL     1      -0.382  14.448  20.253  0.00  0.00    +0.000 OA
ATOM     18  H   UNL     1       0.460  14.422  19.771  0.00  0.00    +0.000 HD
ENDBRANCH   6  17
ENDBRANCH   5   6
ENDBRANCH   3   5
ENDBRANCH   2   3
BRANCH   2  19
ATOM     19  C   UNL     1       0.638   9.642  19.999  0.00  0.00    +0.000 C 
BRANCH  19  20
ATOM     20  C   UNL     1       1.472   8.534  19.398  0.00  0.00    +0.000 A 
ATOM     21  C   UNL     1       1.841   7.413  20.153  0.00  0.00    +0.000 A 
ATOM     22  C   UNL     1       2.617   6.393  19.581  0.00  0.00    +0.000 A 
ATOM     23  C   UNL     1       3.039   6.488  18.252  0.00  0.00    +0.000 A 
ATOM     24  C   UNL     1       2.671   7.600  17.496  0.00  0.00    +0.000 A 
ATOM     25  C   UNL     1       1.889   8.612  18.063  0.00  0.00    +0.000 A 
BRANCH  23  26
ATOM     26  S   UNL     1       4.106   5.237  17.560  0.00  0.00    +0.000 S 
BRANCH  26  27
ATOM     27  C   UNL     1       5.724   5.888  17.939  0.00  0.00    +0.000 A 
ATOM     28  C   UNL     1       6.254   6.957  17.210  0.00  0.00    +0.000 A 
ATOM     29  C   UNL     1       7.506   7.482  17.536  0.00  0.00    +0.000 A 
ATOM     30  C   UNL     1       8.238   6.942  18.591  0.00  0.00    +0.000 A 
ATOM     31  C   UNL     1       7.709   5.887  19.335  0.00  0.00    +0.000 A 
ATOM     32  C   UNL     1       6.454   5.367  19.008  0.00  0.00    +0.000 A 
ENDBRANCH  26  27
ENDBRANCH  23  26
ENDBRANCH  19  20
ENDBRANCH   2  19
TORSDOF 10
ENDMDL
MODEL 9
REMARK VINA RESULT:      -7.6      2.472      3.556
REMARK  Name = 
REMARK  11 active torsions:
REMARK  status: ('A' for Active; 'I' for Inactive)
REMARK    1  A    between atoms: C_1  and  C_2
REMARK    2  A    between atoms: C_2  and  C_3
REMARK    3  A    between atoms: C_2  and  N_17
REMARK    4  A    between atoms: C_3  and  C_4
REMARK    5  A    between atoms: C_7  and  S_8
REMARK    6  A    between atoms: S_8  and  C_9
REMARK    7  A    between atoms: N_17  and  C_18
REMARK    8  A    between atoms: C_18  and  C_19
REMARK    9  A    between atoms: C_19  and  O_20
REMARK   10  A    between atoms: C_19  and  C_21
REMARK   11  A    between atoms: C_25  and  C_26
REMARK                            x       y       z     vdW  Elec       q    Type
REMARK                         _______ _______ _______ _____ _____    ______ ____
ROOT
ATOM      1  C   UNL     1       1.574   4.173  20.642  0.00  0.00    +0.000 C 
ATOM      2  C   UNL     1       1.793   5.119  19.452  0.00  0.00    +0.000 C 
ENDROOT
BRANCH   2   3
ATOM      3  N   UNL     1       2.483   4.438  18.343  0.00  0.00    +0.000 NA
ATOM      4  H   UNL     1       3.139   5.061  17.870  0.00  0.00    +0.000 HD
BRANCH   3   5
ATOM      5  C   UNL     1       3.171   3.203  18.741  0.00  0.00    +0.000 C 
BRANCH   5   6
ATOM      6  C   UNL     1       4.511   3.483  19.469  0.00  0.00    +0.000 C 
BRANCH   6   7
ATOM      7  C   UNL     1       5.454   4.313  18.614  0.00  0.00    +0.000 A 
ATOM      8  C   UNL     1       6.341   5.244  19.181  0.00  0.00    +0.000 A 
ATOM      9  C   UNL     1       7.215   5.981  18.380  0.00  0.00    +0.000 A 
ATOM     10  C   UNL     1       7.215   5.804  16.999  0.00  0.00    +0.000 A 
ATOM     11  C   UNL     1       6.339   4.887  16.402  0.00  0.00    +0.000 A 
ATOM     12  C   UNL     1       5.464   4.149  17.219  0.00  0.00    +0.000 A 
BRANCH  11  13
ATOM     13  C   UNL     1       6.329   4.682  14.906  0.00  0.00    +0.000 C 
ATOM     14  F   UNL     1       5.255   5.245  14.286  0.00  0.00    +0.000 F 
ATOM     15  F   UNL     1       7.427   5.215  14.301  0.00  0.00    +0.000 F 
ATOM     16  F   UNL     1       6.312   3.366  14.559  0.00  0.00    +0.000 F 
ENDBRANCH  11  13
ENDBRANCH   6   7
BRANCH   6  17
ATOM     17  O   UNL     1       5.151   2.247  19.812  0.00  0.00    +0.000 OA
ATOM     18  H   UNL     1       5.497   1.861  18.992  0.00  0.00    +0.000 HD
ENDBRANCH   6  17
ENDBRANCH   5   6
ENDBRANCH   3   5
ENDBRANCH   2   3
BRANCH   2  19
ATOM     19  C   UNL     1       2.591   6.356  19.954  0.00  0.00    +0.000 C 
BRANCH  19  20
ATOM     20  C   UNL     1       1.966   7.702  19.670  0.00  0.00    +0.000 A 
ATOM     21  C   UNL     1       2.148   8.341  18.437  0.00  0.00    +0.000 A 
ATOM     22  C   UNL     1       1.562   9.593  18.190  0.00  0.00    +0.000 A 
ATOM     23  C   UNL     1       0.796  10.221  19.176  0.00  0.00    +0.000 A 
ATOM     24  C   UNL     1       0.610   9.587  20.404  0.00  0.00    +0.000 A 
ATOM     25  C   UNL     1       1.185   8.335  20.647  0.00  0.00    +0.000 A 
BRANCH  23  26
ATOM     26  S   UNL     1       0.136  11.854  18.892  0.00  0.00    +0.000 S 
BRANCH  26  27
ATOM     27  C   UNL     1       1.567  12.880  19.181  0.00  0.00    +0.000 A 
ATOM     28  C   UNL     1       2.399  13.263  18.124  0.00  0.00    +0.000 A 
ATOM     29  C   UNL     1       3.497  14.094  18.356  0.00  0.00    +0.000 A 
ATOM     30  C   UNL     1       3.773  14.547  19.644  0.00  0.00    +0.000 A 
ATOM     31  C   UNL     1       2.938  14.185  20.701  0.00  0.00    +0.000 A 
ATOM     32  C   UNL     1       1.837  13.356  20.466  0.00  0.00    +0.000 A 
ENDBRANCH  26  27
ENDBRANCH  23  26
ENDBRANCH  19  20
ENDBRANCH   2  19
TORSDOF 10
ENDMDL
