MODEL 1
REMARK VINA RESULT:      -8.8      0.000      0.000
REMARK  Name = 
REMARK  12 active torsions:
REMARK  status: ('A' for Active; 'I' for Inactive)
REMARK    1  A    between atoms: C_1  and  C_2
REMARK    2  A    between atoms: C_2  and  C_3
REMARK    3  A    between atoms: C_4  and  C_5
REMARK    4  A    between atoms: C_5  and  C_6
REMARK    5  A    between atoms: C_6  and  O_7
REMARK    6  A    between atoms: C_6  and  C_13
REMARK    7  A    between atoms: O_7  and  C_8
REMARK    8  A    between atoms: C_8  and  C_10
REMARK    9  A    between atoms: C_10  and  C_11
REMARK   10  A    between atoms: C_10  and  C_12
REMARK   11  A    between atoms: C_18  and  O_19
REMARK   12  A    between atoms: C_22  and  O_23
REMARK                            x       y       z     vdW  Elec       q    Type
REMARK                         _______ _______ _______ _____ _____    ______ ____
ROOT
ATOM      1  C   UNL     1       4.655   4.505  16.744  0.00  0.00    +0.000 C 
ATOM      2  C   UNL     1       4.381   3.209  16.946  0.00  0.00    +0.000 C 
ATOM      3  C   UNL     1       3.463   2.750  18.002  0.00  0.00    +0.000 C 
ATOM      4  O   UNL     1       3.262   1.553  18.175  0.00  0.00    +0.000 OA
ATOM      5  C   UNL     1       2.811   3.758  18.854  0.00  0.00    +0.000 A 
ATOM      6  C   UNL     1       1.946   3.351  19.879  0.00  0.00    +0.000 A 
ATOM      7  C   UNL     1       1.311   4.285  20.692  0.00  0.00    +0.000 A 
ATOM      8  C   UNL     1       1.542   5.643  20.492  0.00  0.00    +0.000 A 
ATOM      9  C   UNL     1       2.407   6.057  19.478  0.00  0.00    +0.000 A 
ATOM     10  C   UNL     1       3.051   5.124  18.645  0.00  0.00    +0.000 A 
ATOM     11  C   UNL     1       3.979   5.547  17.563  0.00  0.00    +0.000 C 
ATOM     12  O   UNL     1       4.212   6.727  17.330  0.00  0.00    +0.000 OA
ENDROOT
BRANCH   6  13
ATOM     13  O   UNL     1       1.668   2.038  20.155  0.00  0.00    +0.000 OA
ATOM     14  H   UNL     1       0.847   1.782  19.675  0.00  0.00    +0.000 HD
ENDBRANCH   6  13
BRANCH   9  15
ATOM     15  O   UNL     1       2.618   7.398  19.320  0.00  0.00    +0.000 OA
ATOM     16  H   UNL     1       1.799   7.898  19.468  0.00  0.00    +0.000 HD
ENDBRANCH   9  15
BRANCH   1  17
ATOM     17  C   UNL     1       5.671   5.030  15.737  0.00  0.00    +0.000 C 
BRANCH  17  18
ATOM     18  C   UNL     1       7.093   4.499  16.066  0.00  0.00    +0.000 C 
BRANCH  18  22
ATOM     19  C   UNL     1       7.718   5.784  19.699  0.00  0.00    +0.000 C 
ATOM     20  C   UNL     1       7.595   5.798  18.201  0.00  0.00    +0.000 C 
ATOM     21  C   UNL     1       7.642   7.133  17.510  0.00  0.00    +0.000 C 
ATOM     22  C   UNL     1       7.433   4.640  17.534  0.00  0.00    +0.000 C 
ENDBRANCH  18  22
ENDBRANCH  17  18
BRANCH  17  23
ATOM     23  O   UNL     1       5.283   4.651  14.392  0.00  0.00    +0.000 OA
BRANCH  23  24
ATOM     24  C   UNL     1       6.323   4.475  13.524  0.00  0.00    +0.000 C 
ATOM     25  O   UNL     1       7.289   5.220  13.427  0.00  0.00    +0.000 OA
BRANCH  24  26
ATOM     26  C   UNL     1       6.088   3.265  12.642  0.00  0.00    +0.000 C 
ATOM     27  C   UNL     1       4.759   3.459  11.923  0.00  0.00    +0.000 C 
ATOM     28  C   UNL     1       7.233   3.094  11.647  0.00  0.00    +0.000 C 
ENDBRANCH  24  26
ENDBRANCH  23  24
ENDBRANCH  17  23
ENDBRANCH   1  17
TORSDOF 8
ENDMDL
MODEL 2
REMARK VINA RESULT:      -8.5      1.864      4.452
REMARK  Name = 
REMARK  12 active torsions:
REMARK  status: ('A' for Active; 'I' for Inactive)
REMARK    1  A    between atoms: C_1  and  C_2
REMARK    2  A    between atoms: C_2  and  C_3
REMARK    3  A    between atoms: C_4  and  C_5
REMARK    4  A    between atoms: C_5  and  C_6
REMARK    5  A    between atoms: C_6  and  O_7
REMARK    6  A    between atoms: C_6  and  C_13
REMARK    7  A    between atoms: O_7  and  C_8
REMARK    8  A    between atoms: C_8  and  C_10
REMARK    9  A    between atoms: C_10  and  C_11
REMARK   10  A    between atoms: C_10  and  C_12
REMARK   11  A    between atoms: C_18  and  O_19
REMARK   12  A    between atoms: C_22  and  O_23
REMARK                            x       y       z     vdW  Elec       q    Type
REMARK                         _______ _______ _______ _____ _____    ______ ____
ROOT
ATOM      1  C   UNL     1       4.253   3.846  17.207  0.00  0.00    +0.000 C 
ATOM      2  C   UNL     1       2.987   4.111  16.858  0.00  0.00    +0.000 C 
ATOM      3  C   UNL     1       1.849   3.862  17.758  0.00  0.00    +0.000 C 
ATOM      4  O   UNL     1       0.702   4.089  17.390  0.00  0.00    +0.000 OA
ATOM      5  C   UNL     1       2.120   3.317  19.099  0.00  0.00    +0.000 A 
ATOM      6  C   UNL     1       1.056   3.052  19.972  0.00  0.00    +0.000 A 
ATOM      7  C   UNL     1       1.286   2.545  21.248  0.00  0.00    +0.000 A 
ATOM      8  C   UNL     1       2.591   2.289  21.662  0.00  0.00    +0.000 A 
ATOM      9  C   UNL     1       3.655   2.543  20.796  0.00  0.00    +0.000 A 
ATOM     10  C   UNL     1       3.437   3.061  19.506  0.00  0.00    +0.000 A 
ATOM     11  C   UNL     1       4.559   3.334  18.570  0.00  0.00    +0.000 C 
ATOM     12  O   UNL     1       5.729   3.141  18.882  0.00  0.00    +0.000 OA
ENDROOT
BRANCH   6  13
ATOM     13  O   UNL     1      -0.258   3.264  19.647  0.00  0.00    +0.000 OA
ATOM     14  H   UNL     1      -0.313   3.497  18.692  0.00  0.00    +0.000 HD
ENDBRANCH   6  13
BRANCH   9  15
ATOM     15  O   UNL     1       4.920   2.267  21.234  0.00  0.00    +0.000 OA
ATOM     16  H   UNL     1       4.941   1.436  21.735  0.00  0.00    +0.000 HD
ENDBRANCH   9  15
BRANCH   1  17
ATOM     17  C   UNL     1       5.456   3.988  16.283  0.00  0.00    +0.000 C 
BRANCH  17  18
ATOM     18  C   UNL     1       5.043   3.748  14.805  0.00  0.00    +0.000 C 
BRANCH  18  22
ATOM     19  C   UNL     1       7.348   4.104  11.675  0.00  0.00    +0.000 C 
ATOM     20  C   UNL     1       6.171   3.705  12.519  0.00  0.00    +0.000 C 
ATOM     21  C   UNL     1       4.980   3.112  11.819  0.00  0.00    +0.000 C 
ATOM     22  C   UNL     1       6.208   3.902  13.850  0.00  0.00    +0.000 C 
ENDBRANCH  18  22
ENDBRANCH  17  18
BRANCH  17  23
ATOM     23  O   UNL     1       6.053   5.301  16.438  0.00  0.00    +0.000 OA
BRANCH  23  24
ATOM     24  C   UNL     1       7.230   5.316  17.130  0.00  0.00    +0.000 C 
ATOM     25  O   UNL     1       8.155   4.533  16.959  0.00  0.00    +0.000 OA
BRANCH  24  26
ATOM     26  C   UNL     1       7.213   6.394  18.196  0.00  0.00    +0.000 C 
ATOM     27  C   UNL     1       8.019   5.892  19.386  0.00  0.00    +0.000 C 
ATOM     28  C   UNL     1       7.789   7.699  17.650  0.00  0.00    +0.000 C 
ENDBRANCH  24  26
ENDBRANCH  23  24
ENDBRANCH  17  23
ENDBRANCH   1  17
TORSDOF 8
ENDMDL
MODEL 3
REMARK VINA RESULT:      -8.5      1.784      4.368
REMARK  Name = 
REMARK  12 active torsions:
REMARK  status: ('A' for Active; 'I' for Inactive)
REMARK    1  A    between atoms: C_1  and  C_2
REMARK    2  A    between atoms: C_2  and  C_3
REMARK    3  A    between atoms: C_4  and  C_5
REMARK    4  A    between atoms: C_5  and  C_6
REMARK    5  A    between atoms: C_6  and  O_7
REMARK    6  A    between atoms: C_6  and  C_13
REMARK    7  A    between atoms: O_7  and  C_8
REMARK    8  A    between atoms: C_8  and  C_10
REMARK    9  A    between atoms: C_10  and  C_11
REMARK   10  A    between atoms: C_10  and  C_12
REMARK   11  A    between atoms: C_18  and  O_19
REMARK   12  A    between atoms: C_22  and  O_23
REMARK                            x       y       z     vdW  Elec       q    Type
REMARK                         _______ _______ _______ _____ _____    ______ ____
ROOT
ATOM      1  C   UNL     1       4.439   4.198  17.325  0.00  0.00    +0.000 C 
ATOM      2  C   UNL     1       3.180   4.407  16.918  0.00  0.00    +0.000 C 
ATOM      3  C   UNL     1       2.012   4.013  17.724  0.00  0.00    +0.000 C 
ATOM      4  O   UNL     1       0.875   4.193  17.302  0.00  0.00    +0.000 OA
ATOM      5  C   UNL     1       2.242   3.382  19.033  0.00  0.00    +0.000 A 
ATOM      6  C   UNL     1       1.151   2.980  19.816  0.00  0.00    +0.000 A 
ATOM      7  C   UNL     1       1.342   2.390  21.062  0.00  0.00    +0.000 A 
ATOM      8  C   UNL     1       2.636   2.188  21.537  0.00  0.00    +0.000 A 
ATOM      9  C   UNL     1       3.728   2.578  20.761  0.00  0.00    +0.000 A 
ATOM     10  C   UNL     1       3.549   3.182  19.503  0.00  0.00    +0.000 A 
ATOM     11  C   UNL     1       4.701   3.600  18.662  0.00  0.00    +0.000 C 
ATOM     12  O   UNL     1       5.861   3.460  19.031  0.00  0.00    +0.000 OA
ENDROOT
BRANCH   6  13
ATOM     13  O   UNL     1      -0.154   3.131  19.426  0.00  0.00    +0.000 OA
ATOM     14  H   UNL     1      -0.209   2.991  18.453  0.00  0.00    +0.000 HD
ENDBRANCH   6  13
BRANCH   9  15
ATOM     15  O   UNL     1       4.981   2.351  21.256  0.00  0.00    +0.000 OA
ATOM     16  H   UNL     1       5.571   2.011  20.565  0.00  0.00    +0.000 HD
ENDBRANCH   9  15
BRANCH   1  17
ATOM     17  C   UNL     1       5.681   4.491  16.491  0.00  0.00    +0.000 C 
BRANCH  17  18
ATOM     18  C   UNL     1       5.718   3.588  15.228  0.00  0.00    +0.000 C 
BRANCH  18  22
ATOM     19  C   UNL     1       7.402   4.766  11.909  0.00  0.00    +0.000 C 
ATOM     20  C   UNL     1       6.499   4.003  12.838  0.00  0.00    +0.000 C 
ATOM     21  C   UNL     1       5.431   3.143  12.221  0.00  0.00    +0.000 C 
ATOM     22  C   UNL     1       6.659   4.121  14.169  0.00  0.00    +0.000 C 
ENDBRANCH  18  22
ENDBRANCH  17  18
BRANCH  17  23
ATOM     23  O   UNL     1       5.713   5.892  16.118  0.00  0.00    +0.000 OA
BRANCH  23  24
ATOM     24  C   UNL     1       5.928   6.755  17.154  0.00  0.00    +0.000 C 
ATOM     25  O   UNL     1       5.058   7.403  17.720  0.00  0.00    +0.000 OA
BRANCH  24  26
ATOM     26  C   UNL     1       7.408   6.859  17.468  0.00  0.00    +0.000 C 
ATOM     27  C   UNL     1       7.764   8.337  17.571  0.00  0.00    +0.000 C 
ATOM     28  C   UNL     1       7.736   6.121  18.765  0.00  0.00    +0.000 C 
ENDBRANCH  24  26
ENDBRANCH  23  24
ENDBRANCH  17  23
ENDBRANCH   1  17
TORSDOF 8
ENDMDL
MODEL 4
REMARK VINA RESULT:      -8.4      1.514      4.791
REMARK  Name = 
REMARK  12 active torsions:
REMARK  status: ('A' for Active; 'I' for Inactive)
REMARK    1  A    between atoms: C_1  and  C_2
REMARK    2  A    between atoms: C_2  and  C_3
REMARK    3  A    between atoms: C_4  and  C_5
REMARK    4  A    between atoms: C_5  and  C_6
REMARK    5  A    between atoms: C_6  and  O_7
REMARK    6  A    between atoms: C_6  and  C_13
REMARK    7  A    between atoms: O_7  and  C_8
REMARK    8  A    between atoms: C_8  and  C_10
REMARK    9  A    between atoms: C_10  and  C_11
REMARK   10  A    between atoms: C_10  and  C_12
REMARK   11  A    between atoms: C_18  and  O_19
REMARK   12  A    between atoms: C_22  and  O_23
REMARK                            x       y       z     vdW  Elec       q    Type
REMARK                         _______ _______ _______ _____ _____    ______ ____
ROOT
ATOM      1  C   UNL     1       4.883   5.289  17.048  0.00  0.00    +0.000 C 
ATOM      2  C   UNL     1       4.477   6.553  16.872  0.00  0.00    +0.000 C 
ATOM      3  C   UNL     1       3.483   7.195  17.748  0.00  0.00    +0.000 C 
ATOM      4  O   UNL     1       3.114   8.345  17.535  0.00  0.00    +0.000 OA
ATOM      5  C   UNL     1       2.927   6.418  18.868  0.00  0.00    +0.000 A 
ATOM      6  C   UNL     1       1.966   6.996  19.709  0.00  0.00    +0.000 A 
ATOM      7  C   UNL     1       1.433   6.285  20.781  0.00  0.00    +0.000 A 
ATOM      8  C   UNL     1       1.854   4.980  21.019  0.00  0.00    +0.000 A 
ATOM      9  C   UNL     1       2.806   4.395  20.183  0.00  0.00    +0.000 A 
ATOM     10  C   UNL     1       3.357   5.103  19.100  0.00  0.00    +0.000 A 
ATOM     11  C   UNL     1       4.370   4.495  18.197  0.00  0.00    +0.000 C 
ATOM     12  O   UNL     1       4.788   3.355  18.364  0.00  0.00    +0.000 OA
ENDROOT
BRANCH   6  13
ATOM     13  O   UNL     1       1.486   8.269  19.544  0.00  0.00    +0.000 OA
ATOM     14  H   UNL     1       1.615   8.765  20.384  0.00  0.00    +0.000 HD
ENDBRANCH   6  13
BRANCH   9  15
ATOM     15  O   UNL     1       3.184   3.108  20.442  0.00  0.00    +0.000 OA
ATOM     16  H   UNL     1       4.116   3.067  20.710  0.00  0.00    +0.000 HD
ENDBRANCH   9  15
BRANCH   1  17
ATOM     17  C   UNL     1       5.830   4.543  16.116  0.00  0.00    +0.000 C 
BRANCH  17  18
ATOM     18  C   UNL     1       5.319   4.607  14.651  0.00  0.00    +0.000 C 
BRANCH  18  22
ATOM     19  C   UNL     1       6.965   2.906  11.546  0.00  0.00    +0.000 C 
ATOM     20  C   UNL     1       5.897   3.432  12.464  0.00  0.00    +0.000 C 
ATOM     21  C   UNL     1       4.486   3.461  11.946  0.00  0.00    +0.000 C 
ATOM     22  C   UNL     1       6.229   3.868  13.693  0.00  0.00    +0.000 C 
ENDBRANCH  18  22
ENDBRANCH  17  18
BRANCH  17  23
ATOM     23  O   UNL     1       7.166   5.096  16.216  0.00  0.00    +0.000 OA
BRANCH  23  24
ATOM     24  C   UNL     1       7.768   4.925  17.430  0.00  0.00    +0.000 C 
ATOM     25  O   UNL     1       8.446   3.957  17.747  0.00  0.00    +0.000 OA
BRANCH  24  26
ATOM     26  C   UNL     1       7.425   6.068  18.364  0.00  0.00    +0.000 C 
ATOM     27  C   UNL     1       8.096   5.797  19.705  0.00  0.00    +0.000 C 
ATOM     28  C   UNL     1       7.886   7.401  17.777  0.00  0.00    +0.000 C 
ENDBRANCH  24  26
ENDBRANCH  23  24
ENDBRANCH  17  23
ENDBRANCH   1  17
TORSDOF 8
ENDMDL
MODEL 5
REMARK VINA RESULT:      -8.3      1.396      4.552
REMARK  Name = 
REMARK  12 active torsions:
REMARK  status: ('A' for Active; 'I' for Inactive)
REMARK    1  A    between atoms: C_1  and  C_2
REMARK    2  A    between atoms: C_2  and  C_3
REMARK    3  A    between atoms: C_4  and  C_5
REMARK    4  A    between atoms: C_5  and  C_6
REMARK    5  A    between atoms: C_6  and  O_7
REMARK    6  A    between atoms: C_6  and  C_13
REMARK    7  A    between atoms: O_7  and  C_8
REMARK    8  A    between atoms: C_8  and  C_10
REMARK    9  A    between atoms: C_10  and  C_11
REMARK   10  A    between atoms: C_10  and  C_12
REMARK   11  A    between atoms: C_18  and  O_19
REMARK   12  A    between atoms: C_22  and  O_23
REMARK                            x       y       z     vdW  Elec       q    Type
REMARK                         _______ _______ _______ _____ _____    ______ ____
ROOT
ATOM      1  C   UNL     1       4.726   4.935  17.192  0.00  0.00    +0.000 C 
ATOM      2  C   UNL     1       4.296   6.076  17.745  0.00  0.00    +0.000 C 
ATOM      3  C   UNL     1       3.215   6.114  18.743  0.00  0.00    +0.000 C 
ATOM      4  O   UNL     1       2.828   7.182  19.203  0.00  0.00    +0.000 OA
ATOM      5  C   UNL     1       2.597   4.844  19.159  0.00  0.00    +0.000 A 
ATOM      6  C   UNL     1       1.553   4.848  20.095  0.00  0.00    +0.000 A 
ATOM      7  C   UNL     1       0.960   3.660  20.511  0.00  0.00    +0.000 A 
ATOM      8  C   UNL     1       1.402   2.449  19.986  0.00  0.00    +0.000 A 
ATOM      9  C   UNL     1       2.436   2.436  19.049  0.00  0.00    +0.000 A 
ATOM     10  C   UNL     1       3.049   3.628  18.624  0.00  0.00    +0.000 A 
ATOM     11  C   UNL     1       4.149   3.633  17.624  0.00  0.00    +0.000 C 
ATOM     12  O   UNL     1       4.590   2.598  17.137  0.00  0.00    +0.000 OA
ENDROOT
BRANCH   6  13
ATOM     13  O   UNL     1       1.048   5.992  20.655  0.00  0.00    +0.000 OA
ATOM     14  H   UNL     1       0.468   6.436  19.996  0.00  0.00    +0.000 HD
ENDBRANCH   6  13
BRANCH   9  15
ATOM     15  O   UNL     1       2.834   1.228  18.548  0.00  0.00    +0.000 OA
ATOM     16  H   UNL     1       2.135   0.562  18.651  0.00  0.00    +0.000 HD
ENDBRANCH   9  15
BRANCH   1  17
ATOM     17  C   UNL     1       5.769   4.845  16.084  0.00  0.00    +0.000 C 
BRANCH  17  18
ATOM     18  C   UNL     1       5.151   5.251  14.718  0.00  0.00    +0.000 C 
BRANCH  18  22
ATOM     19  C   UNL     1       6.371   2.685  12.040  0.00  0.00    +0.000 C 
ATOM     20  C   UNL     1       6.307   3.943  12.859  0.00  0.00    +0.000 C 
ATOM     21  C   UNL     1       7.440   4.921  12.725  0.00  0.00    +0.000 C 
ATOM     22  C   UNL     1       5.264   4.148  13.686  0.00  0.00    +0.000 C 
ENDBRANCH  18  22
ENDBRANCH  17  18
BRANCH  17  23
ATOM     23  O   UNL     1       6.906   5.687  16.399  0.00  0.00    +0.000 OA
BRANCH  23  24
ATOM     24  C   UNL     1       7.767   5.164  17.322  0.00  0.00    +0.000 C 
ATOM     25  O   UNL     1       8.200   4.020  17.308  0.00  0.00    +0.000 OA
BRANCH  24  26
ATOM     26  C   UNL     1       8.062   6.174  18.413  0.00  0.00    +0.000 C 
ATOM     27  C   UNL     1       7.641   7.548  17.909  0.00  0.00    +0.000 C 
ATOM     28  C   UNL     1       7.322   5.808  19.699  0.00  0.00    +0.000 C 
ENDBRANCH  24  26
ENDBRANCH  23  24
ENDBRANCH  17  23
ENDBRANCH   1  17
TORSDOF 8
ENDMDL
MODEL 6
REMARK VINA RESULT:      -8.3      1.347      4.746
REMARK  Name = 
REMARK  12 active torsions:
REMARK  status: ('A' for Active; 'I' for Inactive)
REMARK    1  A    between atoms: C_1  and  C_2
REMARK    2  A    between atoms: C_2  and  C_3
REMARK    3  A    between atoms: C_4  and  C_5
REMARK    4  A    between atoms: C_5  and  C_6
REMARK    5  A    between atoms: C_6  and  O_7
REMARK    6  A    between atoms: C_6  and  C_13
REMARK    7  A    between atoms: O_7  and  C_8
REMARK    8  A    between atoms: C_8  and  C_10
REMARK    9  A    between atoms: C_10  and  C_11
REMARK   10  A    between atoms: C_10  and  C_12
REMARK   11  A    between atoms: C_18  and  O_19
REMARK   12  A    between atoms: C_22  and  O_23
REMARK                            x       y       z     vdW  Elec       q    Type
REMARK                         _______ _______ _______ _____ _____    ______ ____
ROOT
ATOM      1  C   UNL     1       4.826   4.607  17.132  0.00  0.00    +0.000 C 
ATOM      2  C   UNL     1       4.450   5.835  17.514  0.00  0.00    +0.000 C 
ATOM      3  C   UNL     1       3.329   6.067  18.439  0.00  0.00    +0.000 C 
ATOM      4  O   UNL     1       2.996   7.208  18.740  0.00  0.00    +0.000 OA
ATOM      5  C   UNL     1       2.607   4.902  18.975  0.00  0.00    +0.000 A 
ATOM      6  C   UNL     1       1.523   5.091  19.844  0.00  0.00    +0.000 A 
ATOM      7  C   UNL     1       0.831   4.005  20.372  0.00  0.00    +0.000 A 
ATOM      8  C   UNL     1       1.213   2.711  20.027  0.00  0.00    +0.000 A 
ATOM      9  C   UNL     1       2.285   2.514  19.157  0.00  0.00    +0.000 A 
ATOM     10  C   UNL     1       2.998   3.602  18.621  0.00  0.00    +0.000 A 
ATOM     11  C   UNL     1       4.141   3.410  17.690  0.00  0.00    +0.000 C 
ATOM     12  O   UNL     1       4.532   2.296  17.360  0.00  0.00    +0.000 OA
ENDROOT
BRANCH   6  13
ATOM     13  O   UNL     1       1.073   6.326  20.230  0.00  0.00    +0.000 OA
ATOM     14  H   UNL     1       1.698   6.697  20.893  0.00  0.00    +0.000 HD
ENDBRANCH   6  13
BRANCH   9  15
ATOM     15  O   UNL     1       2.622   1.230  18.833  0.00  0.00    +0.000 OA
ATOM     16  H   UNL     1       3.566   1.069  18.987  0.00  0.00    +0.000 HD
ENDBRANCH   9  15
BRANCH   1  17
ATOM     17  C   UNL     1       5.910   4.312  16.102  0.00  0.00    +0.000 C 
BRANCH  17  18
ATOM     18  C   UNL     1       5.350   4.461  14.661  0.00  0.00    +0.000 C 
BRANCH  18  22
ATOM     19  C   UNL     1       6.900   2.957  11.408  0.00  0.00    +0.000 C 
ATOM     20  C   UNL     1       5.860   3.406  12.396  0.00  0.00    +0.000 C 
ATOM     21  C   UNL     1       4.427   3.416  11.944  0.00  0.00    +0.000 C 
ATOM     22  C   UNL     1       6.236   3.795  13.629  0.00  0.00    +0.000 C 
ENDBRANCH  18  22
ENDBRANCH  17  18
BRANCH  17  23
ATOM     23  O   UNL     1       7.043   5.194  16.302  0.00  0.00    +0.000 OA
BRANCH  23  24
ATOM     24  C   UNL     1       7.717   5.002  17.475  0.00  0.00    +0.000 C 
ATOM     25  O   UNL     1       8.400   4.023  17.739  0.00  0.00    +0.000 OA
BRANCH  24  26
ATOM     26  C   UNL     1       7.448   6.139  18.441  0.00  0.00    +0.000 C 
ATOM     27  C   UNL     1       8.208   5.851  19.729  0.00  0.00    +0.000 C 
ATOM     28  C   UNL     1       7.876   7.474  17.834  0.00  0.00    +0.000 C 
ENDBRANCH  24  26
ENDBRANCH  23  24
ENDBRANCH  17  23
ENDBRANCH   1  17
TORSDOF 8
ENDMDL
MODEL 7
REMARK VINA RESULT:      -8.2      1.464      4.209
REMARK  Name = 
REMARK  12 active torsions:
REMARK  status: ('A' for Active; 'I' for Inactive)
REMARK    1  A    between atoms: C_1  and  C_2
REMARK    2  A    between atoms: C_2  and  C_3
REMARK    3  A    between atoms: C_4  and  C_5
REMARK    4  A    between atoms: C_5  and  C_6
REMARK    5  A    between atoms: C_6  and  O_7
REMARK    6  A    between atoms: C_6  and  C_13
REMARK    7  A    between atoms: O_7  and  C_8
REMARK    8  A    between atoms: C_8  and  C_10
REMARK    9  A    between atoms: C_10  and  C_11
REMARK   10  A    between atoms: C_10  and  C_12
REMARK   11  A    between atoms: C_18  and  O_19
REMARK   12  A    between atoms: C_22  and  O_23
REMARK                            x       y       z     vdW  Elec       q    Type
REMARK                         _______ _______ _______ _____ _____    ______ ____
ROOT
ATOM      1  C   UNL     1       4.853   4.342  17.240  0.00  0.00    +0.000 C 
ATOM      2  C   UNL     1       4.438   3.372  18.066  0.00  0.00    +0.000 C 
ATOM      3  C   UNL     1       3.464   3.613  19.143  0.00  0.00    +0.000 C 
ATOM      4  O   UNL     1       3.133   2.706  19.898  0.00  0.00    +0.000 OA
ATOM      5  C   UNL     1       2.914   4.969  19.303  0.00  0.00    +0.000 A 
ATOM      6  C   UNL     1       1.997   5.234  20.330  0.00  0.00    +0.000 A 
ATOM      7  C   UNL     1       1.456   6.505  20.496  0.00  0.00    +0.000 A 
ATOM      8  C   UNL     1       1.834   7.532  19.636  0.00  0.00    +0.000 A 
ATOM      9  C   UNL     1       2.751   7.279  18.615  0.00  0.00    +0.000 A 
ATOM     10  C   UNL     1       3.302   5.997  18.432  0.00  0.00    +0.000 A 
ATOM     11  C   UNL     1       4.282   5.711  17.352  0.00  0.00    +0.000 C 
ATOM     12  O   UNL     1       4.644   6.571  16.557  0.00  0.00    +0.000 OA
ENDROOT
BRANCH   6  13
ATOM     13  O   UNL     1       1.576   4.288  21.228  0.00  0.00    +0.000 OA
ATOM     14  H   UNL     1       0.727   3.907  20.909  0.00  0.00    +0.000 HD
ENDBRANCH   6  13
BRANCH   9  15
ATOM     15  O   UNL     1       3.107   8.316  17.800  0.00  0.00    +0.000 OA
ATOM     16  H   UNL     1       4.072   8.394  17.737  0.00  0.00    +0.000 HD
ENDBRANCH   9  15
BRANCH   1  17
ATOM     17  C   UNL     1       5.931   4.174  16.176  0.00  0.00    +0.000 C 
BRANCH  17  18
ATOM     18  C   UNL     1       5.322   4.308  14.753  0.00  0.00    +0.000 C 
BRANCH  18  22
ATOM     19  C   UNL     1       6.979   3.179  11.404  0.00  0.00    +0.000 C 
ATOM     20  C   UNL     1       5.910   3.464  12.421  0.00  0.00    +0.000 C 
ATOM     21  C   UNL     1       4.479   3.377  11.970  0.00  0.00    +0.000 C 
ATOM     22  C   UNL     1       6.257   3.798  13.678  0.00  0.00    +0.000 C 
ENDBRANCH  18  22
ENDBRANCH  17  18
BRANCH  17  23
ATOM     23  O   UNL     1       6.984   5.151  16.374  0.00  0.00    +0.000 OA
BRANCH  23  24
ATOM     24  C   UNL     1       7.710   4.986  17.519  0.00  0.00    +0.000 C 
ATOM     25  O   UNL     1       8.437   4.032  17.757  0.00  0.00    +0.000 OA
BRANCH  24  26
ATOM     26  C   UNL     1       7.441   6.116  18.493  0.00  0.00    +0.000 C 
ATOM     27  C   UNL     1       8.162   5.796  19.796  0.00  0.00    +0.000 C 
ATOM     28  C   UNL     1       7.913   7.449  17.915  0.00  0.00    +0.000 C 
ENDBRANCH  24  26
ENDBRANCH  23  24
ENDBRANCH  17  23
ENDBRANCH   1  17
TORSDOF 8
ENDMDL
MODEL 8
REMARK VINA RESULT:      -8.1      1.151      3.889
REMARK  Name = 
REMARK  12 active torsions:
REMARK  status: ('A' for Active; 'I' for Inactive)
REMARK    1  A    between atoms: C_1  and  C_2
REMARK    2  A    between atoms: C_2  and  C_3
REMARK    3  A    between atoms: C_4  and  C_5
REMARK    4  A    between atoms: C_5  and  C_6
REMARK    5  A    between atoms: C_6  and  O_7
REMARK    6  A    between atoms: C_6  and  C_13
REMARK    7  A    between atoms: O_7  and  C_8
REMARK    8  A    between atoms: C_8  and  C_10
REMARK    9  A    between atoms: C_10  and  C_11
REMARK   10  A    between atoms: C_10  and  C_12
REMARK   11  A    between atoms: C_18  and  O_19
REMARK   12  A    between atoms: C_22  and  O_23
REMARK                            x       y       z     vdW  Elec       q    Type
REMARK                         _______ _______ _______ _____ _____    ______ ____
ROOT
ATOM      1  C   UNL     1       4.788   4.140  16.852  0.00  0.00    +0.000 C 
ATOM      2  C   UNL     1       4.472   2.900  17.248  0.00  0.00    +0.000 C 
ATOM      3  C   UNL     1       3.497   2.636  18.319  0.00  0.00    +0.000 C 
ATOM      4  O   UNL     1       3.257   1.487  18.674  0.00  0.00    +0.000 OA
ATOM      5  C   UNL     1       2.835   3.781  18.965  0.00  0.00    +0.000 A 
ATOM      6  C   UNL     1       1.915   3.563  20.000  0.00  0.00    +0.000 A 
ATOM      7  C   UNL     1       1.268   4.628  20.620  0.00  0.00    +0.000 A 
ATOM      8  C   UNL     1       1.543   5.931  20.213  0.00  0.00    +0.000 A 
ATOM      9  C   UNL     1       2.463   6.158  19.189  0.00  0.00    +0.000 A 
ATOM     10  C   UNL     1       3.119   5.090  18.549  0.00  0.00    +0.000 A 
ATOM     11  C   UNL     1       4.104   5.314  17.459  0.00  0.00    +0.000 C 
ATOM     12  O   UNL     1       4.377   6.436  17.049  0.00  0.00    +0.000 OA
ENDROOT
BRANCH   6  13
ATOM     13  O   UNL     1       1.591   2.317  20.471  0.00  0.00    +0.000 OA
ATOM     14  H   UNL     1       1.748   1.659  19.756  0.00  0.00    +0.000 HD
ENDBRANCH   6  13
BRANCH   9  15
ATOM     15  O   UNL     1       2.715   7.451  18.827  0.00  0.00    +0.000 OA
ATOM     16  H   UNL     1       1.889   7.940  18.685  0.00  0.00    +0.000 HD
ENDBRANCH   9  15
BRANCH   1  17
ATOM     17  C   UNL     1       5.861   4.476  15.823  0.00  0.00    +0.000 C 
BRANCH  17  18
ATOM     18  C   UNL     1       5.213   4.927  14.485  0.00  0.00    +0.000 C 
BRANCH  18  22
ATOM     19  C   UNL     1       6.052   2.294  11.727  0.00  0.00    +0.000 C 
ATOM     20  C   UNL     1       6.121   3.560  12.534  0.00  0.00    +0.000 C 
ATOM     21  C   UNL     1       7.273   4.490  12.274  0.00  0.00    +0.000 C 
ATOM     22  C   UNL     1       5.177   3.813  13.460  0.00  0.00    +0.000 C 
ENDBRANCH  18  22
ENDBRANCH  17  18
BRANCH  17  23
ATOM     23  O   UNL     1       6.740   5.508  16.336  0.00  0.00    +0.000 OA
BRANCH  23  24
ATOM     24  C   UNL     1       7.675   5.070  17.231  0.00  0.00    +0.000 C 
ATOM     25  O   UNL     1       8.279   4.008  17.152  0.00  0.00    +0.000 OA
BRANCH  24  26
ATOM     26  C   UNL     1       7.817   6.047  18.381  0.00  0.00    +0.000 C 
ATOM     27  C   UNL     1       7.529   7.445  17.848  0.00  0.00    +0.000 C 
ATOM     28  C   UNL     1       6.863   5.683  19.518  0.00  0.00    +0.000 C 
ENDBRANCH  24  26
ENDBRANCH  23  24
ENDBRANCH  17  23
ENDBRANCH   1  17
TORSDOF 8
ENDMDL
MODEL 9
REMARK VINA RESULT:      -7.9      1.095      2.647
REMARK  Name = 
REMARK  12 active torsions:
REMARK  status: ('A' for Active; 'I' for Inactive)
REMARK    1  A    between atoms: C_1  and  C_2
REMARK    2  A    between atoms: C_2  and  C_3
REMARK    3  A    between atoms: C_4  and  C_5
REMARK    4  A    between atoms: C_5  and  C_6
REMARK    5  A    between atoms: C_6  and  O_7
REMARK    6  A    between atoms: C_6  and  C_13
REMARK    7  A    between atoms: O_7  and  C_8
REMARK    8  A    between atoms: C_8  and  C_10
REMARK    9  A    between atoms: C_10  and  C_11
REMARK   10  A    between atoms: C_10  and  C_12
REMARK   11  A    between atoms: C_18  and  O_19
REMARK   12  A    between atoms: C_22  and  O_23
REMARK                            x       y       z     vdW  Elec       q    Type
REMARK                         _______ _______ _______ _____ _____    ______ ____
ROOT
ATOM      1  C   UNL     1       4.531   5.436  16.953  0.00  0.00    +0.000 C 
ATOM      2  C   UNL     1       3.933   6.424  17.632  0.00  0.00    +0.000 C 
ATOM      3  C   UNL     1       2.899   6.172  18.650  0.00  0.00    +0.000 C 
ATOM      4  O   UNL     1       2.353   7.105  19.228  0.00  0.00    +0.000 OA
ATOM      5  C   UNL     1       2.524   4.779  18.941  0.00  0.00    +0.000 A 
ATOM      6  C   UNL     1       1.530   4.507  19.892  0.00  0.00    +0.000 A 
ATOM      7  C   UNL     1       1.164   3.198  20.191  0.00  0.00    +0.000 A 
ATOM      8  C   UNL     1       1.787   2.141  19.532  0.00  0.00    +0.000 A 
ATOM      9  C   UNL     1       2.772   2.403  18.579  0.00  0.00    +0.000 A 
ATOM     10  C   UNL     1       3.156   3.721  18.271  0.00  0.00    +0.000 A 
ATOM     11  C   UNL     1       4.201   4.017  17.256  0.00  0.00    +0.000 C 
ATOM     12  O   UNL     1       4.793   3.129  16.654  0.00  0.00    +0.000 OA
ENDROOT
BRANCH   6  13
ATOM     13  O   UNL     1       0.858   5.483  20.580  0.00  0.00    +0.000 OA
ATOM     14  H   UNL     1       0.230   5.053  21.204  0.00  0.00    +0.000 HD
ENDBRANCH   6  13
BRANCH   9  15
ATOM     15  O   UNL     1       3.351   1.339  17.945  0.00  0.00    +0.000 OA
ATOM     16  H   UNL     1       3.692   1.598  17.074  0.00  0.00    +0.000 HD
ENDBRANCH   9  15
BRANCH   1  17
ATOM     17  C   UNL     1       5.530   5.641  15.822  0.00  0.00    +0.000 C 
BRANCH  17  18
ATOM     18  C   UNL     1       6.986   5.598  16.363  0.00  0.00    +0.000 C 
BRANCH  18  22
ATOM     19  C   UNL     1       8.490   8.454  18.559  0.00  0.00    +0.000 C 
ATOM     20  C   UNL     1       7.901   7.121  18.191  0.00  0.00    +0.000 C 
ATOM     21  C   UNL     1       7.895   6.047  19.243  0.00  0.00    +0.000 C 
ATOM     22  C   UNL     1       7.420   6.925  16.949  0.00  0.00    +0.000 C 
ENDBRANCH  18  22
ENDBRANCH  17  18
BRANCH  17  23
ATOM     23  O   UNL     1       5.338   4.635  14.796  0.00  0.00    +0.000 OA
BRANCH  23  24
ATOM     24  C   UNL     1       6.327   4.578  13.856  0.00  0.00    +0.000 C 
ATOM     25  O   UNL     1       7.248   5.378  13.758  0.00  0.00    +0.000 OA
BRANCH  24  26
ATOM     26  C   UNL     1       6.094   3.426  12.900  0.00  0.00    +0.000 C 
ATOM     27  C   UNL     1       4.700   3.583  12.306  0.00  0.00    +0.000 C 
ATOM     28  C   UNL     1       7.160   3.409  11.806  0.00  0.00    +0.000 C 
ENDBRANCH  24  26
ENDBRANCH  23  24
ENDBRANCH  17  23
ENDBRANCH   1  17
TORSDOF 8
ENDMDL
