MODEL 1
REMARK VINA RESULT:      -8.1      0.000      0.000
REMARK  Name = 
REMARK  8 active torsions:
REMARK  status: ('A' for Active; 'I' for Inactive)
REMARK    1  A    between atoms: C_2  and  O_3
REMARK    2  A    between atoms: C_2  and  C_4
REMARK    3  A    between atoms: C_4  and  C_5
REMARK    4  A    between atoms: C_5  and  N_6
REMARK    5  A    between atoms: C_7  and  C_9
REMARK    6  A    between atoms: N_18  and  C_19
REMARK    7  A    between atoms: C_19  and  C_20
REMARK    8  A    between atoms: C_26  and  O_27
REMARK                            x       y       z     vdW  Elec       q    Type
REMARK                         _______ _______ _______ _____ _____    ______ ____
ROOT
ATOM      1  C   UNL     1       2.827   7.133  18.340  0.00  0.00    +0.000 A 
ATOM      2  N   UNL     1       2.542   8.177  17.509  0.00  0.00    +0.000 NA
ATOM      3  C   UNL     1       1.765   9.169  18.020  0.00  0.00    +0.000 A 
ATOM      4  C   UNL     1       1.243   9.203  19.317  0.00  0.00    +0.000 A 
ATOM      5  C   UNL     1       1.600   8.135  20.160  0.00  0.00    +0.000 A 
ATOM      6  C   UNL     1       1.152   8.160  21.555  0.00  0.00    +0.000 A 
ATOM      7  C   UNL     1       0.340   9.126  21.989  0.00  0.00    +0.000 A 
ATOM      8  C   UNL     1      -0.124  10.215  21.105  0.00  0.00    +0.000 A 
ATOM      9  O   UNL     1      -0.917  11.032  21.568  0.00  0.00    +0.000 OA
ATOM     10  N   UNL     1       0.380  10.243  19.809  0.00  0.00    +0.000 N 
ATOM     11  C   UNL     1       2.392   7.083  19.664  0.00  0.00    +0.000 A 
ENDROOT
BRANCH   1  13
ATOM     12  N   UNL     1       3.033   4.749  17.819  0.00  0.00    +0.000 N 
ATOM     13  C   UNL     1       3.612   6.004  17.715  0.00  0.00    +0.000 C 
ATOM     14  O   UNL     1       4.702   6.155  17.174  0.00  0.00    +0.000 OA
ATOM     15  H   UNL     1       2.166   4.677  18.344  0.00  0.00    +0.000 HD
BRANCH  12  16
ATOM     16  C   UNL     1       3.656   3.578  17.229  0.00  0.00    +0.000 C 
BRANCH  16  17
ATOM     17  C   UNL     1       3.417   2.322  18.049  0.00  0.00    +0.000 C 
BRANCH  17  19
ATOM     18  O   UNL     1       3.118   3.079  20.314  0.00  0.00    +0.000 OA
ATOM     19  C   UNL     1       3.839   2.564  19.471  0.00  0.00    +0.000 C 
BRANCH  19  20
ATOM     20  O   UNL     1       5.086   2.125  19.752  0.00  0.00    +0.000 OA
ATOM     21  H   UNL     1       5.254   1.978  20.704  0.00  0.00    +0.000 HD
ENDBRANCH  19  20
ENDBRANCH  17  19
ENDBRANCH  16  17
ENDBRANCH  12  16
ENDBRANCH   1  13
BRANCH  11  22
ATOM     22  O   UNL     1       2.754   6.045  20.480  0.00  0.00    +0.000 OA
ATOM     23  H   UNL     1       2.653   6.316  21.406  0.00  0.00    +0.000 HD
ENDBRANCH  11  22
BRANCH  10  24
ATOM     24  C   UNL     1      -0.106  11.315  18.933  0.00  0.00    +0.000 C 
BRANCH  24  25
ATOM     25  C   UNL     1      -1.495  11.037  18.396  0.00  0.00    +0.000 A 
ATOM     26  C   UNL     1      -1.696  10.048  17.420  0.00  0.00    +0.000 A 
ATOM     27  C   UNL     1      -2.950   9.866  16.840  0.00  0.00    +0.000 A 
ATOM     28  C   UNL     1      -4.023  10.659  17.238  0.00  0.00    +0.000 A 
ATOM     29  C   UNL     1      -3.852  11.605  18.245  0.00  0.00    +0.000 A 
ATOM     30  C   UNL     1      -2.598  11.784  18.832  0.00  0.00    +0.000 A 
ENDBRANCH  24  25
ENDBRANCH  10  24
TORSDOF 8
ENDMDL
MODEL 2
REMARK VINA RESULT:      -7.9      0.886      1.464
REMARK  Name = 
REMARK  8 active torsions:
REMARK  status: ('A' for Active; 'I' for Inactive)
REMARK    1  A    between atoms: C_2  and  O_3
REMARK    2  A    between atoms: C_2  and  C_4
REMARK    3  A    between atoms: C_4  and  C_5
REMARK    4  A    between atoms: C_5  and  N_6
REMARK    5  A    between atoms: C_7  and  C_9
REMARK    6  A    between atoms: N_18  and  C_19
REMARK    7  A    between atoms: C_19  and  C_20
REMARK    8  A    between atoms: C_26  and  O_27
REMARK                            x       y       z     vdW  Elec       q    Type
REMARK                         _______ _______ _______ _____ _____    ______ ____
ROOT
ATOM      1  C   UNL     1       2.558   6.939  18.528  0.00  0.00    +0.000 A 
ATOM      2  N   UNL     1       2.324   7.947  17.640  0.00  0.00    +0.000 NA
ATOM      3  C   UNL     1       1.668   9.039  18.116  0.00  0.00    +0.000 A 
ATOM      4  C   UNL     1       1.222   9.208  19.430  0.00  0.00    +0.000 A 
ATOM      5  C   UNL     1       1.525   8.169  20.328  0.00  0.00    +0.000 A 
ATOM      6  C   UNL     1       1.157   8.329  21.738  0.00  0.00    +0.000 A 
ATOM      7  C   UNL     1       0.461   9.393  22.140  0.00  0.00    +0.000 A 
ATOM      8  C   UNL     1       0.050  10.460  21.204  0.00  0.00    +0.000 A 
ATOM      9  O   UNL     1      -0.639  11.377  21.646  0.00  0.00    +0.000 OA
ATOM     10  N   UNL     1       0.485  10.355  19.887  0.00  0.00    +0.000 N 
ATOM     11  C   UNL     1       2.192   7.018  19.871  0.00  0.00    +0.000 A 
ENDROOT
BRANCH   1  13
ATOM     12  N   UNL     1       2.365   4.607  17.804  0.00  0.00    +0.000 N 
ATOM     13  C   UNL     1       3.202   5.702  17.947  0.00  0.00    +0.000 C 
ATOM     14  O   UNL     1       4.389   5.634  17.646  0.00  0.00    +0.000 OA
ATOM     15  H   UNL     1       1.410   4.701  18.141  0.00  0.00    +0.000 HD
BRANCH  12  16
ATOM     16  C   UNL     1       2.839   3.365  17.222  0.00  0.00    +0.000 C 
BRANCH  16  17
ATOM     17  C   UNL     1       2.622   2.177  18.144  0.00  0.00    +0.000 C 
BRANCH  17  19
ATOM     18  O   UNL     1       1.870   3.000  20.276  0.00  0.00    +0.000 OA
ATOM     19  C   UNL     1       1.594   2.529  19.182  0.00  0.00    +0.000 C 
BRANCH  19  20
ATOM     20  O   UNL     1       0.321   2.314  18.785  0.00  0.00    +0.000 OA
ATOM     21  H   UNL     1       0.196   1.494  18.268  0.00  0.00    +0.000 HD
ENDBRANCH  19  20
ENDBRANCH  17  19
ENDBRANCH  16  17
ENDBRANCH  12  16
ENDBRANCH   1  13
BRANCH  11  22
ATOM     22  O   UNL     1       2.502   6.006  20.740  0.00  0.00    +0.000 OA
ATOM     23  H   UNL     1       2.043   6.156  21.582  0.00  0.00    +0.000 HD
ENDBRANCH  11  22
BRANCH  10  24
ATOM     24  C   UNL     1       0.051  11.407  18.961  0.00  0.00    +0.000 C 
BRANCH  24  25
ATOM     25  C   UNL     1      -1.342  11.163  18.419  0.00  0.00    +0.000 A 
ATOM     26  C   UNL     1      -2.423  11.942  18.860  0.00  0.00    +0.000 A 
ATOM     27  C   UNL     1      -3.724  11.648  18.453  0.00  0.00    +0.000 A 
ATOM     28  C   UNL     1      -3.959  10.583  17.588  0.00  0.00    +0.000 A 
ATOM     29  C   UNL     1      -2.890   9.838  17.097  0.00  0.00    +0.000 A 
ATOM     30  C   UNL     1      -1.586  10.134  17.499  0.00  0.00    +0.000 A 
ENDBRANCH  24  25
ENDBRANCH  10  24
TORSDOF 8
ENDMDL
MODEL 3
REMARK VINA RESULT:      -7.8      1.679      2.273
REMARK  Name = 
REMARK  8 active torsions:
REMARK  status: ('A' for Active; 'I' for Inactive)
REMARK    1  A    between atoms: C_2  and  O_3
REMARK    2  A    between atoms: C_2  and  C_4
REMARK    3  A    between atoms: C_4  and  C_5
REMARK    4  A    between atoms: C_5  and  N_6
REMARK    5  A    between atoms: C_7  and  C_9
REMARK    6  A    between atoms: N_18  and  C_19
REMARK    7  A    between atoms: C_19  and  C_20
REMARK    8  A    between atoms: C_26  and  O_27
REMARK                            x       y       z     vdW  Elec       q    Type
REMARK                         _______ _______ _______ _____ _____    ______ ____
ROOT
ATOM      1  C   UNL     1       3.093   6.833  18.252  0.00  0.00    +0.000 A 
ATOM      2  N   UNL     1       2.896   7.906  17.433  0.00  0.00    +0.000 NA
ATOM      3  C   UNL     1       2.134   8.918  17.926  0.00  0.00    +0.000 A 
ATOM      4  C   UNL     1       1.544   8.945  19.194  0.00  0.00    +0.000 A 
ATOM      5  C   UNL     1       1.811   7.845  20.028  0.00  0.00    +0.000 A 
ATOM      6  C   UNL     1       1.290   7.859  21.398  0.00  0.00    +0.000 A 
ATOM      7  C   UNL     1       0.497   8.848  21.811  0.00  0.00    +0.000 A 
ATOM      8  C   UNL     1       0.126   9.975  20.930  0.00  0.00    +0.000 A 
ATOM      9  O   UNL     1      -0.656  10.814  21.371  0.00  0.00    +0.000 OA
ATOM     10  N   UNL     1       0.700  10.010  19.664  0.00  0.00    +0.000 N 
ATOM     11  C   UNL     1       2.585   6.772  19.549  0.00  0.00    +0.000 A 
ENDROOT
BRANCH   1  13
ATOM     12  N   UNL     1       5.179   5.962  17.311  0.00  0.00    +0.000 N 
ATOM     13  C   UNL     1       3.863   5.685  17.641  0.00  0.00    +0.000 C 
ATOM     14  O   UNL     1       3.371   4.585  17.414  0.00  0.00    +0.000 OA
ATOM     15  H   UNL     1       5.507   6.914  17.454  0.00  0.00    +0.000 HD
BRANCH  12  16
ATOM     16  C   UNL     1       6.049   4.942  16.753  0.00  0.00    +0.000 C 
BRANCH  16  17
ATOM     17  C   UNL     1       7.320   4.761  17.565  0.00  0.00    +0.000 C 
BRANCH  17  19
ATOM     18  O   UNL     1       6.792   5.400  19.825  0.00  0.00    +0.000 OA
ATOM     19  C   UNL     1       7.295   5.688  18.748  0.00  0.00    +0.000 C 
BRANCH  19  20
ATOM     20  O   UNL     1       7.918   6.867  18.530  0.00  0.00    +0.000 OA
ATOM     21  H   UNL     1       7.389   7.651  18.778  0.00  0.00    +0.000 HD
ENDBRANCH  19  20
ENDBRANCH  17  19
ENDBRANCH  16  17
ENDBRANCH  12  16
ENDBRANCH   1  13
BRANCH  11  22
ATOM     22  O   UNL     1       2.860   5.702  20.357  0.00  0.00    +0.000 OA
ATOM     23  H   UNL     1       3.352   5.037  19.850  0.00  0.00    +0.000 HD
ENDBRANCH  11  22
BRANCH  10  24
ATOM     24  C   UNL     1       0.306  11.121  18.790  0.00  0.00    +0.000 C 
BRANCH  24  25
ATOM     25  C   UNL     1      -1.099  10.960  18.248  0.00  0.00    +0.000 A 
ATOM     26  C   UNL     1      -2.112  11.858  18.619  0.00  0.00    +0.000 A 
ATOM     27  C   UNL     1      -3.430  11.649  18.216  0.00  0.00    +0.000 A 
ATOM     28  C   UNL     1      -3.750  10.550  17.424  0.00  0.00    +0.000 A 
ATOM     29  C   UNL     1      -2.746   9.683  17.000  0.00  0.00    +0.000 A 
ATOM     30  C   UNL     1      -1.424   9.894  17.398  0.00  0.00    +0.000 A 
ENDBRANCH  24  25
ENDBRANCH  10  24
TORSDOF 8
ENDMDL
MODEL 4
REMARK VINA RESULT:      -7.8      1.495      1.849
REMARK  Name = 
REMARK  8 active torsions:
REMARK  status: ('A' for Active; 'I' for Inactive)
REMARK    1  A    between atoms: C_2  and  O_3
REMARK    2  A    between atoms: C_2  and  C_4
REMARK    3  A    between atoms: C_4  and  C_5
REMARK    4  A    between atoms: C_5  and  N_6
REMARK    5  A    between atoms: C_7  and  C_9
REMARK    6  A    between atoms: N_18  and  C_19
REMARK    7  A    between atoms: C_19  and  C_20
REMARK    8  A    between atoms: C_26  and  O_27
REMARK                            x       y       z     vdW  Elec       q    Type
REMARK                         _______ _______ _______ _____ _____    ______ ____
ROOT
ATOM      1  C   UNL     1       2.620   6.929  18.610  0.00  0.00    +0.000 A 
ATOM      2  N   UNL     1       2.385   7.924  17.708  0.00  0.00    +0.000 NA
ATOM      3  C   UNL     1       1.689   9.003  18.157  0.00  0.00    +0.000 A 
ATOM      4  C   UNL     1       1.201   9.168  19.457  0.00  0.00    +0.000 A 
ATOM      5  C   UNL     1       1.506   8.144  20.371  0.00  0.00    +0.000 A 
ATOM      6  C   UNL     1       1.094   8.303  21.769  0.00  0.00    +0.000 A 
ATOM      7  C   UNL     1       0.360   9.351  22.144  0.00  0.00    +0.000 A 
ATOM      8  C   UNL     1      -0.052  10.401  21.188  0.00  0.00    +0.000 A 
ATOM      9  O   UNL     1      -0.777  11.302  21.604  0.00  0.00    +0.000 OA
ATOM     10  N   UNL     1       0.422  10.298  19.885  0.00  0.00    +0.000 N 
ATOM     11  C   UNL     1       2.214   7.007  19.941  0.00  0.00    +0.000 A 
ENDROOT
BRANCH   1  13
ATOM     12  N   UNL     1       4.225   5.946  17.042  0.00  0.00    +0.000 N 
ATOM     13  C   UNL     1       3.312   5.705  18.056  0.00  0.00    +0.000 C 
ATOM     14  O   UNL     1       3.077   4.563  18.438  0.00  0.00    +0.000 OA
ATOM     15  H   UNL     1       4.321   6.905  16.718  0.00  0.00    +0.000 HD
BRANCH  12  16
ATOM     16  C   UNL     1       4.992   4.868  16.444  0.00  0.00    +0.000 C 
BRANCH  16  17
ATOM     17  C   UNL     1       6.489   5.126  16.500  0.00  0.00    +0.000 C 
BRANCH  17  19
ATOM     18  O   UNL     1       8.265   4.378  17.941  0.00  0.00    +0.000 OA
ATOM     19  C   UNL     1       7.066   4.464  17.720  0.00  0.00    +0.000 C 
BRANCH  19  20
ATOM     20  O   UNL     1       6.134   4.001  18.581  0.00  0.00    +0.000 OA
ATOM     21  H   UNL     1       6.432   3.245  19.125  0.00  0.00    +0.000 HD
ENDBRANCH  19  20
ENDBRANCH  17  19
ENDBRANCH  16  17
ENDBRANCH  12  16
ENDBRANCH   1  13
BRANCH  11  22
ATOM     22  O   UNL     1       2.526   6.009  20.826  0.00  0.00    +0.000 OA
ATOM     23  H   UNL     1       2.049   5.201  20.578  0.00  0.00    +0.000 HD
ENDBRANCH  11  22
BRANCH  10  24
ATOM     24  C   UNL     1      -0.012  11.333  18.940  0.00  0.00    +0.000 C 
BRANCH  24  25
ATOM     25  C   UNL     1      -1.380  11.045  18.355  0.00  0.00    +0.000 A 
ATOM     26  C   UNL     1      -1.540  10.047  17.381  0.00  0.00    +0.000 A 
ATOM     27  C   UNL     1      -2.772   9.854  16.757  0.00  0.00    +0.000 A 
ATOM     28  C   UNL     1      -3.862  10.645  17.109  0.00  0.00    +0.000 A 
ATOM     29  C   UNL     1      -3.732  11.600  18.114  0.00  0.00    +0.000 A 
ATOM     30  C   UNL     1      -2.501  11.790  18.745  0.00  0.00    +0.000 A 
ENDBRANCH  24  25
ENDBRANCH  10  24
TORSDOF 8
ENDMDL
MODEL 5
REMARK VINA RESULT:      -7.6      1.531      2.292
REMARK  Name = 
REMARK  8 active torsions:
REMARK  status: ('A' for Active; 'I' for Inactive)
REMARK    1  A    between atoms: C_2  and  O_3
REMARK    2  A    between atoms: C_2  and  C_4
REMARK    3  A    between atoms: C_4  and  C_5
REMARK    4  A    between atoms: C_5  and  N_6
REMARK    5  A    between atoms: C_7  and  C_9
REMARK    6  A    between atoms: N_18  and  C_19
REMARK    7  A    between atoms: C_19  and  C_20
REMARK    8  A    between atoms: C_26  and  O_27
REMARK                            x       y       z     vdW  Elec       q    Type
REMARK                         _______ _______ _______ _____ _____    ______ ____
ROOT
ATOM      1  C   UNL     1       2.747   6.904  18.769  0.00  0.00    +0.000 A 
ATOM      2  N   UNL     1       2.597   7.906  17.855  0.00  0.00    +0.000 NA
ATOM      3  C   UNL     1       1.841   8.970  18.236  0.00  0.00    +0.000 A 
ATOM      4  C   UNL     1       1.214   9.116  19.477  0.00  0.00    +0.000 A 
ATOM      5  C   UNL     1       1.432   8.087  20.410  0.00  0.00    +0.000 A 
ATOM      6  C   UNL     1       0.870   8.227  21.756  0.00  0.00    +0.000 A 
ATOM      7  C   UNL     1       0.085   9.263  22.058  0.00  0.00    +0.000 A 
ATOM      8  C   UNL     1      -0.236  10.316  21.073  0.00  0.00    +0.000 A 
ATOM      9  O   UNL     1      -1.014  11.204  21.415  0.00  0.00    +0.000 OA
ATOM     10  N   UNL     1       0.378  10.232  19.827  0.00  0.00    +0.000 N 
ATOM     11  C   UNL     1       2.199   6.964  20.050  0.00  0.00    +0.000 A 
ENDROOT
BRANCH   1  13
ATOM     12  N   UNL     1       4.752   5.501  18.868  0.00  0.00    +0.000 N 
ATOM     13  C   UNL     1       3.511   5.694  18.283  0.00  0.00    +0.000 C 
ATOM     14  O   UNL     1       3.099   4.939  17.409  0.00  0.00    +0.000 OA
ATOM     15  H   UNL     1       5.071   6.203  19.531  0.00  0.00    +0.000 HD
BRANCH  12  16
ATOM     16  C   UNL     1       5.579   4.358  18.527  0.00  0.00    +0.000 C 
BRANCH  16  17
ATOM     17  C   UNL     1       6.890   4.767  17.878  0.00  0.00    +0.000 C 
BRANCH  17  19
ATOM     18  O   UNL     1       7.599   4.917  15.583  0.00  0.00    +0.000 OA
ATOM     19  C   UNL     1       6.854   4.420  16.416  0.00  0.00    +0.000 C 
BRANCH  19  20
ATOM     20  O   UNL     1       5.943   3.473  16.102  0.00  0.00    +0.000 OA
ATOM     21  H   UNL     1       5.033   3.813  15.995  0.00  0.00    +0.000 HD
ENDBRANCH  19  20
ENDBRANCH  17  19
ENDBRANCH  16  17
ENDBRANCH  12  16
ENDBRANCH   1  13
BRANCH  11  22
ATOM     22  O   UNL     1       2.426   5.962  20.954  0.00  0.00    +0.000 OA
ATOM     23  H   UNL     1       2.818   6.339  21.758  0.00  0.00    +0.000 HD
ENDBRANCH  11  22
BRANCH  10  24
ATOM     24  C   UNL     1       0.034  11.271  18.850  0.00  0.00    +0.000 C 
BRANCH  24  25
ATOM     25  C   UNL     1      -1.326  11.046  18.222  0.00  0.00    +0.000 A 
ATOM     26  C   UNL     1      -2.405  11.886  18.542  0.00  0.00    +0.000 A 
ATOM     27  C   UNL     1      -3.684  11.617  18.058  0.00  0.00    +0.000 A 
ATOM     28  C   UNL     1      -3.899  10.514  17.236  0.00  0.00    +0.000 A 
ATOM     29  C   UNL     1      -2.828   9.706  16.863  0.00  0.00    +0.000 A 
ATOM     30  C   UNL     1      -1.546   9.978  17.342  0.00  0.00    +0.000 A 
ENDBRANCH  24  25
ENDBRANCH  10  24
TORSDOF 8
ENDMDL
MODEL 6
REMARK VINA RESULT:      -7.6      1.502      2.253
REMARK  Name = 
REMARK  8 active torsions:
REMARK  status: ('A' for Active; 'I' for Inactive)
REMARK    1  A    between atoms: C_2  and  O_3
REMARK    2  A    between atoms: C_2  and  C_4
REMARK    3  A    between atoms: C_4  and  C_5
REMARK    4  A    between atoms: C_5  and  N_6
REMARK    5  A    between atoms: C_7  and  C_9
REMARK    6  A    between atoms: N_18  and  C_19
REMARK    7  A    between atoms: C_19  and  C_20
REMARK    8  A    between atoms: C_26  and  O_27
REMARK                            x       y       z     vdW  Elec       q    Type
REMARK                         _______ _______ _______ _____ _____    ______ ____
ROOT
ATOM      1  C   UNL     1       2.751   6.927  18.710  0.00  0.00    +0.000 A 
ATOM      2  N   UNL     1       2.574   7.926  17.798  0.00  0.00    +0.000 NA
ATOM      3  C   UNL     1       1.806   8.979  18.187  0.00  0.00    +0.000 A 
ATOM      4  C   UNL     1       1.192   9.116  19.436  0.00  0.00    +0.000 A 
ATOM      5  C   UNL     1       1.439   8.091  20.366  0.00  0.00    +0.000 A 
ATOM      6  C   UNL     1       0.891   8.223  21.719  0.00  0.00    +0.000 A 
ATOM      7  C   UNL     1       0.094   9.246  22.031  0.00  0.00    +0.000 A 
ATOM      8  C   UNL     1      -0.256  10.294  21.049  0.00  0.00    +0.000 A 
ATOM      9  O   UNL     1      -1.043  11.170  21.401  0.00  0.00    +0.000 OA
ATOM     10  N   UNL     1       0.343  10.219  19.796  0.00  0.00    +0.000 N 
ATOM     11  C   UNL     1       2.218   6.979  19.997  0.00  0.00    +0.000 A 
ENDROOT
BRANCH   1  13
ATOM     12  N   UNL     1       4.793   5.575  18.760  0.00  0.00    +0.000 N 
ATOM     13  C   UNL     1       3.528   5.730  18.215  0.00  0.00    +0.000 C 
ATOM     14  O   UNL     1       3.105   4.951  17.367  0.00  0.00    +0.000 OA
ATOM     15  H   UNL     1       5.116   6.295  19.401  0.00  0.00    +0.000 HD
BRANCH  12  16
ATOM     16  C   UNL     1       5.635   4.448  18.406  0.00  0.00    +0.000 C 
BRANCH  16  17
ATOM     17  C   UNL     1       7.011   4.882  17.931  0.00  0.00    +0.000 C 
BRANCH  17  19
ATOM     18  O   UNL     1       7.615   6.581  16.338  0.00  0.00    +0.000 OA
ATOM     19  C   UNL     1       6.876   5.659  16.651  0.00  0.00    +0.000 C 
BRANCH  19  20
ATOM     20  O   UNL     1       5.882   5.220  15.849  0.00  0.00    +0.000 OA
ATOM     21  H   UNL     1       6.084   4.388  15.378  0.00  0.00    +0.000 HD
ENDBRANCH  19  20
ENDBRANCH  17  19
ENDBRANCH  16  17
ENDBRANCH  12  16
ENDBRANCH   1  13
BRANCH  11  22
ATOM     22  O   UNL     1       2.473   5.982  20.899  0.00  0.00    +0.000 OA
ATOM     23  H   UNL     1       3.326   6.150  21.330  0.00  0.00    +0.000 HD
ENDBRANCH  11  22
BRANCH  10  24
ATOM     24  C   UNL     1      -0.029  11.252  18.822  0.00  0.00    +0.000 C 
BRANCH  24  25
ATOM     25  C   UNL     1      -1.375  10.984  18.182  0.00  0.00    +0.000 A 
ATOM     26  C   UNL     1      -1.523   9.951  17.243  0.00  0.00    +0.000 A 
ATOM     27  C   UNL     1      -2.729   9.772  16.566  0.00  0.00    +0.000 A 
ATOM     28  C   UNL     1      -3.806  10.613  16.830  0.00  0.00    +0.000 A 
ATOM     29  C   UNL     1      -3.692  11.605  17.801  0.00  0.00    +0.000 A 
ATOM     30  C   UNL     1      -2.488  11.781  18.484  0.00  0.00    +0.000 A 
ENDBRANCH  24  25
ENDBRANCH  10  24
TORSDOF 8
ENDMDL
MODEL 7
REMARK VINA RESULT:      -7.6      2.788      7.513
REMARK  Name = 
REMARK  8 active torsions:
REMARK  status: ('A' for Active; 'I' for Inactive)
REMARK    1  A    between atoms: C_2  and  O_3
REMARK    2  A    between atoms: C_2  and  C_4
REMARK    3  A    between atoms: C_4  and  C_5
REMARK    4  A    between atoms: C_5  and  N_6
REMARK    5  A    between atoms: C_7  and  C_9
REMARK    6  A    between atoms: N_18  and  C_19
REMARK    7  A    between atoms: C_19  and  C_20
REMARK    8  A    between atoms: C_26  and  O_27
REMARK                            x       y       z     vdW  Elec       q    Type
REMARK                         _______ _______ _______ _____ _____    ______ ____
ROOT
ATOM      1  C   UNL     1       1.716   8.591  19.273  0.00  0.00    +0.000 A 
ATOM      2  N   UNL     1       1.873   7.624  20.222  0.00  0.00    +0.000 NA
ATOM      3  C   UNL     1       2.730   6.611  19.924  0.00  0.00    +0.000 A 
ATOM      4  C   UNL     1       3.455   6.486  18.734  0.00  0.00    +0.000 A 
ATOM      5  C   UNL     1       3.306   7.528  17.802  0.00  0.00    +0.000 A 
ATOM      6  C   UNL     1       4.106   7.494  16.575  0.00  0.00    +0.000 A 
ATOM      7  C   UNL     1       4.886   6.446  16.303  0.00  0.00    +0.000 A 
ATOM      8  C   UNL     1       4.998   5.294  17.222  0.00  0.00    +0.000 A 
ATOM      9  O   UNL     1       5.693   4.345  16.868  0.00  0.00    +0.000 OA
ATOM     10  N   UNL     1       4.314   5.374  18.430  0.00  0.00    +0.000 N 
ATOM     11  C   UNL     1       2.419   8.588  18.069  0.00  0.00    +0.000 A 
ENDROOT
BRANCH   1  13
ATOM     12  N   UNL     1       0.799  10.226  20.850  0.00  0.00    +0.000 N 
ATOM     13  C   UNL     1       0.688   9.651  19.594  0.00  0.00    +0.000 C 
ATOM     14  O   UNL     1      -0.213   9.975  18.827  0.00  0.00    +0.000 OA
ATOM     15  H   UNL     1       1.519   9.862  21.468  0.00  0.00    +0.000 HD
BRANCH  12  16
ATOM     16  C   UNL     1      -0.097  11.285  21.277  0.00  0.00    +0.000 C 
BRANCH  16  17
ATOM     17  C   UNL     1      -0.881  10.909  22.523  0.00  0.00    +0.000 C 
BRANCH  17  19
ATOM     18  O   UNL     1       0.605   9.643  23.929  0.00  0.00    +0.000 OA
ATOM     19  C   UNL     1      -0.308   9.653  23.116  0.00  0.00    +0.000 C 
BRANCH  19  20
ATOM     20  O   UNL     1      -0.920   8.523  22.699  0.00  0.00    +0.000 OA
ATOM     21  H   UNL     1      -0.865   7.780  23.332  0.00  0.00    +0.000 HD
ENDBRANCH  19  20
ENDBRANCH  17  19
ENDBRANCH  16  17
ENDBRANCH  12  16
ENDBRANCH   1  13
BRANCH  11  22
ATOM     22  O   UNL     1       2.274   9.612  17.173  0.00  0.00    +0.000 OA
ATOM     23  H   UNL     1       2.156  10.446  17.656  0.00  0.00    +0.000 HD
ENDBRANCH  11  22
BRANCH  10  24
ATOM     24  C   UNL     1       4.414   4.214  19.324  0.00  0.00    +0.000 C 
BRANCH  24  25
ATOM     25  C   UNL     1       3.082   3.520  19.521  0.00  0.00    +0.000 A 
ATOM     26  C   UNL     1       2.296   3.161  18.415  0.00  0.00    +0.000 A 
ATOM     27  C   UNL     1       1.020   2.627  18.592  0.00  0.00    +0.000 A 
ATOM     28  C   UNL     1       0.520   2.431  19.876  0.00  0.00    +0.000 A 
ATOM     29  C   UNL     1       1.311   2.729  20.983  0.00  0.00    +0.000 A 
ATOM     30  C   UNL     1       2.591   3.258  20.807  0.00  0.00    +0.000 A 
ENDBRANCH  24  25
ENDBRANCH  10  24
TORSDOF 8
ENDMDL
MODEL 8
REMARK VINA RESULT:      -7.6      0.556      1.090
REMARK  Name = 
REMARK  8 active torsions:
REMARK  status: ('A' for Active; 'I' for Inactive)
REMARK    1  A    between atoms: C_2  and  O_3
REMARK    2  A    between atoms: C_2  and  C_4
REMARK    3  A    between atoms: C_4  and  C_5
REMARK    4  A    between atoms: C_5  and  N_6
REMARK    5  A    between atoms: C_7  and  C_9
REMARK    6  A    between atoms: N_18  and  C_19
REMARK    7  A    between atoms: C_19  and  C_20
REMARK    8  A    between atoms: C_26  and  O_27
REMARK                            x       y       z     vdW  Elec       q    Type
REMARK                         _______ _______ _______ _____ _____    ______ ____
ROOT
ATOM      1  C   UNL     1       2.628   7.586  18.391  0.00  0.00    +0.000 A 
ATOM      2  N   UNL     1       2.304   8.629  17.573  0.00  0.00    +0.000 NA
ATOM      3  C   UNL     1       1.506   9.594  18.102  0.00  0.00    +0.000 A 
ATOM      4  C   UNL     1       0.998   9.601  19.405  0.00  0.00    +0.000 A 
ATOM      5  C   UNL     1       1.394   8.536  20.234  0.00  0.00    +0.000 A 
ATOM      6  C   UNL     1       0.962   8.536  21.634  0.00  0.00    +0.000 A 
ATOM      7  C   UNL     1       0.129   9.475  22.086  0.00  0.00    +0.000 A 
ATOM      8  C   UNL     1      -0.376  10.558  21.217  0.00  0.00    +0.000 A 
ATOM      9  O   UNL     1      -1.185  11.348  21.698  0.00  0.00    +0.000 OA
ATOM     10  N   UNL     1       0.113  10.612  19.916  0.00  0.00    +0.000 N 
ATOM     11  C   UNL     1       2.210   7.512  19.719  0.00  0.00    +0.000 A 
ENDROOT
BRANCH   1  13
ATOM     12  N   UNL     1       3.019   5.195  18.031  0.00  0.00    +0.000 N 
ATOM     13  C   UNL     1       3.437   6.485  17.745  0.00  0.00    +0.000 C 
ATOM     14  O   UNL     1       4.419   6.690  17.040  0.00  0.00    +0.000 OA
ATOM     15  H   UNL     1       2.245   5.088  18.682  0.00  0.00    +0.000 HD
BRANCH  12  16
ATOM     16  C   UNL     1       3.677   4.041  17.447  0.00  0.00    +0.000 C 
BRANCH  16  17
ATOM     17  C   UNL     1       4.817   3.529  18.311  0.00  0.00    +0.000 C 
BRANCH  17  19
ATOM     18  O   UNL     1       3.140   2.969  19.944  0.00  0.00    +0.000 OA
ATOM     19  C   UNL     1       4.256   2.775  19.485  0.00  0.00    +0.000 C 
BRANCH  19  20
ATOM     20  O   UNL     1       5.086   1.826  19.970  0.00  0.00    +0.000 OA
ATOM     21  H   UNL     1       6.006   2.128  20.104  0.00  0.00    +0.000 HD
ENDBRANCH  19  20
ENDBRANCH  17  19
ENDBRANCH  16  17
ENDBRANCH  12  16
ENDBRANCH   1  13
BRANCH  11  22
ATOM     22  O   UNL     1       2.611   6.477  20.520  0.00  0.00    +0.000 OA
ATOM     23  H   UNL     1       2.230   5.649  20.187  0.00  0.00    +0.000 HD
ENDBRANCH  11  22
BRANCH  10  24
ATOM     24  C   UNL     1      -0.414  11.678  19.056  0.00  0.00    +0.000 C 
BRANCH  24  25
ATOM     25  C   UNL     1      -1.765  11.332  18.468  0.00  0.00    +0.000 A 
ATOM     26  C   UNL     1      -2.921  12.005  18.894  0.00  0.00    +0.000 A 
ATOM     27  C   UNL     1      -4.180  11.614  18.442  0.00  0.00    +0.000 A 
ATOM     28  C   UNL     1      -4.300  10.555  17.546  0.00  0.00    +0.000 A 
ATOM     29  C   UNL     1      -3.158   9.916  17.069  0.00  0.00    +0.000 A 
ATOM     30  C   UNL     1      -1.896  10.310  17.516  0.00  0.00    +0.000 A 
ENDBRANCH  24  25
ENDBRANCH  10  24
TORSDOF 8
ENDMDL
MODEL 9
REMARK VINA RESULT:      -7.5      1.689      2.549
REMARK  Name = 
REMARK  8 active torsions:
REMARK  status: ('A' for Active; 'I' for Inactive)
REMARK    1  A    between atoms: C_2  and  O_3
REMARK    2  A    between atoms: C_2  and  C_4
REMARK    3  A    between atoms: C_4  and  C_5
REMARK    4  A    between atoms: C_5  and  N_6
REMARK    5  A    between atoms: C_7  and  C_9
REMARK    6  A    between atoms: N_18  and  C_19
REMARK    7  A    between atoms: C_19  and  C_20
REMARK    8  A    between atoms: C_26  and  O_27
REMARK                            x       y       z     vdW  Elec       q    Type
REMARK                         _______ _______ _______ _____ _____    ______ ____
ROOT
ATOM      1  C   UNL     1       2.811   7.292  18.313  0.00  0.00    +0.000 A 
ATOM      2  N   UNL     1       2.529   8.329  17.474  0.00  0.00    +0.000 NA
ATOM      3  C   UNL     1       1.741   9.319  17.972  0.00  0.00    +0.000 A 
ATOM      4  C   UNL     1       1.205   9.357  19.263  0.00  0.00    +0.000 A 
ATOM      5  C   UNL     1       1.559   8.296  20.115  0.00  0.00    +0.000 A 
ATOM      6  C   UNL     1       1.097   8.326  21.505  0.00  0.00    +0.000 A 
ATOM      7  C   UNL     1       0.276   9.289  21.926  0.00  0.00    +0.000 A 
ATOM      8  C   UNL     1      -0.186  10.371  21.031  0.00  0.00    +0.000 A 
ATOM      9  O   UNL     1      -0.988  11.185  21.482  0.00  0.00    +0.000 OA
ATOM     10  N   UNL     1       0.331  10.395  19.740  0.00  0.00    +0.000 N 
ATOM     11  C   UNL     1       2.363   7.246  19.633  0.00  0.00    +0.000 A 
ENDROOT
BRANCH   1  13
ATOM     12  N   UNL     1       4.819   6.530  17.135  0.00  0.00    +0.000 N 
ATOM     13  C   UNL     1       3.609   6.164  17.701  0.00  0.00    +0.000 C 
ATOM     14  O   UNL     1       3.220   5.001  17.667  0.00  0.00    +0.000 OA
ATOM     15  H   UNL     1       5.051   7.520  17.128  0.00  0.00    +0.000 HD
BRANCH  12  16
ATOM     16  C   UNL     1       5.707   5.544  16.546  0.00  0.00    +0.000 C 
BRANCH  16  17
ATOM     17  C   UNL     1       5.493   5.395  15.050  0.00  0.00    +0.000 C 
BRANCH  17  19
ATOM     18  O   UNL     1       6.465   3.880  13.453  0.00  0.00    +0.000 OA
ATOM     19  C   UNL     1       6.066   4.083  14.591  0.00  0.00    +0.000 C 
BRANCH  19  20
ATOM     20  O   UNL     1       6.139   3.149  15.564  0.00  0.00    +0.000 OA
ATOM     21  H   UNL     1       6.453   3.491  16.424  0.00  0.00    +0.000 HD
ENDBRANCH  19  20
ENDBRANCH  17  19
ENDBRANCH  16  17
ENDBRANCH  12  16
ENDBRANCH   1  13
BRANCH  11  22
ATOM     22  O   UNL     1       2.723   6.215  20.457  0.00  0.00    +0.000 OA
ATOM     23  H   UNL     1       3.473   6.491  21.007  0.00  0.00    +0.000 HD
ENDBRANCH  11  22
BRANCH  10  24
ATOM     24  C   UNL     1      -0.152  11.459  18.853  0.00  0.00    +0.000 C 
BRANCH  24  25
ATOM     25  C   UNL     1      -1.530  11.167  18.297  0.00  0.00    +0.000 A 
ATOM     26  C   UNL     1      -2.634  11.940  18.688  0.00  0.00    +0.000 A 
ATOM     27  C   UNL     1      -3.921  11.606  18.270  0.00  0.00    +0.000 A 
ATOM     28  C   UNL     1      -4.120  10.504  17.443  0.00  0.00    +0.000 A 
ATOM     29  C   UNL     1      -3.028   9.762  17.000  0.00  0.00    +0.000 A 
ATOM     30  C   UNL     1      -1.738  10.099  17.413  0.00  0.00    +0.000 A 
ENDBRANCH  24  25
ENDBRANCH  10  24
TORSDOF 8
ENDMDL
