MODEL 1
REMARK VINA RESULT:      -7.6      0.000      0.000
REMARK  Name = 
REMARK  7 active torsions:
REMARK  status: ('A' for Active; 'I' for Inactive)
REMARK    1  A    between atoms: C_1  and  C_2
REMARK    2  A    between atoms: C_5  and  S_6
REMARK    3  A    between atoms: S_6  and  N_9
REMARK    4  A    between atoms: N_9  and  C_10
REMARK    5  A    between atoms: C_13  and  C_14
REMARK    6  A    between atoms: C_17  and  C_18
REMARK    7  A    between atoms: N_20  and  C_21
REMARK                            x       y       z     vdW  Elec       q    Type
REMARK                         _______ _______ _______ _____ _____    ______ ____
ROOT
ATOM      1  C   UNL     1       2.436   7.289  19.580  0.00  0.00    +0.000 A 
ATOM      2  C   UNL     1       2.447   7.847  18.304  0.00  0.00    +0.000 A 
ATOM      3  C   UNL     1       1.694   8.997  18.038  0.00  0.00    +0.000 A 
ATOM      4  C   UNL     1       0.906   9.582  19.037  0.00  0.00    +0.000 A 
ATOM      5  C   UNL     1       0.882   8.960  20.293  0.00  0.00    +0.000 A 
ATOM      6  C   UNL     1       1.646   7.836  20.575  0.00  0.00    +0.000 A 
ENDROOT
BRANCH   4   7
ATOM      7  C   UNL     1       0.124  10.801  18.771  0.00  0.00    +0.000 A 
ATOM      8  C   UNL     1      -1.165  10.904  18.251  0.00  0.00    +0.000 A 
ATOM      9  C   UNL     1      -1.503  12.268  18.142  0.00  0.00    +0.000 A 
ATOM     10  C   UNL     1      -0.421  12.996  18.595  0.00  0.00    +0.000 A 
ATOM     11  N   UNL     1       0.560  12.109  18.968  0.00  0.00    +0.000 N 
ATOM     12  C   UNL     1       1.883  12.503  19.421  0.00  0.00    +0.000 C 
BRANCH  10  13
ATOM     13  C   UNL     1      -0.323  14.411  18.656  0.00  0.00    +0.000 C 
ATOM     14  N   UNL     1      -0.255  15.572  18.731  0.00  0.00    +0.000 NA
ENDBRANCH  10  13
ENDBRANCH   4   7
BRANCH   1  15
ATOM     15  N   UNL     1       3.241   6.173  19.873  0.00  0.00    +0.000 N 
ATOM     16  H   UNL     1       4.078   6.267  20.444  0.00  0.00    +0.000 HD
BRANCH  15  17
ATOM     17  S   UNL     1       3.031   4.744  19.018  0.00  0.00    +0.000 S 
ATOM     18  O   UNL     1       1.729   4.762  18.389  0.00  0.00    +0.000 OA
ATOM     19  O   UNL     1       3.411   3.681  19.925  0.00  0.00    +0.000 OA
BRANCH  17  24
ATOM     20  C   UNL     1       7.130   4.933  14.520  0.00  0.00    +0.000 C 
ATOM     21  C   UNL     1       6.132   4.883  15.640  0.00  0.00    +0.000 A 
ATOM     22  C   UNL     1       5.141   3.896  15.670  0.00  0.00    +0.000 A 
ATOM     23  C   UNL     1       4.212   3.860  16.710  0.00  0.00    +0.000 A 
ATOM     24  C   UNL     1       4.270   4.808  17.734  0.00  0.00    +0.000 A 
ATOM     25  C   UNL     1       5.245   5.815  17.709  0.00  0.00    +0.000 A 
ATOM     26  C   UNL     1       6.178   5.840  16.666  0.00  0.00    +0.000 A 
ENDBRANCH  17  24
ENDBRANCH  15  17
ENDBRANCH   1  15
TORSDOF 5
ENDMDL
MODEL 2
REMARK VINA RESULT:      -7.5      0.356      1.016
REMARK  Name = 
REMARK  7 active torsions:
REMARK  status: ('A' for Active; 'I' for Inactive)
REMARK    1  A    between atoms: C_1  and  C_2
REMARK    2  A    between atoms: C_5  and  S_6
REMARK    3  A    between atoms: S_6  and  N_9
REMARK    4  A    between atoms: N_9  and  C_10
REMARK    5  A    between atoms: C_13  and  C_14
REMARK    6  A    between atoms: C_17  and  C_18
REMARK    7  A    between atoms: N_20  and  C_21
REMARK                            x       y       z     vdW  Elec       q    Type
REMARK                         _______ _______ _______ _____ _____    ______ ____
ROOT
ATOM      1  C   UNL     1       2.308   7.242  19.850  0.00  0.00    +0.000 A 
ATOM      2  C   UNL     1       2.400   7.779  18.568  0.00  0.00    +0.000 A 
ATOM      3  C   UNL     1       1.679   8.933  18.240  0.00  0.00    +0.000 A 
ATOM      4  C   UNL     1       0.843   9.545  19.183  0.00  0.00    +0.000 A 
ATOM      5  C   UNL     1       0.738   8.944  20.445  0.00  0.00    +0.000 A 
ATOM      6  C   UNL     1       1.470   7.817  20.789  0.00  0.00    +0.000 A 
ENDROOT
BRANCH   4   7
ATOM      7  C   UNL     1       0.094  10.769  18.852  0.00  0.00    +0.000 A 
ATOM      8  C   UNL     1      -1.152  10.879  18.236  0.00  0.00    +0.000 A 
ATOM      9  C   UNL     1      -1.469  12.246  18.095  0.00  0.00    +0.000 A 
ATOM     10  C   UNL     1      -0.418  12.967  18.624  0.00  0.00    +0.000 A 
ATOM     11  N   UNL     1       0.525  12.074  19.075  0.00  0.00    +0.000 N 
ATOM     12  C   UNL     1       1.813  12.460  19.624  0.00  0.00    +0.000 C 
BRANCH  10  13
ATOM     13  C   UNL     1      -0.312  14.381  18.684  0.00  0.00    +0.000 C 
ATOM     14  N   UNL     1      -0.236  15.542  18.760  0.00  0.00    +0.000 NA
ENDBRANCH  10  13
ENDBRANCH   4   7
BRANCH   1  15
ATOM     15  N   UNL     1       3.080   6.122  20.208  0.00  0.00    +0.000 N 
ATOM     16  H   UNL     1       3.900   6.220  20.802  0.00  0.00    +0.000 HD
BRANCH  15  17
ATOM     17  S   UNL     1       2.868   4.669  19.395  0.00  0.00    +0.000 S 
ATOM     18  O   UNL     1       1.557   4.660  18.785  0.00  0.00    +0.000 OA
ATOM     19  O   UNL     1       3.269   3.634  20.325  0.00  0.00    +0.000 OA
BRANCH  17  24
ATOM     20  C   UNL     1       7.157   4.778  15.074  0.00  0.00    +0.000 C 
ATOM     21  C   UNL     1       6.089   4.758  16.128  0.00  0.00    +0.000 A 
ATOM     22  C   UNL     1       6.241   5.487  17.313  0.00  0.00    +0.000 A 
ATOM     23  C   UNL     1       5.247   5.459  18.292  0.00  0.00    +0.000 A 
ATOM     24  C   UNL     1       4.088   4.706  18.092  0.00  0.00    +0.000 A 
ATOM     25  C   UNL     1       3.929   3.955  16.919  0.00  0.00    +0.000 A 
ATOM     26  C   UNL     1       4.926   3.994  15.939  0.00  0.00    +0.000 A 
ENDBRANCH  17  24
ENDBRANCH  15  17
ENDBRANCH   1  15
TORSDOF 5
ENDMDL
MODEL 3
REMARK VINA RESULT:      -7.5      2.067      2.698
REMARK  Name = 
REMARK  7 active torsions:
REMARK  status: ('A' for Active; 'I' for Inactive)
REMARK    1  A    between atoms: C_1  and  C_2
REMARK    2  A    between atoms: C_5  and  S_6
REMARK    3  A    between atoms: S_6  and  N_9
REMARK    4  A    between atoms: N_9  and  C_10
REMARK    5  A    between atoms: C_13  and  C_14
REMARK    6  A    between atoms: C_17  and  C_18
REMARK    7  A    between atoms: N_20  and  C_21
REMARK                            x       y       z     vdW  Elec       q    Type
REMARK                         _______ _______ _______ _____ _____    ______ ____
ROOT
ATOM      1  C   UNL     1       2.753   5.828  19.133  0.00  0.00    +0.000 A 
ATOM      2  C   UNL     1       2.126   6.018  20.362  0.00  0.00    +0.000 A 
ATOM      3  C   UNL     1       1.516   7.244  20.653  0.00  0.00    +0.000 A 
ATOM      4  C   UNL     1       1.546   8.295  19.728  0.00  0.00    +0.000 A 
ATOM      5  C   UNL     1       2.231   8.080  18.524  0.00  0.00    +0.000 A 
ATOM      6  C   UNL     1       2.816   6.860  18.215  0.00  0.00    +0.000 A 
ENDROOT
BRANCH   4   7
ATOM      7  C   UNL     1       0.892   9.582  20.018  0.00  0.00    +0.000 A 
ATOM      8  C   UNL     1       0.583  10.613  19.132  0.00  0.00    +0.000 A 
ATOM      9  C   UNL     1      -0.017  11.666  19.853  0.00  0.00    +0.000 A 
ATOM     10  C   UNL     1      -0.073  11.277  21.176  0.00  0.00    +0.000 A 
ATOM     11  N   UNL     1       0.480  10.022  21.273  0.00  0.00    +0.000 N 
ATOM     12  C   UNL     1       0.673   9.313  22.526  0.00  0.00    +0.000 C 
BRANCH  10  13
ATOM     13  C   UNL     1      -0.595  12.036  22.256  0.00  0.00    +0.000 C 
ATOM     14  N   UNL     1      -0.998  12.671  23.147  0.00  0.00    +0.000 NA
ENDBRANCH  10  13
ENDBRANCH   4   7
BRANCH   1  15
ATOM     15  N   UNL     1       3.311   4.578  18.807  0.00  0.00    +0.000 N 
ATOM     16  H   UNL     1       2.718   3.769  18.635  0.00  0.00    +0.000 HD
BRANCH  15  17
ATOM     17  S   UNL     1       4.954   4.316  19.027  0.00  0.00    +0.000 S 
ATOM     18  O   UNL     1       5.152   2.973  19.524  0.00  0.00    +0.000 OA
ATOM     19  O   UNL     1       5.443   5.465  19.760  0.00  0.00    +0.000 OA
BRANCH  17  24
ATOM     20  C   UNL     1       7.161   4.727  13.367  0.00  0.00    +0.000 C 
ATOM     21  C   UNL     1       6.627   4.612  14.766  0.00  0.00    +0.000 A 
ATOM     22  C   UNL     1       5.282   4.303  14.994  0.00  0.00    +0.000 A 
ATOM     23  C   UNL     1       4.791   4.204  16.296  0.00  0.00    +0.000 A 
ATOM     24  C   UNL     1       5.643   4.409  17.383  0.00  0.00    +0.000 A 
ATOM     25  C   UNL     1       6.989   4.740  17.172  0.00  0.00    +0.000 A 
ATOM     26  C   UNL     1       7.476   4.829  15.863  0.00  0.00    +0.000 A 
ENDBRANCH  17  24
ENDBRANCH  15  17
ENDBRANCH   1  15
TORSDOF 5
ENDMDL
MODEL 4
REMARK VINA RESULT:      -7.4      1.797      2.436
REMARK  Name = 
REMARK  7 active torsions:
REMARK  status: ('A' for Active; 'I' for Inactive)
REMARK    1  A    between atoms: C_1  and  C_2
REMARK    2  A    between atoms: C_5  and  S_6
REMARK    3  A    between atoms: S_6  and  N_9
REMARK    4  A    between atoms: N_9  and  C_10
REMARK    5  A    between atoms: C_13  and  C_14
REMARK    6  A    between atoms: C_17  and  C_18
REMARK    7  A    between atoms: N_20  and  C_21
REMARK                            x       y       z     vdW  Elec       q    Type
REMARK                         _______ _______ _______ _____ _____    ______ ____
ROOT
ATOM      1  C   UNL     1       2.684   5.633  19.191  0.00  0.00    +0.000 A 
ATOM      2  C   UNL     1       2.765   6.791  18.423  0.00  0.00    +0.000 A 
ATOM      3  C   UNL     1       2.176   7.976  18.881  0.00  0.00    +0.000 A 
ATOM      4  C   UNL     1       1.483   8.005  20.098  0.00  0.00    +0.000 A 
ATOM      5  C   UNL     1       1.381   6.806  20.816  0.00  0.00    +0.000 A 
ATOM      6  C   UNL     1       1.985   5.633  20.385  0.00  0.00    +0.000 A 
ENDROOT
BRANCH   4   7
ATOM      7  C   UNL     1       0.875   9.251  20.596  0.00  0.00    +0.000 A 
ATOM      8  C   UNL     1       0.823   9.722  21.907  0.00  0.00    +0.000 A 
ATOM      9  C   UNL     1       0.120  10.945  21.922  0.00  0.00    +0.000 A 
ATOM     10  C   UNL     1      -0.255  11.217  20.622  0.00  0.00    +0.000 A 
ATOM     11  N   UNL     1       0.197  10.192  19.826  0.00  0.00    +0.000 N 
ATOM     12  C   UNL     1      -0.077  10.085  18.404  0.00  0.00    +0.000 C 
BRANCH  10  13
ATOM     13  C   UNL     1      -0.989  12.347  20.176  0.00  0.00    +0.000 C 
ATOM     14  N   UNL     1      -1.569  13.291  19.810  0.00  0.00    +0.000 NA
ENDBRANCH  10  13
ENDBRANCH   4   7
BRANCH   1  15
ATOM     15  N   UNL     1       3.330   4.456  18.770  0.00  0.00    +0.000 N 
ATOM     16  H   UNL     1       2.795   3.630  18.509  0.00  0.00    +0.000 HD
BRANCH  15  17
ATOM     17  S   UNL     1       4.981   4.277  19.012  0.00  0.00    +0.000 S 
ATOM     18  O   UNL     1       5.240   2.948  19.519  0.00  0.00    +0.000 OA
ATOM     19  O   UNL     1       5.402   5.454  19.745  0.00  0.00    +0.000 OA
BRANCH  17  24
ATOM     20  C   UNL     1       7.243   4.782  13.382  0.00  0.00    +0.000 C 
ATOM     21  C   UNL     1       6.695   4.644  14.772  0.00  0.00    +0.000 A 
ATOM     22  C   UNL     1       5.342   4.356  14.982  0.00  0.00    +0.000 A 
ATOM     23  C   UNL     1       4.839   4.235  16.277  0.00  0.00    +0.000 A 
ATOM     24  C   UNL     1       5.686   4.397  17.376  0.00  0.00    +0.000 A 
ATOM     25  C   UNL     1       7.039   4.706  17.184  0.00  0.00    +0.000 A 
ATOM     26  C   UNL     1       7.538   4.818  15.881  0.00  0.00    +0.000 A 
ENDBRANCH  17  24
ENDBRANCH  15  17
ENDBRANCH   1  15
TORSDOF 5
ENDMDL
MODEL 5
REMARK VINA RESULT:      -7.2      3.817      9.218
REMARK  Name = 
REMARK  7 active torsions:
REMARK  status: ('A' for Active; 'I' for Inactive)
REMARK    1  A    between atoms: C_1  and  C_2
REMARK    2  A    between atoms: C_5  and  S_6
REMARK    3  A    between atoms: S_6  and  N_9
REMARK    4  A    between atoms: N_9  and  C_10
REMARK    5  A    between atoms: C_13  and  C_14
REMARK    6  A    between atoms: C_17  and  C_18
REMARK    7  A    between atoms: N_20  and  C_21
REMARK                            x       y       z     vdW  Elec       q    Type
REMARK                         _______ _______ _______ _____ _____    ______ ____
ROOT
ATOM      1  C   UNL     1       1.359   9.376  19.706  0.00  0.00    +0.000 A 
ATOM      2  C   UNL     1       1.684   9.375  18.353  0.00  0.00    +0.000 A 
ATOM      3  C   UNL     1       2.208   8.221  17.760  0.00  0.00    +0.000 A 
ATOM      4  C   UNL     1       2.432   7.066  18.521  0.00  0.00    +0.000 A 
ATOM      5  C   UNL     1       2.140   7.124  19.890  0.00  0.00    +0.000 A 
ATOM      6  C   UNL     1       1.595   8.255  20.482  0.00  0.00    +0.000 A 
ENDROOT
BRANCH   4   7
ATOM      7  C   UNL     1       2.967   5.841  17.902  0.00  0.00    +0.000 A 
ATOM      8  C   UNL     1       2.425   4.557  17.923  0.00  0.00    +0.000 A 
ATOM      9  C   UNL     1       3.289   3.689  17.222  0.00  0.00    +0.000 A 
ATOM     10  C   UNL     1       4.355   4.444  16.777  0.00  0.00    +0.000 A 
ATOM     11  N   UNL     1       4.160   5.740  17.193  0.00  0.00    +0.000 N 
ATOM     12  C   UNL     1       5.116   6.813  16.983  0.00  0.00    +0.000 C 
BRANCH  10  13
ATOM     13  C   UNL     1       5.467   3.974  16.031  0.00  0.00    +0.000 C 
ATOM     14  N   UNL     1       6.396   3.610  15.426  0.00  0.00    +0.000 NA
ENDBRANCH  10  13
ENDBRANCH   4   7
BRANCH   1  15
ATOM     15  N   UNL     1       0.771  10.511  20.295  0.00  0.00    +0.000 N 
ATOM     16  H   UNL     1       1.029  10.807  21.233  0.00  0.00    +0.000 HD
BRANCH  15  17
ATOM     17  S   UNL     1      -0.599  11.193  19.605  0.00  0.00    +0.000 S 
ATOM     18  O   UNL     1      -1.338  10.161  18.912  0.00  0.00    +0.000 OA
ATOM     19  O   UNL     1      -0.143  12.381  18.913  0.00  0.00    +0.000 OA
BRANCH  17  24
ATOM     20  C   UNL     1      -4.074  13.005  24.264  0.00  0.00    +0.000 C 
ATOM     21  C   UNL     1      -3.205  12.568  23.121  0.00  0.00    +0.000 A 
ATOM     22  C   UNL     1      -3.528  12.913  21.804  0.00  0.00    +0.000 A 
ATOM     23  C   UNL     1      -2.719  12.497  20.747  0.00  0.00    +0.000 A 
ATOM     24  C   UNL     1      -1.575  11.737  20.997  0.00  0.00    +0.000 A 
ATOM     25  C   UNL     1      -1.248  11.365  22.308  0.00  0.00    +0.000 A 
ATOM     26  C   UNL     1      -2.060  11.792  23.365  0.00  0.00    +0.000 A 
ENDBRANCH  17  24
ENDBRANCH  15  17
ENDBRANCH   1  15
TORSDOF 5
ENDMDL
MODEL 6
REMARK VINA RESULT:      -7.2      3.841      9.382
REMARK  Name = 
REMARK  7 active torsions:
REMARK  status: ('A' for Active; 'I' for Inactive)
REMARK    1  A    between atoms: C_1  and  C_2
REMARK    2  A    between atoms: C_5  and  S_6
REMARK    3  A    between atoms: S_6  and  N_9
REMARK    4  A    between atoms: N_9  and  C_10
REMARK    5  A    between atoms: C_13  and  C_14
REMARK    6  A    between atoms: C_17  and  C_18
REMARK    7  A    between atoms: N_20  and  C_21
REMARK                            x       y       z     vdW  Elec       q    Type
REMARK                         _______ _______ _______ _____ _____    ______ ____
ROOT
ATOM      1  C   UNL     1       1.218   9.860  19.394  0.00  0.00    +0.000 A 
ATOM      2  C   UNL     1       1.358   8.815  20.304  0.00  0.00    +0.000 A 
ATOM      3  C   UNL     1       1.993   7.630  19.916  0.00  0.00    +0.000 A 
ATOM      4  C   UNL     1       2.474   7.471  18.610  0.00  0.00    +0.000 A 
ATOM      5  C   UNL     1       2.268   8.526  17.710  0.00  0.00    +0.000 A 
ATOM      6  C   UNL     1       1.663   9.715  18.092  0.00  0.00    +0.000 A 
ENDROOT
BRANCH   4   7
ATOM      7  C   UNL     1       3.159   6.235  18.198  0.00  0.00    +0.000 A 
ATOM      8  C   UNL     1       4.261   6.099  17.354  0.00  0.00    +0.000 A 
ATOM      9  C   UNL     1       4.563   4.728  17.220  0.00  0.00    +0.000 A 
ATOM     10  C   UNL     1       3.646   4.030  17.981  0.00  0.00    +0.000 A 
ATOM     11  N   UNL     1       2.799   4.942  18.565  0.00  0.00    +0.000 N 
ATOM     12  C   UNL     1       1.649   4.579  19.376  0.00  0.00    +0.000 C 
BRANCH  10  13
ATOM     13  C   UNL     1       3.574   2.620  18.131  0.00  0.00    +0.000 C 
ATOM     14  N   UNL     1       3.515   1.460  18.226  0.00  0.00    +0.000 NA
ENDBRANCH  10  13
ENDBRANCH   4   7
BRANCH   1  15
ATOM     15  N   UNL     1       0.640  11.078  19.795  0.00  0.00    +0.000 N 
ATOM     16  H   UNL     1       1.057  11.637  20.536  0.00  0.00    +0.000 HD
BRANCH  15  17
ATOM     17  S   UNL     1      -0.917  11.465  19.301  0.00  0.00    +0.000 S 
ATOM     18  O   UNL     1      -1.533  10.288  18.728  0.00  0.00    +0.000 OA
ATOM     19  O   UNL     1      -0.798  12.692  18.542  0.00  0.00    +0.000 OA
BRANCH  17  24
ATOM     20  C   UNL     1      -4.003  12.770  24.385  0.00  0.00    +0.000 C 
ATOM     21  C   UNL     1      -3.230  12.458  23.137  0.00  0.00    +0.000 A 
ATOM     22  C   UNL     1      -3.724  12.824  21.880  0.00  0.00    +0.000 A 
ATOM     23  C   UNL     1      -3.003  12.525  20.724  0.00  0.00    +0.000 A 
ATOM     24  C   UNL     1      -1.777  11.863  20.814  0.00  0.00    +0.000 A 
ATOM     25  C   UNL     1      -1.278  11.471  22.064  0.00  0.00    +0.000 A 
ATOM     26  C   UNL     1      -2.003  11.781  23.220  0.00  0.00    +0.000 A 
ENDBRANCH  17  24
ENDBRANCH  15  17
ENDBRANCH   1  15
TORSDOF 5
ENDMDL
MODEL 7
REMARK VINA RESULT:      -7.2      1.594      2.119
REMARK  Name = 
REMARK  7 active torsions:
REMARK  status: ('A' for Active; 'I' for Inactive)
REMARK    1  A    between atoms: C_1  and  C_2
REMARK    2  A    between atoms: C_5  and  S_6
REMARK    3  A    between atoms: S_6  and  N_9
REMARK    4  A    between atoms: N_9  and  C_10
REMARK    5  A    between atoms: C_13  and  C_14
REMARK    6  A    between atoms: C_17  and  C_18
REMARK    7  A    between atoms: N_20  and  C_21
REMARK                            x       y       z     vdW  Elec       q    Type
REMARK                         _______ _______ _______ _____ _____    ______ ____
ROOT
ATOM      1  C   UNL     1       2.766   5.858  19.087  0.00  0.00    +0.000 A 
ATOM      2  C   UNL     1       2.180   6.130  20.320  0.00  0.00    +0.000 A 
ATOM      3  C   UNL     1       1.564   7.367  20.542  0.00  0.00    +0.000 A 
ATOM      4  C   UNL     1       1.550   8.349  19.543  0.00  0.00    +0.000 A 
ATOM      5  C   UNL     1       2.197   8.054  18.335  0.00  0.00    +0.000 A 
ATOM      6  C   UNL     1       2.786   6.821  18.094  0.00  0.00    +0.000 A 
ENDROOT
BRANCH   4   7
ATOM      7  C   UNL     1       0.890   9.647  19.762  0.00  0.00    +0.000 A 
ATOM      8  C   UNL     1      -0.173   9.941  20.615  0.00  0.00    +0.000 A 
ATOM      9  C   UNL     1      -0.496  11.308  20.482  0.00  0.00    +0.000 A 
ATOM     10  C   UNL     1       0.368  11.844  19.548  0.00  0.00    +0.000 A 
ATOM     11  N   UNL     1       1.198  10.839  19.113  0.00  0.00    +0.000 N 
ATOM     12  C   UNL     1       2.191  11.002  18.065  0.00  0.00    +0.000 C 
BRANCH  10  13
ATOM     13  C   UNL     1       0.394  13.191  19.100  0.00  0.00    +0.000 C 
ATOM     14  N   UNL     1       0.398  14.290  18.711  0.00  0.00    +0.000 NA
ENDBRANCH  10  13
ENDBRANCH   4   7
BRANCH   1  15
ATOM     15  N   UNL     1       3.329   4.593  18.832  0.00  0.00    +0.000 N 
ATOM     16  H   UNL     1       2.740   3.770  18.728  0.00  0.00    +0.000 HD
BRANCH  15  17
ATOM     17  S   UNL     1       4.979   4.359  19.033  0.00  0.00    +0.000 S 
ATOM     18  O   UNL     1       5.202   3.035  19.570  0.00  0.00    +0.000 OA
ATOM     19  O   UNL     1       5.464   5.537  19.721  0.00  0.00    +0.000 OA
BRANCH  17  24
ATOM     20  C   UNL     1       7.090   4.615  13.328  0.00  0.00    +0.000 C 
ATOM     21  C   UNL     1       6.580   4.539  14.738  0.00  0.00    +0.000 A 
ATOM     22  C   UNL     1       5.237   4.240  14.997  0.00  0.00    +0.000 A 
ATOM     23  C   UNL     1       4.769   4.177  16.309  0.00  0.00    +0.000 A 
ATOM     24  C   UNL     1       5.640   4.407  17.376  0.00  0.00    +0.000 A 
ATOM     25  C   UNL     1       6.983   4.727  17.133  0.00  0.00    +0.000 A 
ATOM     26  C   UNL     1       7.447   4.780  15.814  0.00  0.00    +0.000 A 
ENDBRANCH  17  24
ENDBRANCH  15  17
ENDBRANCH   1  15
TORSDOF 5
ENDMDL
MODEL 8
REMARK VINA RESULT:      -7.2      1.169      1.459
REMARK  Name = 
REMARK  7 active torsions:
REMARK  status: ('A' for Active; 'I' for Inactive)
REMARK    1  A    between atoms: C_1  and  C_2
REMARK    2  A    between atoms: C_5  and  S_6
REMARK    3  A    between atoms: S_6  and  N_9
REMARK    4  A    between atoms: N_9  and  C_10
REMARK    5  A    between atoms: C_13  and  C_14
REMARK    6  A    between atoms: C_17  and  C_18
REMARK    7  A    between atoms: N_20  and  C_21
REMARK                            x       y       z     vdW  Elec       q    Type
REMARK                         _______ _______ _______ _____ _____    ______ ____
ROOT
ATOM      1  C   UNL     1       1.734   7.229  20.664  0.00  0.00    +0.000 A 
ATOM      2  C   UNL     1       2.105   7.707  19.410  0.00  0.00    +0.000 A 
ATOM      3  C   UNL     1       1.522   8.875  18.906  0.00  0.00    +0.000 A 
ATOM      4  C   UNL     1       0.546   9.561  19.642  0.00  0.00    +0.000 A 
ATOM      5  C   UNL     1       0.163   9.019  20.876  0.00  0.00    +0.000 A 
ATOM      6  C   UNL     1       0.755   7.877  21.397  0.00  0.00    +0.000 A 
ENDROOT
BRANCH   4   7
ATOM      7  C   UNL     1      -0.060  10.800  19.127  0.00  0.00    +0.000 A 
ATOM      8  C   UNL     1      -1.163  10.937  18.285  0.00  0.00    +0.000 A 
ATOM      9  C   UNL     1      -1.373  12.308  18.032  0.00  0.00    +0.000 A 
ATOM     10  C   UNL     1      -0.400  13.006  18.718  0.00  0.00    +0.000 A 
ATOM     11  N   UNL     1       0.393  12.093  19.374  0.00  0.00    +0.000 N 
ATOM     12  C   UNL     1       1.577  12.446  20.138  0.00  0.00    +0.000 C 
BRANCH  10  13
ATOM     13  C   UNL     1      -0.230  14.415  18.740  0.00  0.00    +0.000 C 
ATOM     14  N   UNL     1      -0.063  15.569  18.762  0.00  0.00    +0.000 NA
ENDBRANCH  10  13
ENDBRANCH   4   7
BRANCH   1  15
ATOM     15  N   UNL     1       2.363   6.093  21.206  0.00  0.00    +0.000 N 
ATOM     16  H   UNL     1       3.182   6.184  21.804  0.00  0.00    +0.000 HD
BRANCH  15  17
ATOM     17  S   UNL     1       1.991   4.569  20.610  0.00  0.00    +0.000 S 
ATOM     18  O   UNL     1       0.641   4.586  20.093  0.00  0.00    +0.000 OA
ATOM     19  O   UNL     1       2.386   3.634  21.643  0.00  0.00    +0.000 OA
BRANCH  17  24
ATOM     20  C   UNL     1       5.681   3.853  15.821  0.00  0.00    +0.000 C 
ATOM     21  C   UNL     1       4.781   4.019  17.010  0.00  0.00    +0.000 A 
ATOM     22  C   UNL     1       3.448   3.595  16.963  0.00  0.00    +0.000 A 
ATOM     23  C   UNL     1       2.615   3.759  18.070  0.00  0.00    +0.000 A 
ATOM     24  C   UNL     1       3.110   4.342  19.238  0.00  0.00    +0.000 A 
ATOM     25  C   UNL     1       4.437   4.790  19.296  0.00  0.00    +0.000 A 
ATOM     26  C   UNL     1       5.268   4.615  18.184  0.00  0.00    +0.000 A 
ENDBRANCH  17  24
ENDBRANCH  15  17
ENDBRANCH   1  15
TORSDOF 5
ENDMDL
MODEL 9
REMARK VINA RESULT:      -7.2      1.202      1.533
REMARK  Name = 
REMARK  7 active torsions:
REMARK  status: ('A' for Active; 'I' for Inactive)
REMARK    1  A    between atoms: C_1  and  C_2
REMARK    2  A    between atoms: C_5  and  S_6
REMARK    3  A    between atoms: S_6  and  N_9
REMARK    4  A    between atoms: N_9  and  C_10
REMARK    5  A    between atoms: C_13  and  C_14
REMARK    6  A    between atoms: C_17  and  C_18
REMARK    7  A    between atoms: N_20  and  C_21
REMARK                            x       y       z     vdW  Elec       q    Type
REMARK                         _______ _______ _______ _____ _____    ______ ____
ROOT
ATOM      1  C   UNL     1       2.398   7.469  19.607  0.00  0.00    +0.000 A 
ATOM      2  C   UNL     1       1.576   7.743  20.697  0.00  0.00    +0.000 A 
ATOM      3  C   UNL     1       0.620   8.762  20.614  0.00  0.00    +0.000 A 
ATOM      4  C   UNL     1       0.495   9.531  19.449  0.00  0.00    +0.000 A 
ATOM      5  C   UNL     1       1.376   9.258  18.394  0.00  0.00    +0.000 A 
ATOM      6  C   UNL     1       2.308   8.232  18.457  0.00  0.00    +0.000 A 
ENDROOT
BRANCH   4   7
ATOM      7  C   UNL     1      -0.518  10.594  19.346  0.00  0.00    +0.000 A 
ATOM      8  C   UNL     1      -1.537  10.727  18.404  0.00  0.00    +0.000 A 
ATOM      9  C   UNL     1      -2.254  11.911  18.674  0.00  0.00    +0.000 A 
ATOM     10  C   UNL     1      -1.671  12.498  19.779  0.00  0.00    +0.000 A 
ATOM     11  N   UNL     1      -0.623  11.704  20.179  0.00  0.00    +0.000 N 
ATOM     12  C   UNL     1       0.283  12.040  21.264  0.00  0.00    +0.000 C 
BRANCH  10  13
ATOM     13  C   UNL     1      -2.069  13.714  20.395  0.00  0.00    +0.000 C 
ATOM     14  N   UNL     1      -2.420  14.701  20.907  0.00  0.00    +0.000 NA
ENDBRANCH  10  13
ENDBRANCH   4   7
BRANCH   1  15
ATOM     15  N   UNL     1       3.315   6.403  19.660  0.00  0.00    +0.000 N 
ATOM     16  H   UNL     1       4.262   6.544  20.005  0.00  0.00    +0.000 HD
BRANCH  15  17
ATOM     17  S   UNL     1       2.980   4.974  18.846  0.00  0.00    +0.000 S 
ATOM     18  O   UNL     1       1.644   5.049  18.299  0.00  0.00    +0.000 OA
ATOM     19  O   UNL     1       3.361   3.907  19.748  0.00  0.00    +0.000 OA
BRANCH  17  24
ATOM     20  C   UNL     1       6.837   4.773  14.139  0.00  0.00    +0.000 C 
ATOM     21  C   UNL     1       5.898   4.830  15.309  0.00  0.00    +0.000 A 
ATOM     22  C   UNL     1       5.444   3.656  15.919  0.00  0.00    +0.000 A 
ATOM     23  C   UNL     1       4.566   3.716  17.001  0.00  0.00    +0.000 A 
ATOM     24  C   UNL     1       4.139   4.954  17.488  0.00  0.00    +0.000 A 
ATOM     25  C   UNL     1       4.568   6.139  16.876  0.00  0.00    +0.000 A 
ATOM     26  C   UNL     1       5.455   6.070  15.795  0.00  0.00    +0.000 A 
ENDBRANCH  17  24
ENDBRANCH  15  17
ENDBRANCH   1  15
TORSDOF 5
ENDMDL
