MODEL 1
REMARK VINA RESULT:      -8.7      0.000      0.000
REMARK  Name = 
REMARK  4 active torsions:
REMARK  status: ('A' for Active; 'I' for Inactive)
REMARK    1  A    between atoms: C_7  and  C_8
REMARK    2  A    between atoms: C_12  and  O_13
REMARK    3  A    between atoms: O_13  and  C_14
REMARK    4  A    between atoms: C_14  and  C_15
REMARK                            x       y       z     vdW  Elec       q    Type
REMARK                         _______ _______ _______ _____ _____    ______ ____
ROOT
ATOM      1  C   UNL     1       3.929   4.269  19.500  0.00  0.00    +0.000 A 
ATOM      2  C   UNL     1       3.304   3.022  19.410  0.00  0.00    +0.000 A 
ATOM      3  C   UNL     1       1.958   2.886  19.746  0.00  0.00    +0.000 A 
ATOM      4  C   UNL     1       1.236   3.993  20.188  0.00  0.00    +0.000 A 
ATOM      5  C   UNL     1       1.860   5.233  20.321  0.00  0.00    +0.000 A 
ATOM      6  C   UNL     1       3.198   5.380  19.945  0.00  0.00    +0.000 A 
ENDROOT
BRANCH   1  13
ATOM      7  O   UNL     1       6.435   4.639  14.248  0.00  0.00    +0.000 OA
ATOM      8  C   UNL     1       6.412   4.623  15.467  0.00  0.00    +0.000 C 
ATOM      9  N   UNL     1       7.494   4.641  16.282  0.00  0.00    +0.000 N 
ATOM     10  C   UNL     1       7.285   4.594  17.631  0.00  0.00    +0.000 C 
ATOM     11  O   UNL     1       8.168   4.593  18.471  0.00  0.00    +0.000 OA
ATOM     12  C   UNL     1       5.828   4.525  17.911  0.00  0.00    +0.000 C 
ATOM     13  C   UNL     1       5.347   4.412  19.157  0.00  0.00    +0.000 C 
ATOM     14  S   UNL     1       4.945   4.566  16.429  0.00  0.00    +0.000 S 
ATOM     15  H   UNL     1       8.425   4.660  15.902  0.00  0.00    +0.000 HD
ENDBRANCH   1  13
BRANCH   5  16
ATOM     16  O   UNL     1       1.238   6.351  20.814  0.00  0.00    +0.000 OA
BRANCH  16  17
ATOM     17  C   UNL     1       1.770   7.589  20.317  0.00  0.00    +0.000 C 
BRANCH  17  18
ATOM     18  C   UNL     1       1.016   8.787  20.851  0.00  0.00    +0.000 A 
ATOM     19  C   UNL     1       0.760   8.925  22.224  0.00  0.00    +0.000 A 
ATOM     20  C   UNL     1      -0.020   9.977  22.702  0.00  0.00    +0.000 A 
ATOM     21  C   UNL     1      -0.542  10.912  21.808  0.00  0.00    +0.000 A 
ATOM     22 CL   UNL     1      -1.542  12.180  22.395  0.00  0.00    +0.000 Cl
ATOM     23  C   UNL     1      -0.269  10.818  20.447  0.00  0.00    +0.000 A 
ATOM     24  C   UNL     1       0.511   9.763  19.973  0.00  0.00    +0.000 A 
ATOM     25 CL   UNL     1       0.812   9.692  18.269  0.00  0.00    +0.000 Cl
ENDBRANCH  17  18
ENDBRANCH  16  17
ENDBRANCH   5  16
TORSDOF 4
ENDMDL
MODEL 2
REMARK VINA RESULT:      -8.6      1.494      2.192
REMARK  Name = 
REMARK  4 active torsions:
REMARK  status: ('A' for Active; 'I' for Inactive)
REMARK    1  A    between atoms: C_7  and  C_8
REMARK    2  A    between atoms: C_12  and  O_13
REMARK    3  A    between atoms: O_13  and  C_14
REMARK    4  A    between atoms: C_14  and  C_15
REMARK                            x       y       z     vdW  Elec       q    Type
REMARK                         _______ _______ _______ _____ _____    ______ ____
ROOT
ATOM      1  C   UNL     1       3.089   3.521  17.909  0.00  0.00    +0.000 A 
ATOM      2  C   UNL     1       2.381   2.316  17.932  0.00  0.00    +0.000 A 
ATOM      3  C   UNL     1       1.282   2.163  18.776  0.00  0.00    +0.000 A 
ATOM      4  C   UNL     1       0.898   3.209  19.613  0.00  0.00    +0.000 A 
ATOM      5  C   UNL     1       1.622   4.401  19.629  0.00  0.00    +0.000 A 
ATOM      6  C   UNL     1       2.697   4.570  18.752  0.00  0.00    +0.000 A 
ENDROOT
BRANCH   1  13
ATOM      7  O   UNL     1       8.133   6.270  18.914  0.00  0.00    +0.000 OA
ATOM      8  C   UNL     1       7.340   5.609  18.264  0.00  0.00    +0.000 C 
ATOM      9  N   UNL     1       7.503   5.212  16.979  0.00  0.00    +0.000 N 
ATOM     10  C   UNL     1       6.499   4.493  16.395  0.00  0.00    +0.000 C 
ATOM     11  O   UNL     1       6.514   4.085  15.247  0.00  0.00    +0.000 OA
ATOM     12  C   UNL     1       5.388   4.305  17.363  0.00  0.00    +0.000 C 
ATOM     13  C   UNL     1       4.250   3.680  17.029  0.00  0.00    +0.000 C 
ATOM     14  S   UNL     1       5.798   5.034  18.873  0.00  0.00    +0.000 S 
ATOM     15  H   UNL     1       8.328   5.464  16.462  0.00  0.00    +0.000 HD
ENDBRANCH   1  13
BRANCH   5  16
ATOM     16  O   UNL     1       1.349   5.448  20.471  0.00  0.00    +0.000 OA
BRANCH  16  17
ATOM     17  C   UNL     1       2.292   6.528  20.394  0.00  0.00    +0.000 C 
BRANCH  17  18
ATOM     18  C   UNL     1       1.610   7.873  20.275  0.00  0.00    +0.000 A 
ATOM     19  C   UNL     1       0.821   8.376  21.321  0.00  0.00    +0.000 A 
ATOM     20  C   UNL     1       0.114   9.568  21.170  0.00  0.00    +0.000 A 
ATOM     21  C   UNL     1       0.199  10.275  19.972  0.00  0.00    +0.000 A 
ATOM     22 CL   UNL     1      -0.713  11.719  19.772  0.00  0.00    +0.000 Cl
ATOM     23  C   UNL     1       1.004   9.817  18.935  0.00  0.00    +0.000 A 
ATOM     24  C   UNL     1       1.710   8.623  19.089  0.00  0.00    +0.000 A 
ATOM     25 CL   UNL     1       2.691   8.095  17.764  0.00  0.00    +0.000 Cl
ENDBRANCH  17  18
ENDBRANCH  16  17
ENDBRANCH   5  16
TORSDOF 4
ENDMDL
MODEL 3
REMARK VINA RESULT:      -8.5      1.004      1.205
REMARK  Name = 
REMARK  4 active torsions:
REMARK  status: ('A' for Active; 'I' for Inactive)
REMARK    1  A    between atoms: C_7  and  C_8
REMARK    2  A    between atoms: C_12  and  O_13
REMARK    3  A    between atoms: O_13  and  C_14
REMARK    4  A    between atoms: C_14  and  C_15
REMARK                            x       y       z     vdW  Elec       q    Type
REMARK                         _______ _______ _______ _____ _____    ______ ____
ROOT
ATOM      1  C   UNL     1       3.920   4.322  19.504  0.00  0.00    +0.000 A 
ATOM      2  C   UNL     1       3.310   3.066  19.444  0.00  0.00    +0.000 A 
ATOM      3  C   UNL     1       1.959   2.926  19.762  0.00  0.00    +0.000 A 
ATOM      4  C   UNL     1       1.219   4.039  20.156  0.00  0.00    +0.000 A 
ATOM      5  C   UNL     1       1.828   5.290  20.259  0.00  0.00    +0.000 A 
ATOM      6  C   UNL     1       3.170   5.438  19.900  0.00  0.00    +0.000 A 
ENDROOT
BRANCH   1  13
ATOM      7  O   UNL     1       6.548   4.216  14.299  0.00  0.00    +0.000 OA
ATOM      8  C   UNL     1       6.494   4.326  15.513  0.00  0.00    +0.000 C 
ATOM      9  N   UNL     1       7.555   4.460  16.345  0.00  0.00    +0.000 N 
ATOM     10  C   UNL     1       7.313   4.547  17.687  0.00  0.00    +0.000 C 
ATOM     11  O   UNL     1       8.174   4.659  18.543  0.00  0.00    +0.000 OA
ATOM     12  C   UNL     1       5.852   4.466  17.940  0.00  0.00    +0.000 C 
ATOM     13  C   UNL     1       5.342   4.470  19.180  0.00  0.00    +0.000 C 
ATOM     14  S   UNL     1       5.006   4.327  16.442  0.00  0.00    +0.000 S 
ATOM     15  H   UNL     1       8.494   4.466  15.986  0.00  0.00    +0.000 HD
ENDBRANCH   1  13
BRANCH   5  16
ATOM     16  O   UNL     1       1.186   6.415  20.705  0.00  0.00    +0.000 OA
BRANCH  16  17
ATOM     17  C   UNL     1       1.961   7.619  20.595  0.00  0.00    +0.000 C 
BRANCH  17  18
ATOM     18  C   UNL     1       1.114   8.808  20.197  0.00  0.00    +0.000 A 
ATOM     19  C   UNL     1       0.262   9.429  21.123  0.00  0.00    +0.000 A 
ATOM     20  C   UNL     1      -0.590  10.459  20.728  0.00  0.00    +0.000 A 
ATOM     21  C   UNL     1      -0.588  10.887  19.401  0.00  0.00    +0.000 A 
ATOM     22 CL   UNL     1      -1.674  12.125  18.907  0.00  0.00    +0.000 Cl
ATOM     23  C   UNL     1       0.275  10.314  18.474  0.00  0.00    +0.000 A 
ATOM     24  C   UNL     1       1.126   9.282  18.872  0.00  0.00    +0.000 A 
ATOM     25 CL   UNL     1       2.175   8.600  17.675  0.00  0.00    +0.000 Cl
ENDBRANCH  17  18
ENDBRANCH  16  17
ENDBRANCH   5  16
TORSDOF 4
ENDMDL
MODEL 4
REMARK VINA RESULT:      -8.3      1.221      1.900
REMARK  Name = 
REMARK  4 active torsions:
REMARK  status: ('A' for Active; 'I' for Inactive)
REMARK    1  A    between atoms: C_7  and  C_8
REMARK    2  A    between atoms: C_12  and  O_13
REMARK    3  A    between atoms: O_13  and  C_14
REMARK    4  A    between atoms: C_14  and  C_15
REMARK                            x       y       z     vdW  Elec       q    Type
REMARK                         _______ _______ _______ _____ _____    ______ ____
ROOT
ATOM      1  C   UNL     1       2.860   5.150  18.369  0.00  0.00    +0.000 A 
ATOM      2  C   UNL     1       2.287   3.912  18.678  0.00  0.00    +0.000 A 
ATOM      3  C   UNL     1       1.455   3.782  19.790  0.00  0.00    +0.000 A 
ATOM      4  C   UNL     1       1.207   4.884  20.606  0.00  0.00    +0.000 A 
ATOM      5  C   UNL     1       1.807   6.114  20.330  0.00  0.00    +0.000 A 
ATOM      6  C   UNL     1       2.605   6.255  19.193  0.00  0.00    +0.000 A 
ENDROOT
BRANCH   1  13
ATOM      7  O   UNL     1       8.596   4.184  17.953  0.00  0.00    +0.000 OA
ATOM      8  C   UNL     1       7.488   4.481  17.538  0.00  0.00    +0.000 C 
ATOM      9  N   UNL     1       7.200   4.926  16.291  0.00  0.00    +0.000 N 
ATOM     10  C   UNL     1       5.901   5.237  16.002  0.00  0.00    +0.000 C 
ATOM     11  O   UNL     1       5.510   5.656  14.926  0.00  0.00    +0.000 OA
ATOM     12  C   UNL     1       5.052   5.006  17.199  0.00  0.00    +0.000 C 
ATOM     13  C   UNL     1       3.741   5.286  17.206  0.00  0.00    +0.000 C 
ATOM     14  S   UNL     1       6.018   4.398  18.493  0.00  0.00    +0.000 S 
ATOM     15  H   UNL     1       7.927   5.050  15.607  0.00  0.00    +0.000 HD
ENDBRANCH   1  13
BRANCH   5  16
ATOM     16  O   UNL     1       1.667   7.224  21.122  0.00  0.00    +0.000 OA
BRANCH  16  17
ATOM     17  C   UNL     1       1.459   8.444  20.394  0.00  0.00    +0.000 C 
BRANCH  17  18
ATOM     18  C   UNL     1       0.689   9.465  21.202  0.00  0.00    +0.000 A 
ATOM     19  C   UNL     1       0.108   9.122  22.433  0.00  0.00    +0.000 A 
ATOM     20  C   UNL     1      -0.684  10.035  23.127  0.00  0.00    +0.000 A 
ATOM     21  C   UNL     1      -0.893  11.309  22.600  0.00  0.00    +0.000 A 
ATOM     22 CL   UNL     1      -1.910  12.416  23.435  0.00  0.00    +0.000 Cl
ATOM     23  C   UNL     1      -0.297  11.686  21.402  0.00  0.00    +0.000 A 
ATOM     24  C   UNL     1       0.495  10.769  20.709  0.00  0.00    +0.000 A 
ATOM     25 CL   UNL     1       1.207  11.289  19.219  0.00  0.00    +0.000 Cl
ENDBRANCH  17  18
ENDBRANCH  16  17
ENDBRANCH   5  16
TORSDOF 4
ENDMDL
MODEL 5
REMARK VINA RESULT:      -8.2      1.291      1.794
REMARK  Name = 
REMARK  4 active torsions:
REMARK  status: ('A' for Active; 'I' for Inactive)
REMARK    1  A    between atoms: C_7  and  C_8
REMARK    2  A    between atoms: C_12  and  O_13
REMARK    3  A    between atoms: O_13  and  C_14
REMARK    4  A    between atoms: C_14  and  C_15
REMARK                            x       y       z     vdW  Elec       q    Type
REMARK                         _______ _______ _______ _____ _____    ______ ____
ROOT
ATOM      1  C   UNL     1       3.435   3.665  18.270  0.00  0.00    +0.000 A 
ATOM      2  C   UNL     1       3.249   2.434  18.906  0.00  0.00    +0.000 A 
ATOM      3  C   UNL     1       2.487   2.355  20.071  0.00  0.00    +0.000 A 
ATOM      4  C   UNL     1       1.923   3.508  20.614  0.00  0.00    +0.000 A 
ATOM      5  C   UNL     1       2.137   4.747  20.010  0.00  0.00    +0.000 A 
ATOM      6  C   UNL     1       2.864   4.822  18.819  0.00  0.00    +0.000 A 
ENDROOT
BRANCH   1  13
ATOM      7  O   UNL     1       7.896   7.214  17.043  0.00  0.00    +0.000 OA
ATOM      8  C   UNL     1       7.102   6.314  16.825  0.00  0.00    +0.000 C 
ATOM      9  N   UNL     1       6.971   5.637  15.659  0.00  0.00    +0.000 N 
ATOM     10  C   UNL     1       6.008   4.670  15.581  0.00  0.00    +0.000 C 
ATOM     11  O   UNL     1       5.779   3.996  14.592  0.00  0.00    +0.000 OA
ATOM     12  C   UNL     1       5.279   4.584  16.872  0.00  0.00    +0.000 C 
ATOM     13  C   UNL     1       4.242   3.752  17.050  0.00  0.00    +0.000 C 
ATOM     14  S   UNL     1       5.944   5.711  17.996  0.00  0.00    +0.000 S 
ATOM     15  H   UNL     1       7.548   5.859  14.866  0.00  0.00    +0.000 HD
ENDBRANCH   1  13
BRANCH   5  16
ATOM     16  O   UNL     1       1.674   5.933  20.519  0.00  0.00    +0.000 OA
BRANCH  16  17
ATOM     17  C   UNL     1       2.177   7.099  19.848  0.00  0.00    +0.000 C 
BRANCH  17  18
ATOM     18  C   UNL     1       1.495   8.365  20.318  0.00  0.00    +0.000 A 
ATOM     19  C   UNL     1       1.095   8.516  21.654  0.00  0.00    +0.000 A 
ATOM     20  C   UNL     1       0.378   9.639  22.062  0.00  0.00    +0.000 A 
ATOM     21  C   UNL     1       0.064  10.632  21.135  0.00  0.00    +0.000 A 
ATOM     22 CL   UNL     1      -0.861  11.994  21.630  0.00  0.00    +0.000 Cl
ATOM     23  C   UNL     1       0.483  10.524  19.813  0.00  0.00    +0.000 A 
ATOM     24  C   UNL     1       1.200   9.397  19.408  0.00  0.00    +0.000 A 
ATOM     25 CL   UNL     1       1.689   9.311  17.750  0.00  0.00    +0.000 Cl
ENDBRANCH  17  18
ENDBRANCH  16  17
ENDBRANCH   5  16
TORSDOF 4
ENDMDL
MODEL 6
REMARK VINA RESULT:      -8.1      1.898      2.764
REMARK  Name = 
REMARK  4 active torsions:
REMARK  status: ('A' for Active; 'I' for Inactive)
REMARK    1  A    between atoms: C_7  and  C_8
REMARK    2  A    between atoms: C_12  and  O_13
REMARK    3  A    between atoms: O_13  and  C_14
REMARK    4  A    between atoms: C_14  and  C_15
REMARK                            x       y       z     vdW  Elec       q    Type
REMARK                         _______ _______ _______ _____ _____    ______ ____
ROOT
ATOM      1  C   UNL     1       3.473   3.583  17.556  0.00  0.00    +0.000 A 
ATOM      2  C   UNL     1       3.010   2.297  17.853  0.00  0.00    +0.000 A 
ATOM      3  C   UNL     1       1.975   2.118  18.770  0.00  0.00    +0.000 A 
ATOM      4  C   UNL     1       1.410   3.222  19.406  0.00  0.00    +0.000 A 
ATOM      5  C   UNL     1       1.892   4.505  19.148  0.00  0.00    +0.000 A 
ATOM      6  C   UNL     1       2.900   4.690  18.198  0.00  0.00    +0.000 A 
ENDROOT
BRANCH   1  13
ATOM      7  O   UNL     1       7.858   7.424  17.680  0.00  0.00    +0.000 OA
ATOM      8  C   UNL     1       7.211   6.494  17.229  0.00  0.00    +0.000 C 
ATOM      9  N   UNL     1       7.437   5.868  16.049  0.00  0.00    +0.000 N 
ATOM     10  C   UNL     1       6.595   4.855  15.686  0.00  0.00    +0.000 C 
ATOM     11  O   UNL     1       6.680   4.218  14.650  0.00  0.00    +0.000 OA
ATOM     12  C   UNL     1       5.557   4.667  16.732  0.00  0.00    +0.000 C 
ATOM     13  C   UNL     1       4.567   3.772  16.600  0.00  0.00    +0.000 C 
ATOM     14  S   UNL     1       5.825   5.773  18.029  0.00  0.00    +0.000 S 
ATOM     15  H   UNL     1       8.187   6.159  15.446  0.00  0.00    +0.000 HD
ENDBRANCH   1  13
BRANCH   5  16
ATOM     16  O   UNL     1       1.437   5.632  19.783  0.00  0.00    +0.000 OA
BRANCH  16  17
ATOM     17  C   UNL     1       2.424   6.663  19.933  0.00  0.00    +0.000 C 
BRANCH  17  18
ATOM     18  C   UNL     1       1.897   8.021  19.522  0.00  0.00    +0.000 A 
ATOM     19  C   UNL     1       2.134   8.527  18.235  0.00  0.00    +0.000 A 
ATOM     20  C   UNL     1       1.734   9.817  17.892  0.00  0.00    +0.000 A 
ATOM     21  C   UNL     1       1.080  10.611  18.833  0.00  0.00    +0.000 A 
ATOM     22 CL   UNL     1       0.631  12.219  18.421  0.00  0.00    +0.000 Cl
ATOM     23  C   UNL     1       0.799  10.118  20.102  0.00  0.00    +0.000 A 
ATOM     24  C   UNL     1       1.202   8.826  20.443  0.00  0.00    +0.000 A 
ATOM     25 CL   UNL     1       0.833   8.266  22.039  0.00  0.00    +0.000 Cl
ENDBRANCH  17  18
ENDBRANCH  16  17
ENDBRANCH   5  16
TORSDOF 4
ENDMDL
MODEL 7
REMARK VINA RESULT:      -8.1      1.203      1.699
REMARK  Name = 
REMARK  4 active torsions:
REMARK  status: ('A' for Active; 'I' for Inactive)
REMARK    1  A    between atoms: C_7  and  C_8
REMARK    2  A    between atoms: C_12  and  O_13
REMARK    3  A    between atoms: O_13  and  C_14
REMARK    4  A    between atoms: C_14  and  C_15
REMARK                            x       y       z     vdW  Elec       q    Type
REMARK                         _______ _______ _______ _____ _____    ______ ____
ROOT
ATOM      1  C   UNL     1       3.946   4.423  19.517  0.00  0.00    +0.000 A 
ATOM      2  C   UNL     1       3.260   3.205  19.491  0.00  0.00    +0.000 A 
ATOM      3  C   UNL     1       1.907   3.155  19.825  0.00  0.00    +0.000 A 
ATOM      4  C   UNL     1       1.240   4.319  20.201  0.00  0.00    +0.000 A 
ATOM      5  C   UNL     1       1.925   5.532  20.269  0.00  0.00    +0.000 A 
ATOM      6  C   UNL     1       3.269   5.591  19.894  0.00  0.00    +0.000 A 
ENDROOT
BRANCH   1  13
ATOM      7  O   UNL     1       6.468   5.302  14.333  0.00  0.00    +0.000 OA
ATOM      8  C   UNL     1       6.445   5.113  15.538  0.00  0.00    +0.000 C 
ATOM      9  N   UNL     1       7.525   4.907  16.329  0.00  0.00    +0.000 N 
ATOM     10  C   UNL     1       7.315   4.687  17.661  0.00  0.00    +0.000 C 
ATOM     11  O   UNL     1       8.195   4.479  18.478  0.00  0.00    +0.000 OA
ATOM     12  C   UNL     1       5.859   4.720  17.950  0.00  0.00    +0.000 C 
ATOM     13  C   UNL     1       5.370   4.476  19.175  0.00  0.00    +0.000 C 
ATOM     14  S   UNL     1       4.982   5.060  16.504  0.00  0.00    +0.000 S 
ATOM     15  H   UNL     1       8.453   4.891  15.941  0.00  0.00    +0.000 HD
ENDBRANCH   1  13
BRANCH   5  16
ATOM     16  O   UNL     1       1.357   6.705  20.695  0.00  0.00    +0.000 OA
BRANCH  16  17
ATOM     17  C   UNL     1       1.999   7.887  20.193  0.00  0.00    +0.000 C 
BRANCH  17  18
ATOM     18  C   UNL     1       1.020   9.020  19.979  0.00  0.00    +0.000 A 
ATOM     19  C   UNL     1       0.676   9.441  18.685  0.00  0.00    +0.000 A 
ATOM     20  C   UNL     1      -0.148  10.548  18.491  0.00  0.00    +0.000 A 
ATOM     21  C   UNL     1      -0.648  11.239  19.594  0.00  0.00    +0.000 A 
ATOM     22 CL   UNL     1      -1.625  12.633  19.351  0.00  0.00    +0.000 Cl
ATOM     23  C   UNL     1      -0.353  10.818  20.886  0.00  0.00    +0.000 A 
ATOM     24  C   UNL     1       0.473   9.710  21.077  0.00  0.00    +0.000 A 
ATOM     25 CL   UNL     1       0.813   9.234  22.706  0.00  0.00    +0.000 Cl
ENDBRANCH  17  18
ENDBRANCH  16  17
ENDBRANCH   5  16
TORSDOF 4
ENDMDL
MODEL 8
REMARK VINA RESULT:      -8.0      3.908      7.506
REMARK  Name = 
REMARK  4 active torsions:
REMARK  status: ('A' for Active; 'I' for Inactive)
REMARK    1  A    between atoms: C_7  and  C_8
REMARK    2  A    between atoms: C_12  and  O_13
REMARK    3  A    between atoms: O_13  and  C_14
REMARK    4  A    between atoms: C_14  and  C_15
REMARK                            x       y       z     vdW  Elec       q    Type
REMARK                         _______ _______ _______ _____ _____    ______ ____
ROOT
ATOM      1  C   UNL     1       2.096   4.990  20.363  0.00  0.00    +0.000 A 
ATOM      2  C   UNL     1       1.207   3.920  20.228  0.00  0.00    +0.000 A 
ATOM      3  C   UNL     1       1.670   2.672  19.812  0.00  0.00    +0.000 A 
ATOM      4  C   UNL     1       3.019   2.494  19.513  0.00  0.00    +0.000 A 
ATOM      5  C   UNL     1       3.907   3.566  19.606  0.00  0.00    +0.000 A 
ATOM      6  C   UNL     1       3.453   4.806  20.063  0.00  0.00    +0.000 A 
ENDROOT
BRANCH   1  13
ATOM      7  O   UNL     1       2.079  10.045  17.456  0.00  0.00    +0.000 OA
ATOM      8  C   UNL     1       1.851   9.308  18.401  0.00  0.00    +0.000 C 
ATOM      9  N   UNL     1       1.345   9.687  19.599  0.00  0.00    +0.000 N 
ATOM     10  C   UNL     1       1.175   8.729  20.558  0.00  0.00    +0.000 C 
ATOM     11  O   UNL     1       0.740   8.936  21.678  0.00  0.00    +0.000 OA
ATOM     12  C   UNL     1       1.617   7.411  20.034  0.00  0.00    +0.000 C 
ATOM     13  C   UNL     1       1.610   6.305  20.792  0.00  0.00    +0.000 C 
ATOM     14  S   UNL     1       2.145   7.579  18.400  0.00  0.00    +0.000 S 
ATOM     15  H   UNL     1       1.127  10.651  19.786  0.00  0.00    +0.000 HD
ENDBRANCH   1  13
BRANCH   5  16
ATOM     16  O   UNL     1       5.233   3.489  19.264  0.00  0.00    +0.000 OA
BRANCH  16  17
ATOM     17  C   UNL     1       5.784   4.716  18.761  0.00  0.00    +0.000 C 
BRANCH  17  18
ATOM     18  C   UNL     1       6.002   4.671  17.265  0.00  0.00    +0.000 A 
ATOM     19  C   UNL     1       5.385   3.688  16.475  0.00  0.00    +0.000 A 
ATOM     20  C   UNL     1       5.666   3.588  15.114  0.00  0.00    +0.000 A 
ATOM     21  C   UNL     1       6.561   4.480  14.525  0.00  0.00    +0.000 A 
ATOM     22 CL   UNL     1       6.943   4.323  12.856  0.00  0.00    +0.000 Cl
ATOM     23  C   UNL     1       7.156   5.486  15.278  0.00  0.00    +0.000 A 
ATOM     24  C   UNL     1       6.873   5.584  16.642  0.00  0.00    +0.000 A 
ATOM     25 CL   UNL     1       7.646   6.851  17.533  0.00  0.00    +0.000 Cl
ENDBRANCH  17  18
ENDBRANCH  16  17
ENDBRANCH   5  16
TORSDOF 4
ENDMDL
MODEL 9
REMARK VINA RESULT:      -7.9      1.694      2.513
REMARK  Name = 
REMARK  4 active torsions:
REMARK  status: ('A' for Active; 'I' for Inactive)
REMARK    1  A    between atoms: C_7  and  C_8
REMARK    2  A    between atoms: C_12  and  O_13
REMARK    3  A    between atoms: O_13  and  C_14
REMARK    4  A    between atoms: C_14  and  C_15
REMARK                            x       y       z     vdW  Elec       q    Type
REMARK                         _______ _______ _______ _____ _____    ______ ____
ROOT
ATOM      1  C   UNL     1       3.218   4.063  18.632  0.00  0.00    +0.000 A 
ATOM      2  C   UNL     1       3.409   2.973  19.487  0.00  0.00    +0.000 A 
ATOM      3  C   UNL     1       2.792   2.946  20.737  0.00  0.00    +0.000 A 
ATOM      4  C   UNL     1       1.995   4.014  21.144  0.00  0.00    +0.000 A 
ATOM      5  C   UNL     1       1.831   5.125  20.315  0.00  0.00    +0.000 A 
ATOM      6  C   UNL     1       2.414   5.135  19.046  0.00  0.00    +0.000 A 
ENDROOT
BRANCH   1  13
ATOM      7  O   UNL     1       7.853   7.152  16.906  0.00  0.00    +0.000 OA
ATOM      8  C   UNL     1       6.945   6.348  16.776  0.00  0.00    +0.000 C 
ATOM      9  N   UNL     1       6.597   5.722  15.626  0.00  0.00    +0.000 N 
ATOM     10  C   UNL     1       5.533   4.865  15.656  0.00  0.00    +0.000 C 
ATOM     11  O   UNL     1       5.111   4.248  14.693  0.00  0.00    +0.000 OA
ATOM     12  C   UNL     1       4.964   4.820  17.027  0.00  0.00    +0.000 C 
ATOM     13  C   UNL     1       3.873   4.099  17.322  0.00  0.00    +0.000 C 
ATOM     14  S   UNL     1       5.881   5.838  18.075  0.00  0.00    +0.000 S 
ATOM     15  H   UNL     1       7.092   5.904  14.770  0.00  0.00    +0.000 HD
ENDBRANCH   1  13
BRANCH   5  16
ATOM     16  O   UNL     1       1.121   6.243  20.671  0.00  0.00    +0.000 OA
BRANCH  16  17
ATOM     17  C   UNL     1       1.904   7.445  20.728  0.00  0.00    +0.000 C 
BRANCH  17  18
ATOM     18  C   UNL     1       1.193   8.619  20.091  0.00  0.00    +0.000 A 
ATOM     19  C   UNL     1       1.512   9.036  18.790  0.00  0.00    +0.000 A 
ATOM     20  C   UNL     1       0.927  10.177  18.243  0.00  0.00    +0.000 A 
ATOM     21  C   UNL     1       0.004  10.907  18.992  0.00  0.00    +0.000 A 
ATOM     22 CL   UNL     1      -0.679  12.340  18.334  0.00  0.00    +0.000 Cl
ATOM     23  C   UNL     1      -0.357  10.492  20.269  0.00  0.00    +0.000 A 
ATOM     24  C   UNL     1       0.232   9.349  20.814  0.00  0.00    +0.000 A 
ATOM     25 CL   UNL     1      -0.250   8.882  22.410  0.00  0.00    +0.000 Cl
ENDBRANCH  17  18
ENDBRANCH  16  17
ENDBRANCH   5  16
TORSDOF 4
ENDMDL
